#    Name: 3vi4_ARG_GLY_ASP_2_INTS_M
#    Modification time : Tue Mar 25 00:54:47 2014

@<TRIPOS>MOLECULE
3vi4_ARG_GLY_ASP_2_INTS_M
   34     0    12     0     0
SMALL
NO_CHARGES


@<TRIPOS>ATOM
      1 CA        -18.8925  -16.1130  -13.9845 C.3       4 GLC5        0.0000 
      2 CA        -18.6650  -15.7680  -15.7070 C.3      12 GLL5        0.0000 
      3 CA        -19.1200  -16.4580  -12.2620 C.3       8 GLP5        0.0000 
      4 O         -19.2195  -12.6910  -14.5095 O.2       1 ALC1        0.0000 
      5 O         -20.6790  -13.3690  -14.2990 O.2       9 ALL1        0.0000 
      6 O         -17.7600  -12.0130  -14.7200 O.2       5 ALP1        0.0000 
      7 O         -22.9765  -12.7905  -11.7590 O.2       1 ALC1        0.0000 
      8 O         -22.1570  -13.9340  -12.6060 O.2       9 ALL1        0.0000 
      9 O         -23.7960  -11.6470  -10.9120 O.2       5 ALP1        0.0000 
     10 O         -22.4690  -11.7630  -11.7615 O.2       1 ALC1        0.0000 
     11 O         -21.1420  -11.8790  -12.6110 O.2       9 ALL1        0.0000 
     12 O         -19.7625  -11.1010  -13.0380 O.2       1 ALC1        0.0000 
     13 O         -18.3830  -10.3230  -13.4650 O.2       5 ALP1        0.0000 
     14 CA        -15.6745  -17.1480  -13.2415 C.3       4 GLC5        0.0000 
     15 CA        -14.4530  -17.1040  -14.7350 C.3      12 GLL5        0.0000 
     16 CA        -16.8960  -17.1920  -11.7480 C.3       8 GLP5        0.0000 
     17 CA        -13.1300  -15.7765  -15.1255 C.3       4 GLC5        0.0000 
     18 CA        -11.8070  -14.4490  -15.5160 C.3       8 GLP5        0.0000 
     19 Zn         -8.8625  -19.7555  -17.9780 Zn        3 ZIC7        0.0000 
     20 Zn         -9.4400  -20.3010  -17.4370 Zn       11 ZIL7        0.0000 
     21 Zn         -8.2850  -19.2100  -18.5190 Zn        7 ZIP7        0.0000 
     22 N          -9.2415  -23.1650  -17.3710 N.am      2 SEC2        0.0000 
     23 N          -9.7670  -22.1690  -16.2910 N.am     10 SEL2        0.0000 
     24 N          -8.7160  -24.1610  -18.4510 N.am      6 SEP2        0.0000 
     25 N          -9.4175  -22.9140  -14.8985 N.am      2 SEC2        0.0000 
     26 N          -9.0680  -23.6590  -13.5060 N.am      6 SEP2        0.0000 
     27 N          -8.7845  -21.5010  -15.1325 N.am      2 SEC2        0.0000 
     28 N          -7.8020  -20.8330  -13.9740 N.am      6 SEP2        0.0000 
     29 CA        -19.5128  -14.9320  -13.7995 C.3       4 GLC5        0.0000 
     30 CA        -19.7610  -14.8000  -16.1200 C.3      12 GLL5        0.0000 
     31 CA        -18.7420  -15.1450  -12.0280 C.3       8 GLP5        0.0000 
     32 CA        -20.2248  -12.9400  -16.3075 C.3       4 GLC5        0.0000 
     33 CA        -20.8060  -14.6380  -15.0220 C.3      12 GLL5        0.0000 
     34 CA        -20.1660  -11.1610  -17.0440 C.3       8 GLP5        0.0000 
@<TRIPOS>BOND
@<TRIPOS>SUBSTRUCTURE
     1 ALC1        4 GROUP        1 X    ALC  0     ROOT ALC X 1
     2 SEC2       22 GROUP        1 X    SEC  0     **** SEC X 2
     3 ZIC7       19 GROUP        1 X    ZIC  0     **** ZIC X 5
     4 GLC5        1 GROUP        1 X    GLC  0     **** GLC X 6
     5 ALP1        6 GROUP        1 Y    ALP  0     ROOT ALP Y 8
     6 SEP2       24 GROUP        1 Y    SEP  0     **** SEP Y 9
     7 ZIP7       21 GROUP        1 Y    ZIP  0     **** ZIP Y 12
     8 GLP5        3 GROUP        1 Y    GLP  0     **** GLP Y 13
     9 ALL1        5 GROUP        1 Z    ALL  0     ROOT ALL Z 15
    10 SEL2       23 GROUP        1 Z    SEL  0     **** SEL Z 16
    11 ZIL7       20 GROUP        1 Z    ZIL  0     **** ZIL Z 19
    12 GLL5        2 GROUP        1 Z    GLL  0     **** GLL Z 20
@<TRIPOS>SET

