#    Name: 3vi4_ARG_GLY_ASP_2_ligand
#    Modification time : Tue Mar 25 00:54:48 2014

@<TRIPOS>MOLECULE
3vi4_ARG_GLY_ASP_2_ligand
   46    45     3     0     0
SMALL
NO_CHARGES


@<TRIPOS>ATOM
      1 N         -17.9920  -16.3680  -18.0270 N.4       1 ARG5001     0.0000
      2 CA        -17.5050  -15.8960  -16.6980 C.3       1 ARG5001     0.0000
      3 C         -16.4550  -16.8490  -16.1280 C.2       1 ARG5001     0.0000
      4 O         -16.5160  -18.0580  -16.3650 O.2       1 ARG5001     0.0000
      5 CB        -18.6650  -15.7680  -15.7070 C.3       1 ARG5001     0.0000
      6 CG        -19.7610  -14.8000  -16.1200 C.3       1 ARG5001     0.0000
      7 CD        -20.8060  -14.6380  -15.0220 C.3       1 ARG5001     0.0000
      8 NE        -20.6790  -13.3690  -14.2990 N.pl3     1 ARG5001     0.0000
      9 CZ        -21.3290  -13.0630  -13.1760 C.cat     1 ARG5001     0.0000
     10 NH1       -22.1570  -13.9340  -12.6060 N.pl3     1 ARG5001     0.0000
     11 NH2       -21.1420  -11.8790  -12.6110 N.pl3     1 ARG5001     0.0000
     12 HA        -17.0480  -14.9174  -16.8046 H         1 ARG5001     0.0000
     13 HB2       -18.2576  -15.4549  -14.7254 H         1 ARG5001     0.0000
     14 HB3       -19.1088  -16.7712  -15.5518 H         1 ARG5001     0.0000
     15 HG2       -20.2476  -15.1695  -17.0261 H         1 ARG5001     0.0000
     16 HG3       -19.3188  -13.8252  -16.3404 H         1 ARG5001     0.0000
     17 HD2       -20.7081  -15.4902  -14.3259 H         1 ARG5001     0.0000
     18 HD3       -21.8059  -14.7203  -15.4843 H         1 ARG5001     0.0000
     19 HE        -20.0076  -12.6777  -14.7445 H         1 ARG5001     0.0000
     20 HH11      -22.2570  -14.8143  -13.0697 H         1 ARG5001     0.0000
     21 HH12      -22.6048  -13.6300  -11.7651 H         1 ARG5001     0.0000
     22 HH21      -20.5479  -11.2445  -13.1053 H         1 ARG5001     0.0000
     23 HH22      -21.6120  -11.7272  -11.7415 H         1 ARG5001     0.0000
     24 HNCA      -17.2499  -16.4279  -18.6946 H         1 ARG5001     0.0000
     25 H         -18.4082  -17.2754  -17.9692 H         1 ARG5001     0.0000
     26 H         -18.6815  -15.7531  -18.4097 H         1 ARG5001     0.0000
     27 N         -15.5060  -16.3030  -15.3680 N.am      2 GLY5002     0.0000
     28 CA        -14.4530  -17.1040  -14.7350 C.3       2 GLY5002     0.0000
     29 C         -13.5500  -17.7910  -15.7420 C.2       2 GLY5002     0.0000
     30 O         -13.2640  -17.2350  -16.8040 O.2       2 GLY5002     0.0000
     31 HNCA      -15.4615  -15.2777  -15.1830 H         2 GLY5002     0.0000
     32 HA2       -14.8989  -17.8780  -14.0836 H         2 GLY5002     0.0000
     33 HA3       -13.8260  -16.4677  -14.0837 H         2 GLY5002     0.0000
     34 N         -13.1030  -19.0010  -15.4130 N.am      3 ASP5003     0.0000
     35 CA        -12.2540  -19.7860  -16.3140 C.3       3 ASP5003     0.0000
     36 C         -13.0040  -20.9750  -16.9140 C.2       3 ASP5003     0.0000
     37 O         -13.3300  -20.9790  -18.1020 O.2       3 ASP5003     0.0000
     38 CB        -10.9900  -20.2590  -15.5870 C.3       3 ASP5003     0.0000
     39 CG         -9.9980  -20.9590  -16.5130 C.2       3 ASP5003     0.0000
     40 OD1        -9.4400  -20.3010  -17.4370 O.co2     3 ASP5003     0.0000
     41 OD2        -9.7670  -22.1690  -16.2910 O.co2     3 ASP5003     0.0000
     42 HNCA      -13.3309  -19.4529  -14.5031 H         3 ASP5003     0.0000
     43 HA        -11.9241  -19.1507  -17.1482 H         3 ASP5003     0.0000
     44 H         -13.1798  -21.7233  -16.2057 H         3 ASP5003     0.0000
     45 HB2       -11.2790  -20.9474  -14.7828 H         3 ASP5003     0.0000
     46 HB3       -10.5007  -19.3926  -15.1244 H         3 ASP5003     0.0000
@<TRIPOS>BOND
     1    2    1 1
     2   24    1 1
     3   25    1 1
     4   26    1 1
     5    3    2 1
     6    5    2 1
     7   12    2 1
     8    4    3 2
     9    6    5 1
    10   13    5 1
    11   14    5 1
    12    7    6 1
    13   15    6 1
    14   16    6 1
    15    8    7 1
    16   17    7 1
    17   18    7 1
    18    9    8 ar
    19   19    8 1
    20   10    9 ar
    21   11    9 ar
    22   20   10 1
    23   21   10 1
    24   22   11 1
    25   23   11 1
    26   28   27 1
    27   31   27 1
    28   29   28 1
    29   32   28 1
    30   33   28 1
    31   30   29 2
    32   35   34 1
    33   42   34 1
    34   36   35 1
    35   38   35 1
    36   43   35 1
    37   37   36 2
    38   44   36 1
    39   39   38 1
    40   45   38 1
    41   46   38 1
    42   40   39 ar
    43   41   39 ar
    44   27    3 am
    45   34   29 am
@<TRIPOS>SUBSTRUCTURE
     1 ARG5001     1 RESIDUE
     2 GLY5002    27 RESIDUE
     3 ASP5003    34 RESIDUE
@<TRIPOS>SET

