#    Name: 4aac_AAV_1_INTS_M
#    Modification time : Tue Mar 25 05:22:39 2014

@<TRIPOS>MOLECULE
4aac_AAV_1_INTS_M
   63     0     9     0     0
SMALL
NO_CHARGES


@<TRIPOS>ATOM
      1 CA         -3.3995    5.0625   28.4235 C.3       3 GLC5        0.0000 
      2 CA         -1.3550    4.3410   28.7110 C.3       9 GLL5        0.0000 
      3 CA         -5.4440    5.7840   28.1360 C.3       6 GLP5        0.0000 
      4 CA         -3.9190    4.9770   27.3390 C.3       3 GLC5        0.0000 
      5 CA         -2.3940    4.1700   26.5420 C.3       9 GLL5        0.0000 
      6 CA         -3.4695    5.9710   25.8000 C.3       3 GLC5        0.0000 
      7 CA         -4.5450    7.7720   25.0580 C.3       6 GLP5        0.0000 
      8 CA         -4.3365   -2.5110   23.8635 C.3       3 GLC5        0.0000 
      9 CA         -2.9610   -1.0100   23.3360 C.3       9 GLL5        0.0000 
     10 CA         -5.7120   -4.0120   24.3910 C.3       6 GLP5        0.0000 
     11 O          -3.2630    4.1190   14.1690 O.2       1 ALC1        0.0000 
     12 O          -2.1810    3.2720   14.1690 O.2       7 ALL1        0.0000 
     13 O          -4.3450    4.9660   14.1690 O.2       4 ALP1        0.0000 
     14 N           0.6670    2.5650   15.3075 N.am      2 SEC2        0.0000 
     15 N          -0.5740    2.2130   15.1870 N.am      8 SEL2        0.0000 
     16 N           1.9080    2.9170   15.4280 N.am      5 SEP2        0.0000 
     17 CA         -2.9185    5.2570   12.1340 C.3       3 GLC5        0.0000 
     18 CA         -1.3220    4.8510   12.3900 C.3       9 GLL5        0.0000 
     19 CA         -4.5150    5.6630   11.8780 C.3       6 GLP5        0.0000 
     20 CA         -3.0125    3.6730   11.9905 C.3       3 GLC5        0.0000 
     21 CA         -4.7030    2.4950   11.5910 C.3       6 GLP5        0.0000 
     22 CA         -1.9745    5.6185   10.5755 C.3       3 GLC5        0.0000 
     23 CA         -0.2530    4.7390   11.5590 C.3       9 GLL5        0.0000 
     24 CA         -3.6960    6.4980    9.5920 C.3       6 GLP5        0.0000 
     25 CA          0.2645    5.2960    9.9010 C.3       3 GLC5        0.0000 
     26 CA          0.7820    5.8530    8.2430 C.3       6 GLP5        0.0000 
     27 CA         -4.4155    2.3475   13.6970 C.3       3 GLC5        0.0000 
     28 CA         -4.1280    2.2000   15.8030 C.3       9 GLL5        0.0000 
     29 CA         -6.9775    2.1255   15.3250 C.3       3 GLC5        0.0000 
     30 CA         -5.1860    1.8530   16.6170 C.3       9 GLL5        0.0000 
     31 CA         -8.7690    2.3980   14.0330 C.3       6 GLP5        0.0000 
     32 CA         -6.1410    2.3530   20.3845 C.3       3 GLC5        0.0000 
     33 CA         -6.1270    0.9280   18.7100 C.3       9 GLL5        0.0000 
     34 CA         -6.1550    3.7780   22.0590 C.3       6 GLP5        0.0000 
     35 CA         -6.4160   -0.5080   19.9410 C.3       3 GLC5        0.0000 
     36 CA         -6.7050   -1.9440   21.1720 C.3       6 GLP5        0.0000 
     37 N           0.8430    2.9485   14.0825 N.am      2 SEC2        0.0000 
     38 N          -0.2220    2.9800   12.7370 N.am      8 SEL2        0.0000 
     39 CA         -4.4928    0.7355   25.5367 C.3       3 GLC5        0.0000 
     40 CA         -2.8050    1.2250   24.3120 C.3       9 GLL5        0.0000 
     41 CA         -6.1710    0.9510   26.7050 C.3       6 GLP5        0.0000 
     42 CA         -4.8258    1.5598   23.3897 C.3       3 GLC5        0.0000 
     43 CA         -6.7850    1.5930   23.0960 C.3       6 GLP5        0.0000 
     44 CA         -4.8588   -1.3285   21.9378 C.3       3 GLC5        0.0000 
     45 CA         -3.0640   -0.4160   22.0710 C.3       9 GLL5        0.0000 
     46 CA         -4.9192    0.9440   22.5508 C.3       3 GLC5        0.0000 
     47 CA         -1.3368    0.1140   20.8867 C.3       3 GLC5        0.0000 
     48 CA         -3.0430    1.0060   21.9400 C.3       9 GLL5        0.0000 
     49 CA          0.3800   -0.0670   19.7680 C.3       6 GLP5        0.0000 
     50 CA         -1.3430    0.6605   18.8208 C.3       3 GLC5        0.0000 
     51 CA         -3.6030    1.1900   18.2760 C.3       9 GLL5        0.0000 
     52 CA          0.6053    4.5880   13.5852 C.3       3 GLC5        0.0000 
     53 CA          1.9980    4.3810   15.1960 C.3       6 GLP5        0.0000 
     54 CA         -0.4953    6.4840   11.7782 C.3       3 GLC5        0.0000 
     55 CA         -0.2030    8.1730   11.5820 C.3       6 GLP5        0.0000 
     56 CA         -5.2530    3.7752   16.6265 C.3       3 GLC5        0.0000 
     57 CA         -5.8490    5.5240   17.0430 C.3       6 GLP5        0.0000 
     58 CA         -5.0180    0.2373   15.9325 C.3       3 GLC5        0.0000 
     59 CA         -5.3790   -1.5520   15.6550 C.3       6 GLP5        0.0000 
     60 CA         -6.8347    2.5948   18.3798 C.3       3 GLC5        0.0000 
     61 CA         -4.9340    1.3230   17.8570 C.3       9 GLL5        0.0000 
     62 CA         -8.1390    4.0640   18.4760 C.3       6 GLP5        0.0000 
     63 CA         -5.2884   -0.2299   17.0216 C.3       3 GLC5        0.0000 
@<TRIPOS>BOND
@<TRIPOS>SUBSTRUCTURE
     1 ALC1       11 GROUP        1 X    ALC  0     ROOT ALC X 1
     2 SEC2       14 GROUP        1 X    SEC  0     **** SEC X 2
     3 GLC5        1 GROUP        1 X    GLC  0     **** GLC X 6
     4 ALP1       13 GROUP        1 Y    ALP  0     ROOT ALP Y 8
     5 SEP2       16 GROUP        1 Y    SEP  0     **** SEP Y 9
     6 GLP5        3 GROUP        1 Y    GLP  0     **** GLP Y 13
     7 ALL1       12 GROUP        1 Z    ALL  0     ROOT ALL Z 15
     8 SEL2       15 GROUP        1 Z    SEL  0     **** SEL Z 16
     9 GLL5        2 GROUP        1 Z    GLL  0     **** GLL Z 20
@<TRIPOS>SET

