#    Name: 4aac_AAV_1_ligand
#    Modification time : Tue Mar 25 05:22:39 2014

@<TRIPOS>MOLECULE
4aac_AAV_1_ligand
   58    62     1     0     0
SMALL
NO_CHARGES


@<TRIPOS>ATOM
      1 C1         -1.3550    4.3410   28.7110 C.3       1 AAV1360     0.0000 
      2 N2         -1.3390    3.6250   27.4340 N.4       1 AAV1360     0.0000 
      3 C3         -1.5470    2.1630   27.7190 C.3       1 AAV1360     0.0000 
      4 C4         -1.6820    1.3900   26.3920 C.3       1 AAV1360     0.0000 
      5 N5         -2.6900    2.0010   25.4850 N.3       1 AAV1360     0.0000 
      6 C6         -2.3690    3.4190   25.1930 C.3       1 AAV1360     0.0000 
      7 C7         -2.3940    4.1700   26.5420 C.3       1 AAV1360     0.0000 
      8 C8         -2.8050    1.2250   24.3120 C.ar      1 AAV1360     0.0000 
      9 C9         -2.8240   -0.1850   24.4250 C.ar      1 AAV1360     0.0000 
     10 C10        -2.9610   -1.0100   23.3360 C.ar      1 AAV1360     0.0000 
     11 C11        -3.0640   -0.4160   22.0710 C.ar      1 AAV1360     0.0000 
     12 N12        -3.2070   -1.1900   20.9550 N.2       1 AAV1360     0.0000 
     13 C13        -3.3930   -0.6730   19.7690 C.2       1 AAV1360     0.0000 
     14 N14        -3.3990    0.6830   19.5600 N.am      1 AAV1360     0.0000 
     15 C15        -3.6030    1.1900   18.2760 C.ar      1 AAV1360     0.0000 
     16 C16        -2.5290    1.5860   17.4710 C.ar      1 AAV1360     0.0000 
     17 C17        -2.7860    2.1000   16.1950 C.ar      1 AAV1360     0.0000 
     18 N18        -2.1810    3.2720   14.1690 N.am      1 AAV1360     0.0000 
     19 C19        -1.7600    2.5280   15.1910 C.2       1 AAV1360     0.0000 
     20 O20        -0.5740    2.2130   15.1870 O.2       1 AAV1360     0.0000 
     21 C22        -1.3220    4.8510   12.3900 C.2       1 AAV1360     0.0000 
     22 C23        -0.2530    4.7390   11.5590 C.2       1 AAV1360     0.0000 
     23 O24         0.3530    3.5680   11.8350 O.3       1 AAV1360     0.0000 
     24 C25        -1.2710    3.6680   13.1700 C.2       1 AAV1360     0.0000 
     25 C26        -4.1280    2.2000   15.8030 C.ar      1 AAV1360     0.0000 
     26 C27        -5.1860    1.8530   16.6170 C.ar      1 AAV1360     0.0000 
     27 C28        -4.9340    1.3230   17.8570 C.ar      1 AAV1360     0.0000 
     28 C29        -6.1270    0.9280   18.7100 C.3       1 AAV1360     0.0000 
     29 N29        -0.2220    2.9800   12.7370 N.2       1 AAV1360     0.0000 
     30 C30        -3.2030    1.5650   20.5840 C.2       1 AAV1360     0.0000 
     31 C31        -2.9280    1.8280   23.0550 C.ar      1 AAV1360     0.0000 
     32 O31        -3.2060    2.7730   20.3910 O.2       1 AAV1360     0.0000 
     33 C32        -3.0430    1.0060   21.9400 C.ar      1 AAV1360     0.0000 
     34 H          -0.3702    3.7500   26.9683 H         1 AAV1360     0.0000 
     35 H          -2.4535    2.0199   28.2979 H         1 AAV1360     0.0000 
     36 H          -0.7002    1.7647   28.2682 H         1 AAV1360     0.0000 
     37 H          -1.9593    0.3540   26.6267 H         1 AAV1360     0.0000 
     38 H          -0.6971    1.3685   25.9074 H         1 AAV1360     0.0000 
     39 H          -3.1085    3.8559   24.5454 H         1 AAV1360     0.0000 
     40 H          -1.3847    3.5117   24.7690 H         1 AAV1360     0.0000 
     41 H          -2.2248    5.2257   26.3481 H         1 AAV1360     0.0000 
     42 H          -3.3770    4.0404   26.9866 H         1 AAV1360     0.0000 
     43 H          -2.7290   -0.5971   25.3804 H         1 AAV1360     0.0000 
     44 H          -2.9883   -2.0204   23.4304 H         1 AAV1360     0.0000 
     45 H          -3.5462   -1.2958   18.9261 H         1 AAV1360     0.0000 
     46 H          -1.5712    1.5011   17.8099 H         1 AAV1360     0.0000 
     47 H          -3.1657    3.5752   14.0787 H         1 AAV1360     0.0000 
     48 H          -1.9516    5.5203   12.4595 H         1 AAV1360     0.0000 
     49 H           0.0153    5.3800   10.8990 H         1 AAV1360     0.0000 
     50 H          -4.3295    2.5600   14.8344 H         1 AAV1360     0.0000 
     51 H          -6.1529    1.9915   16.2945 H         1 AAV1360     0.0000 
     52 H          -2.9326    2.8384   22.9647 H         1 AAV1360     0.0000 
     53 H          -0.6318    4.0231   29.3241 H         1 AAV1360     0.0000 
     54 H          -1.2229    5.3245   28.5871 H         1 AAV1360     0.0000 
     55 H          -2.2225    4.2203   29.1936 H         1 AAV1360     0.0000 
     56 H          -6.1086   -0.0433   18.9472 H         1 AAV1360     0.0000 
     57 H          -6.1548    1.4391   19.5691 H         1 AAV1360     0.0000 
     58 H          -6.9927    1.0985   18.2394 H         1 AAV1360     0.0000 
@<TRIPOS>BOND
     1    2    1 1    
     2   53    1 1    
     3   54    1 1    
     4   55    1 1    
     5    3    2 1    
     6    7    2 1    
     7   34    2 1    
     8    4    3 1    
     9   35    3 1    
    10   36    3 1    
    11    5    4 1    
    12   37    4 1    
    13   38    4 1    
    14    6    5 1    
    15    8    5 1    
    16    7    6 1    
    17   39    6 1    
    18   40    6 1    
    19   41    7 1    
    20   42    7 1    
    21    9    8 ar   
    22   31    8 ar   
    23   10    9 ar   
    24   43    9 1    
    25   11   10 ar   
    26   44   10 1    
    27   12   11 1    
    28   33   11 ar   
    29   13   12 2    
    30   14   13 1    
    31   45   13 1    
    32   15   14 1    
    33   30   14 am   
    34   16   15 ar   
    35   27   15 ar   
    36   17   16 ar   
    37   46   16 1    
    38   19   17 1    
    39   25   17 ar   
    40   19   18 am   
    41   24   18 1    
    42   47   18 1    
    43   20   19 2    
    44   22   21 2    
    45   24   21 1    
    46   48   21 1    
    47   23   22 1    
    48   49   22 1    
    49   29   23 1    
    50   29   24 2    
    51   26   25 ar   
    52   50   25 1    
    53   27   26 ar   
    54   51   26 1    
    55   28   27 1    
    56   56   28 1    
    57   57   28 1    
    58   58   28 1    
    59   32   30 2    
    60   33   30 1    
    61   33   31 ar   
    62   52   31 1    
@<TRIPOS>SUBSTRUCTURE
     1 AAV1360     1 GROUP   
@<TRIPOS>SET

