#    Name: 3nil_ARG_ASP_ALA_1_INTS_M
#    Modification time : Tue Mar 25 01:36:26 2014

@<TRIPOS>MOLECULE
3nil_ARG_ASP_ALA_1_INTS_M
   60     0    15     0     0
SMALL
NO_CHARGES


@<TRIPOS>ATOM
      1 OD1       -39.4315   14.1435   -4.4750 O.co2     3 ASC3        0.0000 
      2 OD1       -39.3400   13.1910   -5.4950 O.co2    13 ASL3        0.0000 
      3 OD1       -39.5230   15.0960   -3.4550 O.co2     8 ASP3        0.0000 
      4 OD1       -40.4715   13.9020   -4.7775 O.co2     3 ASC3        0.0000 
      5 OD1       -41.6030   14.6130   -4.0600 O.co2     8 ASP3        0.0000 
      6 O         -39.8575   12.2935   -4.3540 O.2       1 ALC1        0.0000 
      7 O         -39.3400   13.1910   -5.4950 O.2      11 ALL1        0.0000 
      8 O         -40.3750   11.3960   -3.2130 O.2       6 ALP1        0.0000 
      9 O         -39.4315   14.1435   -4.4750 O.2       1 ALC1        0.0000 
     10 O         -39.5230   15.0960   -3.4550 O.2       6 ALP1        0.0000 
     11 CA        -41.8835   12.3285   -5.4870 C.3       5 GLC5        0.0000 
     12 CA        -40.2600   13.2810   -6.6670 C.3      15 GLL5        0.0000 
     13 CA        -43.5070   11.3760   -4.3070 C.3      10 GLP5        0.0000 
     14 N         -39.6440   10.0505   -5.8105 N.am      2 SEC2        0.0000 
     15 N         -39.8790   10.9220   -6.9030 N.am     12 SEL2        0.0000 
     16 N         -39.4090    9.1790   -4.7180 N.am      7 SEP2        0.0000 
     17 CA        -41.1500   14.6830   -8.9390 C.3       5 GLC5        0.0000 
     18 CA        -39.6590   14.1760   -7.7680 C.3      15 GLL5        0.0000 
     19 CA        -42.6410   15.1900  -10.1100 C.3      10 GLP5        0.0000 
     20 CA        -37.2305   15.8030   -8.4920 C.3       5 GLC5        0.0000 
     21 CA        -39.0440   15.5010   -7.3000 C.3      15 GLL5        0.0000 
     22 CA        -35.4170   16.1050   -9.6840 C.3      10 GLP5        0.0000 
     23 CA        -41.3585   15.8080   -8.3905 C.3       5 GLC5        0.0000 
     24 CA        -40.0760   16.4260   -6.6710 C.3      15 GLL5        0.0000 
     25 CA        -41.6800   17.6160   -6.3585 C.3       5 GLC5        0.0000 
     26 CA        -43.2840   18.8060   -6.0460 C.3      10 GLP5        0.0000 
     27 O         -39.0035   16.4185   -4.0685 O.2       1 ALC1        0.0000 
     28 O         -38.4840   17.7410   -4.6820 O.2      11 ALL1        0.0000 
     29 O         -37.6710   18.0170   -3.4760 O.2       1 ALC1        0.0000 
     30 O         -36.8580   18.2930   -2.2700 O.2       6 ALP1        0.0000 
     31 O         -37.3110   18.6835   -4.5950 O.2       1 ALC1        0.0000 
     32 O         -36.1380   19.6260   -4.5080 O.2       6 ALP1        0.0000 
     33 O         -37.3655   19.6615   -5.1960 O.2       1 ALC1        0.0000 
     34 O         -38.5930   19.6970   -5.8840 O.2      11 ALL1        0.0000 
     35 O         -42.3310   12.9630   -7.7240 O.2       1 ALC1        0.0000 
     36 O         -41.6010   11.8020   -8.0630 O.2      11 ALL1        0.0000 
     37 O         -43.0610   14.1240   -7.3850 O.2       6 ALP1        0.0000 
     38 CA        -44.1655    8.9825   -7.2235 C.3       5 GLC5        0.0000 
     39 CA        -43.4220   10.2790   -8.7270 C.3      15 GLL5        0.0000 
     40 CA        -44.9090    7.6860   -5.7200 C.3      10 GLP5        0.0000 
     41 CA        -44.4850   11.0175   -7.2420 C.3       5 GLC5        0.0000 
     42 CA        -45.5480   11.7560   -5.7570 C.3      10 GLP5        0.0000 
     43 NZ        -45.7060    9.9125   -9.3285 N.4       4 LYC4        0.0000 
     44 NZ        -45.0100    8.6550   -9.4490 N.4      14 LYL4        0.0000 
     45 NZ        -47.5690   11.4600   -8.6550 N.4       9 LYP4        0.0000 
     46 N         -45.7060    9.9125   -9.3285 N.am      2 SEC2        0.0000 
     47 N         -45.0100    8.6550   -9.4490 N.am     12 SEL2        0.0000 
     48 N         -46.4020   11.1700   -9.2080 N.am      7 SEP2        0.0000 
     49 O         -39.6745    8.8725   -9.6475 O.2       1 ALC1        0.0000 
     50 O         -40.7230    9.5240  -10.6190 O.2      11 ALL1        0.0000 
     51 O         -38.6260    8.2210   -8.6760 O.2       6 ALP1        0.0000 
     52 N         -40.7135    6.4740  -11.0795 N.am      2 SEC2        0.0000 
     53 N         -41.4300    7.3560  -12.1690 N.am     12 SEL2        0.0000 
     54 N         -39.9970    5.5920   -9.9900 N.am      7 SEP2        0.0000 
     55 CA        -38.1070    7.6485  -11.0450 C.3       5 GLC5        0.0000 
     56 CA        -38.6420    9.2540  -11.8840 C.3      15 GLL5        0.0000 
     57 CA        -37.5720    6.0430  -10.2060 C.3      10 GLP5        0.0000 
     58 CA        -41.5145    9.1528   -7.6335 C.3       5 GLC5        0.0000 
     59 CA        -41.9140   10.5600   -8.7710 C.3      15 GLL5        0.0000 
     60 CA        -40.3610    7.8860   -6.5180 C.3      10 GLP5        0.0000 
@<TRIPOS>BOND
@<TRIPOS>SUBSTRUCTURE
     1 ALC1        6 GROUP        1 X    ALC  0     ROOT ALC X 1
     2 SEC2       14 GROUP        1 X    SEC  0     **** SEC X 2
     3 ASC3        1 GROUP        1 X    ASC  0     **** ASC X 3
     4 LYC4       43 GROUP        1 X    LYC  0     **** LYC X 4
     5 GLC5       11 GROUP        1 X    GLC  0     **** GLC X 6
     6 ALP1        8 GROUP        1 Y    ALP  0     ROOT ALP Y 8
     7 SEP2       16 GROUP        1 Y    SEP  0     **** SEP Y 9
     8 ASP3        3 GROUP        1 Y    ASP  0     **** ASP Y 10
     9 LYP4       45 GROUP        1 Y    LYP  0     **** LYP Y 11
    10 GLP5       13 GROUP        1 Y    GLP  0     **** GLP Y 13
    11 ALL1        7 GROUP        1 Z    ALL  0     ROOT ALL Z 15
    12 SEL2       15 GROUP        1 Z    SEL  0     **** SEL Z 16
    13 ASL3        2 GROUP        1 Z    ASL  0     **** ASL Z 17
    14 LYL4       44 GROUP        1 Z    LYL  0     **** LYL Z 18
    15 GLL5       12 GROUP        1 Z    GLL  0     **** GLL Z 20
@<TRIPOS>SET

