#    Name: 3nil_ARG_ASP_ALA_1_ligand
#    Modification time : Tue Mar 25 01:36:27 2014

@<TRIPOS>MOLECULE
3nil_ARG_ASP_ALA_1_ligand
   49    48     3     0     0
SMALL
NO_CHARGES


@<TRIPOS>ATOM
      1 N         -39.3400   13.1910   -5.4950 N.4       1 ARG1        0.0000
      2 CA        -40.2600   13.2810   -6.6670 C.3       1 ARG1        0.0000
      3 C         -40.5660   11.8930   -7.2280 C.2       1 ARG1        0.0000
      4 O         -39.8790   10.9220   -6.9030 O.2       1 ARG1        0.0000
      5 CB        -39.6590   14.1760   -7.7680 C.3       1 ARG1        0.0000
      6 CG        -39.0440   15.5010   -7.3000 C.3       1 ARG1        0.0000
      7 CD        -40.0760   16.4260   -6.6710 C.3       1 ARG1        0.0000
      8 NE        -39.6500   17.8270   -6.6870 N.pl3     1 ARG1        0.0000
      9 CZ        -38.9100   18.4170   -5.7510 C.cat     1 ARG1        0.0000
     10 NH1       -38.4840   17.7410   -4.6820 N.pl3     1 ARG1        0.0000
     11 NH2       -38.5930   19.6970   -5.8840 N.pl3     1 ARG1        0.0000
     12 HA        -41.1996   13.7317   -6.3532 H         1 ARG1        0.0000
     13 HB2       -40.4511   14.3948   -8.5142 H         1 ARG1        0.0000
     14 HB3       -38.8834   13.5946   -8.3089 H         1 ARG1        0.0000
     15 HG2       -38.5843   16.0010   -8.1589 H         1 ARG1        0.0000
     16 HG3       -38.2558   15.2875   -6.5705 H         1 ARG1        0.0000
     17 HD2       -40.2563   16.0887   -5.6364 H         1 ARG1        0.0000
     18 HD3       -41.0263   16.3048   -7.2176 H         1 ARG1        0.0000
     19 HE        -39.9857   18.3739   -7.5374 H         1 ARG1        0.0000
     20 HH11      -38.7761   16.7866   -4.6198 H         1 ARG1        0.0000
     21 HH12      -37.9110   18.2496   -4.0394 H         1 ARG1        0.0000
     22 HH21      -38.0697   20.1010   -5.1337 H         1 ARG1        0.0000
     23 HH22      -38.9058   20.1429   -6.7226 H         1 ARG1        0.0000
     24 HNCA      -39.1278   14.0931   -5.1193 H         1 ARG1        0.0000
     25 H         -39.7358   12.6501   -4.7529 H         1 ARG1        0.0000
     26 H         -38.4697   12.7626   -5.7380 H         1 ARG1        0.0000
     27 N         -41.6010   11.8020   -8.0630 N.am      2 ASP2        0.0000
     28 CA        -41.9140   10.5600   -8.7710 C.3       2 ASP2        0.0000
     29 C         -41.4030   10.5990  -10.2170 C.2       2 ASP2        0.0000
     30 O         -41.6270   11.5730  -10.9420 O.2       2 ASP2        0.0000
     31 CB        -43.4220   10.2790   -8.7270 C.3       2 ASP2        0.0000
     32 CG        -43.8220    9.0170   -9.4950 C.2       2 ASP2        0.0000
     33 OD1       -42.9690    8.3810  -10.1500 O.co2     2 ASP2        0.0000
     34 OD2       -45.0100    8.6550   -9.4490 O.co2     2 ASP2        0.0000
     35 HNCA      -42.2362   12.6032   -8.2540 H         2 ASP2        0.0000
     36 HA        -41.4141    9.7202   -8.2704 H         2 ASP2        0.0000
     37 HB2       -43.9566   11.1400   -9.1491 H         2 ASP2        0.0000
     38 HB3       -43.7339   10.1751   -7.6796 H         2 ASP2        0.0000
     39 N         -40.7230    9.5240  -10.6190 N.am      3 ALA3        0.0000
     40 CA        -40.1560    9.3960  -11.9610 C.3       3 ALA3        0.0000
     41 C         -40.7710    8.2290  -12.7410 C.2       3 ALA3        0.0000
     42 O         -41.4300    7.3560  -12.1690 O.2       3 ALA3        0.0000
     43 CB        -38.6420    9.2540  -11.8840 C.3       3 ALA3        0.0000
     44 H         -40.5588    8.7058   -9.9841 H         3 ALA3        0.0000
     45 HA        -40.3645   10.3147  -12.5317 H         3 ALA3        0.0000
     46 H         -40.5557    8.2901  -13.7638 H         3 ALA3        0.0000
     47 HB1       -38.2307    9.1646  -12.7911 H         3 ALA3        0.0000
     48 HB2       -38.2165   10.0459  -11.4460 H         3 ALA3        0.0000
     49 HB3       -38.3709    8.4476  -11.3585 H         3 ALA3        0.0000
@<TRIPOS>BOND
     1    2    1 1
     2   24    1 1
     3   25    1 1
     4   26    1 1
     5    3    2 1
     6    5    2 1
     7   12    2 1
     8    4    3 2
     9    6    5 1
    10   13    5 1
    11   14    5 1
    12    7    6 1
    13   15    6 1
    14   16    6 1
    15    8    7 1
    16   17    7 1
    17   18    7 1
    18    9    8 ar
    19   19    8 1
    20   10    9 ar
    21   11    9 ar
    22   20   10 1
    23   21   10 1
    24   22   11 1
    25   23   11 1
    26   28   27 1
    27   35   27 1
    28   29   28 1
    29   31   28 1
    30   36   28 1
    31   30   29 2
    32   32   31 1
    33   37   31 1
    34   38   31 1
    35   33   32 ar
    36   34   32 ar
    37   40   39 1
    38   44   39 1
    39   41   40 1
    40   43   40 1
    41   45   40 1
    42   42   41 2
    43   46   41 1
    44   47   43 1
    45   48   43 1
    46   49   43 1
    47   27    3 am
    48   39   29 am
@<TRIPOS>SUBSTRUCTURE
     1 ARG1        1 RESIDUE
     2 ASP2       27 RESIDUE
     3 ALA3       39 RESIDUE
@<TRIPOS>SET

