#    Name: 2j4l_UTP_6_INTS_M
#    Modification time : Tue Mar 25 19:15:38 2014

@<TRIPOS>MOLECULE
2j4l_UTP_6_INTS_M
   66     0    12     0     0
SMALL
NO_CHARGES


@<TRIPOS>ATOM
      1 N         -37.1385    3.6400  -59.2295 N.am      2 SEC2        0.0000 
      2 N         -35.9960    4.5920  -58.5750 N.am     10 SEL2        0.0000 
      3 N         -38.2810    2.6880  -59.8840 N.am      6 SEP2        0.0000 
      4 N         -34.2280    5.3045  -62.0425 N.am      2 SEC2        0.0000 
      5 N         -35.2830    4.7720  -61.0370 N.am     10 SEL2        0.0000 
      6 N         -33.1730    5.8370  -63.0480 N.am      6 SEP2        0.0000 
      7 N         -35.4405    3.5245  -60.6645 N.am      2 SEC2        0.0000 
      8 N         -35.5980    2.2770  -60.2920 N.am      6 SEP2        0.0000 
      9 N         -31.3925    7.1420  -60.4980 N.am      2 SEC2        0.0000 
     10 N         -31.6870    6.6940  -58.9590 N.am     10 SEL2        0.0000 
     11 N         -31.0980    7.5900  -62.0370 N.am      6 SEP2        0.0000 
     12 NZ        -32.8870    3.0685  -59.5370 N.4       3 LYC4        0.0000 
     13 NZ        -32.4850    4.6520  -60.0160 N.4      11 LYL4        0.0000 
     14 NZ        -33.2890    1.4850  -59.0580 N.4       7 LYP4        0.0000 
     15 N         -31.0240    4.2225  -59.9470 N.am      2 SEC2        0.0000 
     16 N         -32.4850    4.6520  -60.0160 N.am     10 SEL2        0.0000 
     17 N         -29.5630    3.7930  -59.8780 N.am      6 SEP2        0.0000 
     18 NZ        -32.1770    2.4095  -58.4045 N.4       3 LYC4        0.0000 
     19 NZ        -31.0650    3.3340  -57.7510 N.4      11 LYL4        0.0000 
     20 N         -32.1770    2.4095  -58.4045 N.am      2 SEC2        0.0000 
     21 N         -31.0650    3.3340  -57.7510 N.am     10 SEL2        0.0000 
     22 N         -33.2890    1.4850  -59.0580 N.am      6 SEP2        0.0000 
     23 N         -29.8560    3.2250  -57.4265 N.am      2 SEC2        0.0000 
     24 N         -28.6470    3.1160  -57.1020 N.am      6 SEP2        0.0000 
     25 N         -30.3140    3.5635  -58.8145 N.am      2 SEC2        0.0000 
     26 N         -29.7565    4.2285  -56.6315 N.am      2 SEC2        0.0000 
     27 N         -30.8660    5.3410  -56.1610 N.am     10 SEL2        0.0000 
     28 NZ        -32.8430    2.4295  -57.3610 N.4       3 LYC4        0.0000 
     29 NZ        -32.3970    3.3740  -55.6640 N.4      11 LYL4        0.0000 
     30 CA        -34.5485    7.2990  -62.3255 C.3       4 GLC5        0.0000 
     31 CA        -36.2640    7.5000  -60.9660 C.3      12 GLL5        0.0000 
     32 CA        -32.8330    7.0980  -63.6850 C.3       8 GLP5        0.0000 
     33 CA        -34.9710    8.9410  -62.0955 C.3       4 GLC5        0.0000 
     34 CA        -33.6780   10.3820  -63.2250 C.3       8 GLP5        0.0000 
     35 CA        -37.2765   10.7520  -61.1625 C.3       4 GLC5        0.0000 
     36 CA        -37.2860    8.5710  -60.8930 C.3      12 GLL5        0.0000 
     37 CA        -37.2670   12.9330  -61.4320 C.3       8 GLP5        0.0000 
     38 CA        -37.3525    9.4735  -62.8060 C.3       4 GLC5        0.0000 
     39 CA        -37.4190   10.3760  -64.7190 C.3       8 GLP5        0.0000 
     40 CA        -40.8340    9.9015  -62.4760 C.3       4 GLC5        0.0000 
     41 CA        -39.5300    8.4000  -61.6490 C.3      12 GLL5        0.0000 
     42 CA        -42.1380   11.4030  -63.3030 C.3       8 GLP5        0.0000 
     43 CA        -38.4745    9.3880  -63.1840 C.3       4 GLC5        0.0000 
     44 CA        -40.3330    7.6905  -63.6030 C.3       4 GLC5        0.0000 
     45 CA        -41.1360    6.9810  -65.5570 C.3       8 GLP5        0.0000 
     46 O         -41.2650   10.4880  -60.3320 O.2       1 ALC1        0.0000 
     47 O         -40.0850   10.0480  -60.0600 O.2       9 ALL1        0.0000 
     48 O         -42.4450   10.9280  -60.6040 O.2       5 ALP1        0.0000 
     49 O         -43.2965    5.4365  -62.5175 O.2       1 ALC1        0.0000 
     50 O         -41.9290    5.6360  -62.4240 O.2       9 ALL1        0.0000 
     51 O         -44.6640    5.2370  -62.6110 O.2       5 ALP1        0.0000 
     52 N         -41.9485    2.9930  -64.3065 N.am      2 SEC2        0.0000 
     53 N         -41.7390    3.4030  -62.8620 N.am     10 SEL2        0.0000 
     54 N         -42.1580    2.5830  -65.7510 N.am      6 SEP2        0.0000 
     55 CA        -39.2465   10.1520  -58.6280 C.3       4 GLC5        0.0000 
     56 CA        -38.1740    8.5730  -59.6550 C.3      12 GLL5        0.0000 
     57 CA        -39.6090   11.6530  -57.3370 C.3       8 GLP5        0.0000 
     58 CA        -40.3180    6.1273  -63.9108 C.3       4 GLC5        0.0000 
     59 CA        -39.2590    5.8900  -62.1170 C.3      12 GLL5        0.0000 
     60 CA        -39.6445    4.1392  -63.8892 C.3       4 GLC5        0.0000 
     61 CA        -39.7890    3.0050  -65.5140 C.3       8 GLP5        0.0000 
     62 CA        -39.6885    4.6513  -60.4612 C.3       4 GLC5        0.0000 
     63 CA        -39.7410    4.6570  -62.4120 C.3      12 GLL5        0.0000 
     64 CA        -39.8770    4.0290  -58.6580 C.3       8 GLP5        0.0000 
     65 CA        -38.0545    3.8932  -62.3672 C.3       4 GLC5        0.0000 
     66 CA        -36.6090    2.5130  -62.4700 C.3       8 GLP5        0.0000 
@<TRIPOS>BOND
@<TRIPOS>SUBSTRUCTURE
     1 ALC1       46 GROUP        1 X    ALC  0     ROOT ALC X 1
     2 SEC2        1 GROUP        1 X    SEC  0     **** SEC X 2
     3 LYC4       12 GROUP        1 X    LYC  0     **** LYC X 4
     4 GLC5       30 GROUP        1 X    GLC  0     **** GLC X 6
     5 ALP1       48 GROUP        1 Y    ALP  0     ROOT ALP Y 8
     6 SEP2        3 GROUP        1 Y    SEP  0     **** SEP Y 9
     7 LYP4       14 GROUP        1 Y    LYP  0     **** LYP Y 11
     8 GLP5       32 GROUP        1 Y    GLP  0     **** GLP Y 13
     9 ALL1       47 GROUP        1 Z    ALL  0     ROOT ALL Z 15
    10 SEL2        2 GROUP        1 Z    SEL  0     **** SEL Z 16
    11 LYL4       13 GROUP        1 Z    LYL  0     **** LYL Z 18
    12 GLL5       31 GROUP        1 Z    GLL  0     **** GLL Z 20
@<TRIPOS>SET

