#    Name: 2j4l_UTP_6_ligand
#    Modification time : Tue Mar 25 19:15:38 2014

@<TRIPOS>MOLECULE
2j4l_UTP_6_ligand
   40    41     1     0     0
SMALL
NO_CHARGES


@<TRIPOS>ATOM
      1 PA        -35.5210    5.3950  -59.7260 P.3       1 UTP1227     0.0000 
      2 O1A       -35.9960    4.5920  -58.5750 O.co2     1 UTP1227     0.0000 
      3 O2A       -35.2830    4.7720  -61.0370 O.co2     1 UTP1227     0.0000 
      4 O3A       -34.1780    6.1840  -59.2880 O.3       1 UTP1227     0.0000 
      5 O5'       -36.4750    6.5980  -59.9300 O.3       1 UTP1227     0.0000 
      6 PB        -32.7050    5.6680  -59.0260 P.3       1 UTP1227     0.0000 
      7 O1B       -31.6870    6.6940  -58.9590 O.co2     1 UTP1227     0.0000 
      8 O2B       -32.4850    4.6520  -60.0160 O.co2     1 UTP1227     0.0000 
      9 O3B       -32.8620    5.0030  -57.5880 O.3       1 UTP1227     0.0000 
     10 PG        -31.7540    4.2400  -56.7380 P.3       1 UTP1227     0.0000 
     11 O1G       -31.0650    3.3340  -57.7510 O.co2     1 UTP1227     0.0000 
     12 O2G       -30.8660    5.3410  -56.1610 O.co2     1 UTP1227     0.0000 
     13 O3G       -32.3970    3.3740  -55.6640 O.co2     1 UTP1227     0.0000 
     14 C5'       -36.2640    7.5000  -60.9660 C.3       1 UTP1227     0.0000 
     15 C4'       -37.2860    8.5710  -60.8930 C.3       1 UTP1227     0.0000 
     16 O4'       -38.1760    8.5770  -62.0420 O.3       1 UTP1227     0.0000 
     17 C1'       -39.5300    8.4000  -61.6490 C.3       1 UTP1227     0.0000 
     18 C2'       -39.5940    8.7290  -60.1830 C.3       1 UTP1227     0.0000 
     19 O2'       -40.0850   10.0480  -60.0600 O.3       1 UTP1227     0.0000 
     20 C3'       -38.1740    8.5730  -59.6550 C.3       1 UTP1227     0.0000 
     21 O3'       -37.7990    9.6280  -58.7850 O.3       1 UTP1227     0.0000 
     22 N1        -40.0710    7.0210  -61.9720 N.am      1 UTP1227     0.0000 
     23 C6        -39.2590    5.8900  -62.1170 C.2       1 UTP1227     0.0000 
     24 C2        -41.4730    6.9060  -62.1200 C.2       1 UTP1227     0.0000 
     25 O2        -42.2390    7.8460  -62.0040 O.2       1 UTP1227     0.0000 
     26 N3        -41.9290    5.6360  -62.4240 N.am      1 UTP1227     0.0000 
     27 C4        -41.1700    4.4760  -62.5850 C.2       1 UTP1227     0.0000 
     28 O4        -41.7390    3.4030  -62.8620 O.2       1 UTP1227     0.0000 
     29 C5        -39.7410    4.6570  -62.4120 C.2       1 UTP1227     0.0000 
     30 H         -36.3371    7.0185  -61.9557 H         1 UTP1227     0.0000 
     31 H         -35.2669    7.9685  -60.9106 H         1 UTP1227     0.0000 
     32 H         -36.7598    9.5625  -60.8882 H         1 UTP1227     0.0000 
     33 H         -40.1590    9.1440  -62.1685 H         1 UTP1227     0.0000 
     34 H         -40.2186    8.0047  -59.7085 H         1 UTP1227     0.0000 
     35 H         -38.0931    7.6041  -59.1994 H         1 UTP1227     0.0000 
     36 H         -38.2189    6.0223  -61.9864 H         1 UTP1227     0.0000 
     37 H         -42.9979    5.5241  -62.5529 H         1 UTP1227     0.0000 
     38 H         -39.1411    3.8393  -62.5198 H         1 UTP1227     0.0000 
     39 H         -41.0368    9.9990  -60.3627 H         1 UTP1227     0.0000 
     40 H         -38.6250   10.1815  -58.6785 H         1 UTP1227     0.0000 
@<TRIPOS>BOND
     1    2    1 ar   
     2    3    1 ar   
     3    4    1 1    
     4    5    1 1    
     5    6    4 1    
     6   14    5 1    
     7    7    6 ar   
     8    8    6 ar   
     9    9    6 1    
    10   10    9 1    
    11   11   10 ar   
    12   12   10 ar   
    13   13   10 ar   
    14   15   14 1    
    15   30   14 1    
    16   31   14 1    
    17   16   15 1    
    18   20   15 1    
    19   32   15 1    
    20   17   16 1    
    21   18   17 1    
    22   22   17 1    
    23   33   17 1    
    24   19   18 1    
    25   20   18 1    
    26   34   18 1    
    27   39   19 1    
    28   21   20 1    
    29   35   20 1    
    30   40   21 1    
    31   23   22 1    
    32   24   22 1    
    33   29   23 2    
    34   36   23 1    
    35   25   24 2    
    36   26   24 1    
    37   27   26 1    
    38   37   26 1    
    39   28   27 2    
    40   29   27 1    
    41   38   29 1    
@<TRIPOS>SUBSTRUCTURE
     1 UTP1227     1 GROUP   
@<TRIPOS>SET

