#    Name: 3RMM_1_CAVITY_N1_6.mol2
#    Modification time : Mon Mar 10 20:55:58 2014

@<TRIPOS>MOLECULE
3RMM_1_CAVITY_N1_6.mol2
   86     0     6     0     0
SMALL
NO_CHARGES


@<TRIPOS>ATOM
      1 OG         21.0435  -16.2503   21.9960 O.2       1 SER1        0.0000 
      2 OG         19.8404  -14.6722   22.7457 O.2       1 SER1        0.0000 
      3 CZ         18.7797  -15.0019   21.7375 C.ar      4 PHE5        0.0000 
      4 CZ         19.8293  -15.1216   20.6726 C.ar      4 PHE5        0.0000 
      5 N          16.6696  -15.2118   21.7944 N.2       2 ALA2        0.0000 
      6 CZ         17.7191  -15.3315   20.7294 C.ar      4 PHE5        0.0000 
      7 N          14.5595  -15.4218   21.8512 N.2       2 ALA2        0.0000 
      8 DU         15.6090  -15.5415   20.7862 H         6 CUB7        0.0000 
      9 DU         13.4988  -15.7514   20.8430 H         6 CUB7        0.0000 
     10 DU         14.5483  -15.8711   19.7780 H         6 CUB7        0.0000 
     11 DU         13.4877  -16.2007   18.7698 H         6 CUB7        0.0000 
     12 CA         19.6868  -13.2138   22.4304 C.3       5 GLY6        0.0000 
     13 OG         20.7363  -13.3335   21.3655 O.2       1 SER1        0.0000 
     14 CA         17.5766  -13.4237   22.4873 C.3       5 GLY6        0.0000 
     15 CZ         18.6261  -13.5434   21.4223 C.ar      4 PHE5        0.0000 
     16 CZ         19.6757  -13.6631   20.3573 C.ar      4 PHE5        0.0000 
     17 N          16.5160  -13.7534   21.4791 N.2       2 ALA2        0.0000 
     18 CZ         17.5655  -13.8731   20.4141 C.ar      4 PHE5        0.0000 
     19 N          14.4059  -13.9633   21.5359 N.2       2 ALA2        0.0000 
     20 DU         15.4554  -14.0830   20.4709 H         6 CUB7        0.0000 
     21 CZ         16.5049  -14.2027   19.4059 C.ar      4 PHE5        0.0000 
     22 N          13.3452  -14.2930   20.5277 N.2       2 ALA2        0.0000 
     23 DU         14.3948  -14.4127   19.4627 H         6 CUB7        0.0000 
     24 CZ         15.4443  -14.5324   18.3977 C.ar      4 PHE5        0.0000 
     25 CA         12.2846  -14.6226   19.5195 C.3       5 GLY6        0.0000 
     26 CA         13.3341  -14.7423   18.4546 C.3       5 GLY6        0.0000 
     27 CA         20.5827  -11.8751   21.0502 C.3       5 GLY6        0.0000 
     28 CA         17.4230  -11.9653   22.1720 C.3       5 GLY6        0.0000 
     29 CA         18.4725  -12.0850   21.1070 C.3       5 GLY6        0.0000 
     30 CZ         19.5221  -12.2047   20.0420 C.ar      4 PHE5        0.0000 
     31 CZ         20.5716  -12.3244   18.9770 C.ar      4 PHE5        0.0000 
     32 O          15.3129  -12.1753   22.2288 O.2       2 ALA2        0.0000 
     33 DU         16.3624  -12.2950   21.1638 H         6 CUB7        0.0000 
     34 CZ         17.4119  -12.4147   20.0988 C.ar      4 PHE5        0.0000 
     35 CZ         18.4614  -12.5343   19.0338 C.ar      4 PHE5        0.0000 
     36 N          13.2027  -12.3852   22.2856 N.2       2 ALA2        0.0000 
     37 N          14.2523  -12.5049   21.2206 N.2       2 ALA2        0.0000 
     38 DU         15.3018  -12.6246   20.1556 H         6 CUB7        0.0000 
     39 CZ         16.3513  -12.7443   19.0906 C.ar      4 PHE5        0.0000 
     40 N          12.1421  -12.7149   21.2774 N.2       2 ALA2        0.0000 
     41 O          13.1916  -12.8346   20.2124 O.2       2 ALA2        0.0000 
     42 CA         14.2412  -12.9542   19.1475 C.3       5 GLY6        0.0000 
     43 CZ         15.2907  -13.0739   18.0825 C.ar      4 PHE5        0.0000 
     44 CZ         16.3402  -13.1936   17.0175 C.ar      4 PHE5        0.0000 
     45 CA         13.1805  -13.2839   18.1393 C.3       5 GLY6        0.0000 
     46 CA         14.2300  -13.4036   17.0743 C.3       5 GLY6        0.0000 
     47 CA         15.2796  -13.5233   16.0093 C.3       5 GLY6        0.0000 
     48 N          18.3190  -10.6266   20.7917 N.2       2 ALA2        0.0000 
     49 CA         19.3685  -10.7463   19.7267 C.3       5 GLY6        0.0000 
     50 CA         15.1593  -10.7168   21.9135 C.3       5 GLY6        0.0000 
     51 N          16.2088  -10.8365   20.8485 N.2       2 ALA2        0.0000 
     52 N          17.2583  -10.9562   19.7835 N.2       2 ALA2        0.0000 
     53 CA         18.3078  -11.0759   18.7186 C.3       5 GLY6        0.0000 
     54 CA         19.3574  -11.1956   17.6536 C.3       5 GLY6        0.0000 
     55 O          11.9996  -10.8071   23.0353 O.2       2 ALA2        0.0000 
     56 O          13.0492  -10.9268   21.9703 O.2       2 ALA2        0.0000 
     57 DU         14.0987  -11.0465   20.9053 H         6 CUB7        0.0000 
     58 OG         15.1482  -11.1662   19.8404 O.2       1 SER1        0.0000 
     59 OG         16.1977  -11.2859   18.7754 O.2       1 SER1        0.0000 
     60 CZ         17.2472  -11.4056   17.7104 C.ar      4 PHE5        0.0000 
     61 CZ         18.2967  -11.5253   16.6454 C.ar      4 PHE5        0.0000 
     62 N          10.9390  -11.1367   22.0271 N.2       2 ALA2        0.0000 
     63 CA         11.9885  -11.2564   20.9621 C.3       5 GLY6        0.0000 
     64 O          13.0380  -11.3761   19.8972 O.2       2 ALA2        0.0000 
     65 CA         14.0876  -11.4958   18.8322 C.3       5 GLY6        0.0000 
     66 OG         15.1371  -11.6155   17.7672 O.2       1 SER1        0.0000 
     67 CZ         16.1866  -11.7352   16.7022 C.ar      4 PHE5        0.0000 
     68 CZ         17.2361  -11.8549   15.6372 C.ar      4 PHE5        0.0000 
     69 OD1        18.2856  -11.9746   14.5722 O.3       3 ASP3        0.0000 
     70 CA         14.0765  -11.9452   16.7590 C.3       5 GLY6        0.0000 
     71 CA         15.1260  -12.0648   15.6940 C.3       5 GLY6        0.0000 
     72 CZ         16.1755  -12.1845   14.6291 C.ar      4 PHE5        0.0000 
     73 N          12.9067   -9.0190   23.7282 N.2       2 ALA2        0.0000 
     74 CA         13.9562   -9.1387   22.6632 C.3       5 GLY6        0.0000 
     75 CA         11.8460   -9.3487   22.7200 C.3       5 GLY6        0.0000 
     76 CA         12.8956   -9.4684   21.6550 C.3       5 GLY6        0.0000 
     77 OG         13.9451   -9.5881   20.5901 O.2       1 SER1        0.0000 
     78 CA         18.1431  -10.0668   16.3301 C.3       5 GLY6        0.0000 
     79 N          11.8349   -9.7980   20.6469 N.2       2 ALA2        0.0000 
     80 N          12.8845   -9.9177   19.5819 N.2       2 ALA2        0.0000 
     81 OG         16.0330  -10.2768   16.3869 O.2       1 SER1        0.0000 
     82 OD1        17.0825  -10.3965   15.3220 O.3       3 ASP3        0.0000 
     83 O          14.9724  -10.6064   15.3788 O.2       2 ALA2        0.0000 
     84 DU         16.0219  -10.7261   14.3138 H         6 CUB7        0.0000 
     85 CA         16.9289   -8.9380   15.0067 C.3       5 GLY6        0.0000 
     86 O          14.8188   -9.1480   15.0635 O.2       2 ALA2        0.0000 
@<TRIPOS>BOND
@<TRIPOS>SUBSTRUCTURE
     1 SER1        1 GROUP   
     2 ALA2        5 GROUP   
     3 ASP3       69 GROUP   
     4 PHE5        3 GROUP   
     5 GLY6       12 GROUP   
     6 CUB7        8 GROUP   
@<TRIPOS>SET

