#    Name: 3rmm_M32_1_INTS_M
#    Modification time : Tue Mar 25 11:42:14 2014

@<TRIPOS>MOLECULE
3rmm_M32_1_INTS_M
   75     0     9     0     0
SMALL
NO_CHARGES


@<TRIPOS>ATOM
      1 CA         15.8880  -17.4320   27.4375 C.3       3 GLC5        0.0000 
      2 CA         16.7520  -18.7190   26.2570 C.3       9 GLL5        0.0000 
      3 CA         15.0240  -16.1450   28.6180 C.3       6 GLP5        0.0000 
      4 CA         14.6335  -17.9555   27.2240 C.3       3 GLC5        0.0000 
      5 CA         15.5170  -19.3010   26.5180 C.3       9 GLL5        0.0000 
      6 CA         13.7500  -16.6100   27.9300 C.3       6 GLP5        0.0000 
      7 CA         12.9590  -17.8930   24.0290 C.3       3 GLC5        0.0000 
      8 CA         14.8780  -18.9890   24.2130 C.3       9 GLL5        0.0000 
      9 CA         11.0400  -16.7970   23.8450 C.3       6 GLP5        0.0000 
     10 N          13.3270  -16.4965   23.4715 N.am      2 SEC2        0.0000 
     11 N          14.3950  -16.4250   22.3410 N.am      8 SEL2        0.0000 
     12 N          12.2590  -16.5680   24.6020 N.am      5 SEP2        0.0000 
     13 O          15.2735  -14.7515   24.0060 O.2       1 ALC1        0.0000 
     14 O          16.4070  -15.3860   23.4130 O.2       7 ALL1        0.0000 
     15 O          14.1400  -14.1170   24.5990 O.2       4 ALP1        0.0000 
     16 CA         17.8405  -12.2510   24.6205 C.3       3 GLC5        0.0000 
     17 CA         18.2540  -14.2310   24.4740 C.3       9 GLL5        0.0000 
     18 CA         17.4270  -10.2710   24.7670 C.3       6 GLP5        0.0000 
     19 N          15.4035  -12.1110   23.9915 N.am      2 SEC2        0.0000 
     20 N          16.1420  -12.7100   22.8480 N.am      8 SEL2        0.0000 
     21 N          14.6650  -11.5120   25.1350 N.am      5 SEP2        0.0000 
     22 CA         19.1770  -10.7330   21.9955 C.3       3 GLC5        0.0000 
     23 CA         17.6340  -11.5760   20.8200 C.3       9 GLL5        0.0000 
     24 CA         20.7200   -9.8900   23.1710 C.3       6 GLP5        0.0000 
     25 CA         17.5305  -10.9235   22.7935 C.3       3 GLC5        0.0000 
     26 O          16.2940   -9.3070   21.5030 O.2       1 ALC1        0.0000 
     27 O          15.5690  -10.3130   20.7280 O.2       7 ALL1        0.0000 
     28 O          17.0190   -8.3010   22.2780 O.2       4 ALP1        0.0000 
     29 CA         11.9890  -12.0795   18.9155 C.3       3 GLC5        0.0000 
     30 CA         12.5190  -12.4260   21.0380 C.3       9 GLL5        0.0000 
     31 CA         11.4590  -11.7330   16.7930 C.3       6 GLP5        0.0000 
     32 CA         10.7895  -13.2260   20.9090 C.3       3 GLC5        0.0000 
     33 CA          9.0600  -14.0260   20.7800 C.3       6 GLP5        0.0000 
     34 O          13.6935  -13.7925   23.1800 O.2       1 ALC1        0.0000 
     35 O          13.2470  -13.4680   21.7610 O.2       7 ALL1        0.0000 
     36 O          12.0965  -13.9455   22.7135 O.2       1 ALC1        0.0000 
     37 O          10.9460  -14.4230   23.6660 O.2       4 ALP1        0.0000 
     38 CA         10.3400  -12.5965   21.8895 C.3       3 GLC5        0.0000 
     39 CA         11.6200  -11.1670   22.9990 C.3       9 GLL5        0.0000 
     40 CA         11.3840   -9.2760   25.8580 C.3       3 GLC5        0.0000 
     41 CA         11.5520  -10.0350   23.8080 C.3       9 GLL5        0.0000 
     42 CA         11.2160   -8.5170   27.9080 C.3       6 GLP5        0.0000 
     43 CA         10.8345   -7.3255   23.2850 C.3       3 GLC5        0.0000 
     44 CA         12.3010   -7.4900   24.5400 C.3       9 GLL5        0.0000 
     45 CA          9.3680   -7.1610   22.0300 C.3       6 GLP5        0.0000 
     46 CA         11.7585   -8.0035   26.2240 C.3       3 GLC5        0.0000 
     47 CA         11.3695   -5.9350   25.3365 C.3       3 GLC5        0.0000 
     48 CA         10.4380   -4.3800   26.1330 C.3       6 GLP5        0.0000 
     49 CA         14.2884  -17.5071   25.6800 C.3       3 GLC5        0.0000 
     50 CA         14.5840  -19.4370   25.4970 C.3       9 GLL5        0.0000 
     51 CA         13.5370  -15.9470   26.5700 C.3       6 GLP5        0.0000 
     52 CA         19.0684  -10.2666   19.1231 C.3       3 GLC5        0.0000 
     53 CA         19.7270  -12.4600   19.9880 C.3       9 GLL5        0.0000 
     54 CA         19.2320   -8.5070   18.1510 C.3       6 GLP5        0.0000 
     55 CA         21.3540  -13.2850   20.1887 C.3       3 GLC5        0.0000 
     56 CA         23.2510  -13.6170   19.8770 C.3       6 GLP5        0.0000 
     57 CA         20.0885  -11.4215   21.8357 C.3       3 GLC5        0.0000 
     58 CA         18.7720  -13.8901   19.1114 C.3       3 GLC5        0.0000 
     59 CA         19.1870  -13.4460   21.0130 C.3       9 GLL5        0.0000 
     60 CA         18.3860  -15.0400   17.8230 C.3       6 GLP5        0.0000 
     61 CA         12.9135   -7.6020   21.6255 C.3       3 GLC5        0.0000 
     62 CA         13.2120   -8.9540   22.4070 C.3       9 GLL5        0.0000 
     63 CA         12.5910   -5.6840   21.2470 C.3       6 GLP5        0.0000 
     64 CA         12.8747  -11.6930   24.2045 C.3       3 GLC5        0.0000 
     65 CA         12.4690  -11.1810   21.8970 C.3       9 GLL5        0.0000 
     66 CA         13.7050  -12.2120   25.9610 C.3       6 GLP5        0.0000 
     67 CA         10.6020  -11.1716   20.9596 C.3       3 GLC5        0.0000 
     68 CA          9.1470  -10.8580   19.6860 C.3       6 GLP5        0.0000 
     69 CA         12.8300  -10.8505   24.8080 C.3       3 GLC5        0.0000 
     70 CA         12.3580   -8.9430   23.5020 C.3       9 GLL5        0.0000 
     71 CA         12.4602   -6.9502   22.6340 C.3       3 GLC5        0.0000 
     72 CA         14.1913   -8.9503   24.2150 C.3       3 GLC5        0.0000 
     73 CA         16.0530   -9.6840   24.4090 C.3       6 GLP5        0.0000 
     74 CA         10.9757   -8.1913   22.5305 C.3       3 GLC5        0.0000 
     75 CA         14.7580   -9.6022   23.0557 C.3       3 GLC5        0.0000 
@<TRIPOS>BOND
@<TRIPOS>SUBSTRUCTURE
     1 ALC1       13 GROUP        1 X    ALC  0     ROOT ALC X 1
     2 SEC2       10 GROUP        1 X    SEC  0     **** SEC X 2
     3 GLC5        1 GROUP        1 X    GLC  0     **** GLC X 6
     4 ALP1       15 GROUP        1 Y    ALP  0     ROOT ALP Y 8
     5 SEP2       12 GROUP        1 Y    SEP  0     **** SEP Y 9
     6 GLP5        3 GROUP        1 Y    GLP  0     **** GLP Y 13
     7 ALL1       14 GROUP        1 Z    ALL  0     ROOT ALL Z 15
     8 SEL2       11 GROUP        1 Z    SEL  0     **** SEL Z 16
     9 GLL5        2 GROUP        1 Z    GLL  0     **** GLL Z 20
@<TRIPOS>SET

