#    Name: 3rmm_M32_1_ligand
#    Modification time : Tue Mar 25 11:42:14 2014

@<TRIPOS>MOLECULE
3rmm_M32_1_ligand
   63    65     1     0     0
SMALL
NO_CHARGES


@<TRIPOS>ATOM
      1 C7         16.4570  -17.9110   22.5660 C.3       1 M321        0.0000 
      2 S8         15.8280  -16.3830   22.2960 S.o2      1 M321        0.0000 
      3 C6         16.1130  -18.4060   23.9530 C.ar      1 M321        0.0000 
      4 C1         17.0460  -18.2740   24.9740 C.ar      1 M321        0.0000 
      5 C2         16.7520  -18.7190   26.2570 C.ar      1 M321        0.0000 
      6 C30        15.5170  -19.3010   26.5180 C.ar      1 M321        0.0000 
      7 C4         14.5840  -19.4370   25.4970 C.ar      1 M321        0.0000 
      8 C5         14.8780  -18.9890   24.2130 C.ar      1 M321        0.0000 
      9 O13        16.2270  -15.9620   20.9850 O.2       1 M321        0.0000 
     10 O14        14.3950  -16.4250   22.3410 O.2       1 M321        0.0000 
     11 N9         16.4070  -15.3860   23.4130 N.pl3     1 M321        0.0000 
     12 C10        17.5650  -14.5610   23.1530 C.3       1 M321        0.0000 
     13 C33        18.2540  -14.2310   24.4740 C.3       1 M321        0.0000 
     14 C11        17.1650  -13.2780   22.4820 C.2       1 M321        0.0000 
     15 O15        16.1420  -12.7100   22.8480 O.2       1 M321        0.0000 
     16 N12        17.9600  -12.8210   21.5200 N.am      1 M321        0.0000 
     17 C16        17.6340  -11.5760   20.8200 C.3       1 M321        0.0000 
     18 C17        16.1800  -11.4710   20.4460 C.2       1 M321        0.0000 
     19 O18        15.5700  -12.4050   19.9360 O.2       1 M321        0.0000 
     20 C21        18.5310  -11.6090   19.5850 C.3       1 M321        0.0000 
     21 C22        19.7270  -12.4600   19.9880 C.3       1 M321        0.0000 
     22 C23        19.1870  -13.4460   21.0130 C.3       1 M321        0.0000 
     23 N19        15.5690  -10.3130   20.7280 N.am      1 M321        0.0000 
     24 C20        14.1680  -10.0880   20.3950 C.3       1 M321        0.0000 
     25 C24        13.2600  -10.0860   21.6010 C.ar      1 M321        0.0000 
     26 C25        12.4690  -11.1810   21.8970 C.ar      1 M321        0.0000 
     27 C26        12.5190  -12.4260   21.0380 C.3       1 M321        0.0000 
     28 N32        13.2470  -13.4680   21.7610 N.4       1 M321        0.0000 
     29 C27        11.6200  -11.1670   22.9990 C.ar      1 M321        0.0000 
     30 C28        11.5520  -10.0350   23.8080 C.ar      1 M321        0.0000 
     31 C29        12.3580   -8.9430   23.5020 C.ar      1 M321        0.0000 
     32 CL3        12.3010   -7.4900   24.5400 Cl        1 M321        0.0000 
     33 C31        13.2120   -8.9540   22.4070 C.ar      1 M321        0.0000 
     34 H          17.5215  -17.8127   22.4266 H         1 M321        0.0000 
     35 H          16.0313  -18.5371   21.7985 H         1 M321        0.0000 
     36 H          17.9625  -17.8430   24.7784 H         1 M321        0.0000 
     37 H          17.4435  -18.6185   27.0089 H         1 M321        0.0000 
     38 H          15.2939  -19.6307   27.4661 H         1 M321        0.0000 
     39 H          13.6701  -19.8715   25.6911 H         1 M321        0.0000 
     40 H          14.1862  -19.0887   23.4618 H         1 M321        0.0000 
     41 H          15.9132  -15.3848   24.2770 H         1 M321        0.0000 
     42 H          18.2749  -15.0771   22.5296 H         1 M321        0.0000 
     43 H          17.9354  -10.7347   21.4149 H         1 M321        0.0000 
     44 H          18.8529  -10.6208   19.3487 H         1 M321        0.0000 
     45 H          18.0126  -12.0724   18.7771 H         1 M321        0.0000 
     46 H          20.4734  -11.8439   20.4373 H         1 M321        0.0000 
     47 H          20.0968  -12.9884   19.1380 H         1 M321        0.0000 
     48 H          18.9747  -14.3756   20.5241 H         1 M321        0.0000 
     49 H          19.9106  -13.5683   21.7939 H         1 M321        0.0000 
     50 H          16.0607   -9.5261   21.1939 H         1 M321        0.0000 
     51 H          13.8092  -10.8665   19.6907 H         1 M321        0.0000 
     52 H          14.0477   -9.1195   19.8674 H         1 M321        0.0000 
     53 H          13.0179  -12.1847   20.1002 H         1 M321        0.0000 
     54 H          11.4997  -12.7442   20.8226 H         1 M321        0.0000 
     55 H          11.0443  -11.9890   23.2163 H         1 M321        0.0000 
     56 H          10.9228  -10.0080   24.6096 H         1 M321        0.0000 
     57 H          13.7965   -8.1431   22.1962 H         1 M321        0.0000 
     58 H          18.5537  -15.0562   24.9529 H         1 M321        0.0000 
     59 H          19.0640  -13.6605   24.3380 H         1 M321        0.0000 
     60 H          17.6474  -13.7354   25.0956 H         1 M321        0.0000 
     61 H          14.1829  -13.1875   21.9742 H         1 M321        0.0000 
     62 H          12.8047  -13.6964   22.6283 H         1 M321        0.0000 
     63 H          13.3081  -14.3140   21.2314 H         1 M321        0.0000 
@<TRIPOS>BOND
     1    2    1 1    
     2    3    1 1    
     3   34    1 1    
     4   35    1 1    
     5    9    2 2    
     6   10    2 2    
     7   11    2 1    
     8    4    3 ar   
     9    8    3 ar   
    10    5    4 ar   
    11   36    4 1    
    12    6    5 ar   
    13   37    5 1    
    14    7    6 ar   
    15   38    6 1    
    16    8    7 ar   
    17   39    7 1    
    18   40    8 1    
    19   12   11 1    
    20   41   11 1    
    21   13   12 1    
    22   14   12 1    
    23   42   12 1    
    24   58   13 1    
    25   59   13 1    
    26   60   13 1    
    27   15   14 2    
    28   16   14 am   
    29   17   16 1    
    30   22   16 1    
    31   18   17 1    
    32   20   17 1    
    33   43   17 1    
    34   19   18 2    
    35   23   18 am   
    36   21   20 1    
    37   44   20 1    
    38   45   20 1    
    39   22   21 1    
    40   46   21 1    
    41   47   21 1    
    42   48   22 1    
    43   49   22 1    
    44   24   23 1    
    45   50   23 1    
    46   25   24 1    
    47   51   24 1    
    48   52   24 1    
    49   26   25 ar   
    50   33   25 ar   
    51   27   26 1    
    52   29   26 ar   
    53   28   27 1    
    54   53   27 1    
    55   54   27 1    
    56   61   28 1    
    57   62   28 1    
    58   63   28 1    
    59   30   29 ar   
    60   55   29 1    
    61   31   30 ar   
    62   56   30 1    
    63   32   31 1    
    64   33   31 ar   
    65   57   33 1    
@<TRIPOS>SUBSTRUCTURE
     1 M321        1 GROUP   
@<TRIPOS>SET

