#    Name: 1SLH_3_CAVITY_N1_6.mol2
#    Modification time : Tue Mar 11 08:30:09 2014

@<TRIPOS>MOLECULE
1SLH_3_CAVITY_N1_6.mol2
   60     0     5     0     0
SMALL
NO_CHARGES


@<TRIPOS>ATOM
      1 CA         61.7782    9.9475   -1.1306 C.3       4 GLY6        0.0000 
      2 CA         60.8872   11.1479   -1.2536 C.3       4 GLY6        0.0000 
      3 CA         59.1050   13.5486   -1.4995 C.3       4 GLY6        0.0000 
      4 CA         61.5800    8.0127   -0.2839 C.3       4 GLY6        0.0000 
      5 CA         60.6889    9.2130   -0.4069 C.3       4 GLY6        0.0000 
      6 CA         59.7978   10.4134   -0.5298 C.3       4 GLY6        0.0000 
      7 DU         58.9068   11.6138   -0.6528 H         5 CUB7        0.0000 
      8 CA         58.0157   12.8141   -0.7757 C.3       4 GLY6        0.0000 
      9 OG         60.4906    7.2781    0.4398 O.2       1 SER1        0.0000 
     10 OG         59.5996    8.4785    0.3169 O.2       1 SER1        0.0000 
     11 OG         58.7085    9.6789    0.1939 O.2       1 SER1        0.0000 
     12 OG         58.5102    7.7440    1.0406 O.2       1 SER1        0.0000 
     13 CZ         57.4209    7.0095    1.7644 C.ar      3 PHE5        0.0000 
     14 CA         62.2972   10.4668    0.1775 C.3       4 GLY6        0.0000 
     15 CA         61.4061   11.6671    0.0545 C.3       4 GLY6        0.0000 
     16 N          59.6240   14.0679   -0.1914 N.2       2 ALA2        0.0000 
     17 CA         62.0989    8.5319    1.0242 C.3       4 GLY6        0.0000 
     18 CA         61.2079    9.7323    0.9012 C.3       4 GLY6        0.0000 
     19 OG         60.3168   10.9326    0.7783 O.2       1 SER1        0.0000 
     20 OG         59.4257   12.1330    0.6553 O.2       1 SER1        0.0000 
     21 O          61.9007    6.5970    1.8709 O.2       2 ALA2        0.0000 
     22 OG         61.0096    7.7974    1.7479 O.2       1 SER1        0.0000 
     23 OG         60.1185    8.9977    1.6250 O.2       1 SER1        0.0000 
     24 OG         59.2275   10.1981    1.5020 O.2       1 SER1        0.0000 
     25 CZ         60.8113    5.8625    2.5946 C.ar      3 PHE5        0.0000 
     26 OG         59.9203    7.0629    2.4717 O.2       1 SER1        0.0000 
     27 OG         59.0292    8.2632    2.3487 O.2       1 SER1        0.0000 
     28 OG         58.1381    9.4636    2.2258 O.2       1 SER1        0.0000 
     29 CZ         58.8309    6.3283    3.1954 C.ar      3 PHE5        0.0000 
     30 DU         57.9399    7.5287    3.0725 H         5 CUB7        0.0000 
     31 CZ         57.7416    5.5938    3.9192 C.ar      3 PHE5        0.0000 
     32 CZ         56.8505    6.7942    3.7962 C.ar      3 PHE5        0.0000 
     33 CA         61.9251   12.1864    1.3626 C.3       4 GLY6        0.0000 
     34 OG         61.0340   13.3867    1.2396 O.2       1 SER1        0.0000 
     35 N          61.7268   10.2515    2.2093 N.2       2 ALA2        0.0000 
     36 OG         60.8358   11.4519    2.0863 O.2       1 SER1        0.0000 
     37 O          62.4196    7.1162    3.1789 O.2       2 ALA2        0.0000 
     38 N          61.5286    8.3166    3.0560 N.2       2 ALA2        0.0000 
     39 OG         60.6375    9.5170    2.9330 O.2       1 SER1        0.0000 
     40 CA         61.3303    6.3817    3.9027 C.3       4 GLY6        0.0000 
     41 CA         60.4392    7.5821    3.7797 C.3       4 GLY6        0.0000 
     42 OG         59.5482    8.7824    3.6568 O.2       1 SER1        0.0000 
     43 CA         59.3499    6.8476    4.5035 C.3       4 GLY6        0.0000 
     44 N          58.4588    8.0479    4.3805 N.2       2 ALA2        0.0000 
     45 N          57.3695    7.3134    5.1043 N.2       2 ALA2        0.0000 
     46 N          63.3352   11.5052    2.7936 N.2       2 ALA2        0.0000 
     47 CA         62.4441   12.7056    2.6707 C.3       4 GLY6        0.0000 
     48 N          62.2458   10.7707    3.5174 N.2       2 ALA2        0.0000 
     49 CA         61.3547   11.9711    3.3944 C.3       4 GLY6        0.0000 
     50 N          62.9386    7.6355    4.4870 N.2       2 ALA2        0.0000 
     51 N          62.0475    8.8358    4.3641 N.2       2 ALA2        0.0000 
     52 O          61.1565   10.0362    4.2411 O.2       2 ALA2        0.0000 
     53 CA         60.9582    8.1013    5.0878 C.3       4 GLY6        0.0000 
     54 N          60.0671    9.3017    4.9649 N.2       2 ALA2        0.0000 
     55 O          62.7648   11.2900    4.8254 O.2       2 ALA2        0.0000 
     56 N          62.5665    9.3551    5.6721 N.2       2 ALA2        0.0000 
     57 O          61.6754   10.5554    5.5492 O.2       2 ALA2        0.0000 
     58 CA         61.4772    8.6205    6.3959 C.3       4 GLY6        0.0000 
     59 O          60.5861    9.8209    6.2729 O.2       2 ALA2        0.0000 
     60 CA         61.2593    9.4283   -2.4387 C.3       4 GLY6        0.0000 
@<TRIPOS>BOND
@<TRIPOS>SUBSTRUCTURE
     1 SER1        9 GROUP   
     2 ALA2       16 GROUP   
     3 PHE5       13 GROUP   
     4 GLY6        1 GROUP   
     5 CUB7        7 GROUP   
@<TRIPOS>SET

