#    Name: 1slh_DUD_3_INTS_M
#    Modification time : Tue Mar 25 02:29:46 2014

@<TRIPOS>MOLECULE
1slh_DUD_3_INTS_M
   57     0    15     0     0
SMALL
NO_CHARGES


@<TRIPOS>ATOM
      1 O          63.3325    8.7475    3.6990 O.2       1 ALC1        0.0000 
      2 O          62.0180    8.4780    4.2040 O.2      11 ALL1        0.0000 
      3 O          64.6470    9.0170    3.1940 O.2       6 ALP1        0.0000 
      4 CA         61.1210   10.1905    7.3705 C.3       5 GLC5        0.0000 
      5 CA         60.3900    9.5960    5.5970 C.3      15 GLL5        0.0000 
      6 CA         61.8520   10.7850    9.1440 C.3      10 GLP5        0.0000 
      7 CA         59.6155    9.0410    7.6300 C.3       5 GLC5        0.0000 
      8 CA         58.8410    8.4860    9.6630 C.3      10 GLP5        0.0000 
      9 N          62.9520    6.7875    2.1855 N.am      2 SEC2        0.0000 
     10 N          61.3110    6.8790    2.6300 N.am     12 SEL2        0.0000 
     11 N          64.5930    6.6960    1.7410 N.am      7 SEP2        0.0000 
     12 N          61.8515   11.4770    6.0385 N.am      2 SEC2        0.0000 
     13 N          62.6450   10.0680    5.7910 N.am     12 SEL2        0.0000 
     14 N          61.0580   12.8860    6.2860 N.am      7 SEP2        0.0000 
     15 CA         58.8340    5.6330    2.1855 C.3       5 GLC5        0.0000 
     16 CA         58.6080    7.2080    3.3330 C.3      15 GLL5        0.0000 
     17 CA         59.0600    4.0580    1.0380 C.3      10 GLP5        0.0000 
     18 CA         59.7930    5.9190    5.4345 C.3       5 GLC5        0.0000 
     19 CA         58.2060    6.0610    4.2380 C.3      15 GLL5        0.0000 
     20 CA         61.3800    5.7770    6.6310 C.3      10 GLP5        0.0000 
     21 CA         58.5790    4.4945    3.6705 C.3       5 GLC5        0.0000 
     22 CA         58.9520    2.9280    3.1030 C.3      10 GLP5        0.0000 
     23 CA         57.8650    5.7055    6.5175 C.3       5 GLC5        0.0000 
     24 CA         56.8880    6.4160    4.8760 C.3      15 GLL5        0.0000 
     25 CA         58.8420    4.9950    8.1590 C.3      10 GLP5        0.0000 
     26 CA         57.2285    4.6200    3.9285 C.3       5 GLC5        0.0000 
     27 CA         57.5690    2.8240    2.9810 C.3      10 GLP5        0.0000 
     28 N          56.2740    4.7340    6.4460 N.am      2 SEC2        0.0000 
     29 N          55.9820    5.3130    4.9110 N.am     12 SEL2        0.0000 
     30 N          56.5660    4.1550    7.9810 N.am      7 SEP2        0.0000 
     31 O          55.1920    5.6665    5.9265 O.2       1 ALC1        0.0000 
     32 O          55.9820    5.3130    4.9110 O.2      11 ALL1        0.0000 
     33 O          54.4020    6.0200    6.9420 O.2       6 ALP1        0.0000 
     34 N          54.5065    9.6555    7.3225 N.am      2 SEC2        0.0000 
     35 N          54.7230   10.7270    6.5010 N.am     12 SEL2        0.0000 
     36 N          54.2900    8.5840    8.1440 N.am      7 SEP2        0.0000 
     37 N          57.2300   12.9010    5.2075 N.am      2 SEC2        0.0000 
     38 N          57.0310   11.3130    5.4820 N.am     12 SEL2        0.0000 
     39 N          57.4290   14.4890    4.9330 N.am      7 SEP2        0.0000 
     40 N          57.6730   11.6805    4.3955 N.am      2 SEC2        0.0000 
     41 N          58.3150   12.0480    3.3090 N.am      7 SEP2        0.0000 
     42 NZ         51.9570   13.4165    3.1510 N.4       3 LYC4        0.0000 
     43 NZ         52.8010   12.3070    3.2010 N.4      13 LYL4        0.0000 
     44 NZ         51.2590   15.5750    3.8860 N.4       8 LYP4        0.0000 
     45 Zn         52.3955   11.6430    4.2045 Zn        4 ZIC7        0.0000 
     46 Zn         52.8010   12.3070    3.2010 Zn       14 ZIL7        0.0000 
     47 Zn         51.9900   10.9790    5.2080 Zn        9 ZIP7        0.0000 
     48 N          51.9570   13.4165    3.1510 N.am      2 SEC2        0.0000 
     49 N          52.8010   12.3070    3.2010 N.am     12 SEL2        0.0000 
     50 N          51.1130   14.5260    3.1010 N.am      7 SEP2        0.0000 
     51 N          55.9600   14.1670    2.3650 N.am      2 SEC2        0.0000 
     52 N          54.7420   13.6070    2.6110 N.am     12 SEL2        0.0000 
     53 N          57.1780   14.7270    2.1190 N.am      7 SEP2        0.0000 
     54 CA         59.5233   11.0787    4.6745 C.3       5 GLC5        0.0000 
     55 CA         59.4650    8.8730    4.9630 C.3      15 GLL5        0.0000 
     56 CA         59.1190   12.9230    4.0690 C.3      10 GLP5        0.0000 
     57 CA         60.6538    7.5057    5.9555 C.3       5 GLC5        0.0000 
@<TRIPOS>BOND
@<TRIPOS>SUBSTRUCTURE
     1 ALC1        1 GROUP        1 X    ALC  0     ROOT ALC X 1
     2 SEC2        9 GROUP        1 X    SEC  0     **** SEC X 2
     3 LYC4       42 GROUP        1 X    LYC  0     **** LYC X 4
     4 ZIC7       45 GROUP        1 X    ZIC  0     **** ZIC X 5
     5 GLC5        4 GROUP        1 X    GLC  0     **** GLC X 6
     6 ALP1        3 GROUP        1 Y    ALP  0     ROOT ALP Y 8
     7 SEP2       11 GROUP        1 Y    SEP  0     **** SEP Y 9
     8 LYP4       44 GROUP        1 Y    LYP  0     **** LYP Y 11
     9 ZIP7       47 GROUP        1 Y    ZIP  0     **** ZIP Y 12
    10 GLP5        6 GROUP        1 Y    GLP  0     **** GLP Y 13
    11 ALL1        2 GROUP        1 Z    ALL  0     ROOT ALL Z 15
    12 SEL2       10 GROUP        1 Z    SEL  0     **** SEL Z 16
    13 LYL4       43 GROUP        1 Z    LYL  0     **** LYL Z 18
    14 ZIL7       46 GROUP        1 Z    ZIL  0     **** ZIL Z 19
    15 GLL5        5 GROUP        1 Z    GLL  0     **** GLL Z 20
@<TRIPOS>SET

