#    Name: 1slh_DUD_3_ligand
#    Modification time : Tue Mar 25 02:29:46 2014

@<TRIPOS>MOLECULE
1slh_DUD_3_ligand
   35    36     1     0     0
SMALL
NO_CHARGES


@<TRIPOS>ATOM
      1 N1         59.7170    7.9460    3.9550 N.am      1 DUD1170     0.0000 
      2 C2         61.0320    7.7030    3.5250 C.2       1 DUD1170     0.0000 
      3 N3         62.0180    8.4780    4.2040 N.am      1 DUD1170     0.0000 
      4 C4         61.7650    9.4360    5.2430 C.2       1 DUD1170     0.0000 
      5 C5         60.3900    9.5960    5.5970 C.2       1 DUD1170     0.0000 
      6 C6         59.4650    8.8730    4.9630 C.2       1 DUD1170     0.0000 
      7 O2         61.3110    6.8790    2.6300 O.2       1 DUD1170     0.0000 
      8 O4         62.6450   10.0680    5.7910 O.2       1 DUD1170     0.0000 
      9 C1'        58.6080    7.2080    3.3330 C.3       1 DUD1170     0.0000 
     10 C2'        58.2060    6.0610    4.2380 C.3       1 DUD1170     0.0000 
     11 C3'        56.8880    6.4160    4.8760 C.3       1 DUD1170     0.0000 
     12 C4'        56.4100    7.4680    3.9600 C.3       1 DUD1170     0.0000 
     13 O4'        57.4780    8.0220    3.1680 O.3       1 DUD1170     0.0000 
     14 O3'        55.9820    5.3130    4.9110 O.3       1 DUD1170     0.0000 
     15 C5'        55.8810    8.5020    4.9100 C.3       1 DUD1170     0.0000 
     16 O5'        55.4220    9.6520    4.3210 O.3       1 DUD1170     0.0000 
     17 PA         55.5740   10.9220    5.2960 P.3       1 DUD1170     0.0000 
     18 O1A        54.7230   10.7270    6.5010 O.co2     1 DUD1170     0.0000 
     19 O2A        57.0310   11.3130    5.4820 O.co2     1 DUD1170     0.0000 
     20 O3A        54.7660   12.0230    4.4250 O.3       1 DUD1170     0.0000 
     21 PB         54.2180   12.2720    2.9740 P.3       1 DUD1170     0.0000 
     22 O1B        52.8010   12.3070    3.2010 O.co2     1 DUD1170     0.0000 
     23 O2B        54.5530   11.1670    2.0670 O.co2     1 DUD1170     0.0000 
     24 O3B        54.7420   13.6070    2.6110 O.co2     1 DUD1170     0.0000 
     25 H          63.0266    8.3371    3.9195 H         1 DUD1170     0.0000 
     26 H          60.1604   10.2707    6.3365 H         1 DUD1170     0.0000 
     27 H          58.4330    9.0001    5.2365 H         1 DUD1170     0.0000 
     28 H          58.9307    6.7813    2.3969 H         1 DUD1170     0.0000 
     29 H          58.9577    5.9233    5.0013 H         1 DUD1170     0.0000 
     30 H          58.0991    5.1598    3.6523 H         1 DUD1170     0.0000 
     31 H          57.0817    6.8462    5.8248 H         1 DUD1170     0.0000 
     32 H          55.6050    7.1011    3.3805 H         1 DUD1170     0.0000 
     33 H          56.7014    8.7095    5.6570 H         1 DUD1170     0.0000 
     34 H          55.0833    7.9985    5.5298 H         1 DUD1170     0.0000 
     35 H          55.1270    5.6916    5.2654 H         1 DUD1170     0.0000 
@<TRIPOS>BOND
     1    2    1 1    
     2    6    1 1    
     3    9    1 1    
     4    3    2 1    
     5    7    2 2    
     6    4    3 1    
     7   25    3 1    
     8    5    4 1    
     9    8    4 2    
    10    6    5 2    
    11   26    5 1    
    12   27    6 1    
    13   10    9 1    
    14   13    9 1    
    15   28    9 1    
    16   11   10 1    
    17   29   10 1    
    18   30   10 1    
    19   12   11 1    
    20   14   11 1    
    21   31   11 1    
    22   13   12 1    
    23   15   12 1    
    24   32   12 1    
    25   35   14 1    
    26   16   15 1    
    27   33   15 1    
    28   34   15 1    
    29   17   16 1    
    30   18   17 ar   
    31   19   17 ar   
    32   20   17 1    
    33   21   20 1    
    34   22   21 ar   
    35   23   21 ar   
    36   24   21 ar   
@<TRIPOS>SUBSTRUCTURE
     1 DUD1170     1 GROUP   
@<TRIPOS>SET

