#    Name: 1xe6_5FP_2_INTS_M
#    Modification time : Tue Mar 25 09:49:03 2014

@<TRIPOS>MOLECULE
1xe6_5FP_2_INTS_M
  119     0     9     0     0
SMALL
NO_CHARGES


@<TRIPOS>ATOM
      1 CA         61.8095   31.9380   24.0055 C.3       3 GLC5        0.0000 
      2 CA         60.9660   32.5560   22.4150 C.3       9 GLL5        0.0000 
      3 CA         62.6530   31.3200   25.5960 C.3       6 GLP5        0.0000 
      4 CA         59.2950   35.5390   20.6595 C.3       3 GLC5        0.0000 
      5 CA         59.3980   33.5710   20.8420 C.3       9 GLL5        0.0000 
      6 CA         59.1920   37.5070   20.4770 C.3       6 GLP5        0.0000 
      7 CA         60.0420   34.5965   19.1810 C.3       3 GLC5        0.0000 
      8 CA         60.6860   35.6220   17.5200 C.3       6 GLP5        0.0000 
      9 CA         62.9355   32.5920   18.6945 C.3       3 GLC5        0.0000 
     10 CA         61.7650   33.3280   20.2000 C.3       9 GLL5        0.0000 
     11 CA         64.1060   31.8560   17.1890 C.3       6 GLP5        0.0000 
     12 CA         61.9045   34.2460   18.6225 C.3       3 GLC5        0.0000 
     13 CA         62.0440   35.1640   17.0450 C.3       6 GLP5        0.0000 
     14 O          59.5080   33.6295   24.1650 O.2       1 ALC1        0.0000 
     15 O          58.9940   32.1070   23.9900 O.2       7 ALL1        0.0000 
     16 O          60.0220   35.1520   24.3400 O.2       4 ALP1        0.0000 
     17 CA         56.8025   29.5970   23.5085 C.3       3 GLC5        0.0000 
     18 CA         57.7920   31.3540   24.2850 C.3       9 GLL5        0.0000 
     19 CA         55.8130   27.8400   22.7320 C.3       6 GLP5        0.0000 
     20 N          56.8990   34.7110   24.2015 N.am      2 SEC2        0.0000 
     21 N          56.4690   33.2720   23.6350 N.am      8 SEL2        0.0000 
     22 N          57.3290   36.1500   24.7680 N.am      5 SEP2        0.0000 
     23 CA         59.1065   28.7380   27.1355 C.3       3 GLC5        0.0000 
     24 CA         58.5090   30.5080   26.5810 C.3       9 GLL5        0.0000 
     25 CA         59.7040   26.9680   27.6900 C.3       6 GLP5        0.0000 
     26 CA         55.9655   29.3230   24.4145 C.3       3 GLC5        0.0000 
     27 CA         56.1180   30.8060   26.0970 C.3       9 GLL5        0.0000 
     28 O          56.0355   30.1435   22.5480 O.2       1 ALC1        0.0000 
     29 O          55.6450   31.2930   22.8650 O.2       7 ALL1        0.0000 
     30 O          56.4260   28.9940   22.2310 O.2       4 ALP1        0.0000 
     31 CA         55.1280   29.9155   22.6035 C.3       3 GLC5        0.0000 
     32 CA         54.4430   31.9910   22.4750 C.3       9 GLL5        0.0000 
     33 CA         54.6785   33.9255   23.5450 C.3       3 GLC5        0.0000 
     34 CA         54.9140   35.8600   24.6150 C.3       6 GLP5        0.0000 
     35 N          53.6290   28.7010   21.8330 N.am      2 SEC2        0.0000 
     36 N          53.1120   30.0290   22.6300 N.am      8 SEL2        0.0000 
     37 N          54.1460   27.3730   21.0360 N.am      5 SEP2        0.0000 
     38 CA         54.6335   31.2995   19.2275 C.3       3 GLC5        0.0000 
     39 CA         55.4310   32.9560   20.3260 C.3       9 GLL5        0.0000 
     40 CA         53.8360   29.6430   18.1290 C.3       6 GLP5        0.0000 
     41 CA         55.3215   34.7900   21.2485 C.3       3 GLC5        0.0000 
     42 CA         55.2120   36.6240   22.1710 C.3       6 GLP5        0.0000 
     43 CA         52.2050   34.2835   19.7500 C.3       3 GLC5        0.0000 
     44 CA         52.9430   32.7350   20.6150 C.3       9 GLL5        0.0000 
     45 CA         51.4670   35.8320   18.8850 C.3       6 GLP5        0.0000 
     46 O          53.0405   32.7160   25.0075 O.2       1 ALC1        0.0000 
     47 O          52.5390   31.7110   24.1230 O.2       7 ALL1        0.0000 
     48 O          53.5420   33.7210   25.8920 O.2       4 ALP1        0.0000 
     49 CA         52.2415   31.8305   28.8290 C.3       3 GLC5        0.0000 
     50 CA         52.2740   31.5060   26.8260 C.3       9 GLL5        0.0000 
     51 CA         52.2090   32.1550   30.8320 C.3       6 GLP5        0.0000 
     52 CA         52.5240   33.2810   27.2500 C.3       3 GLC5        0.0000 
     53 CA         52.7740   35.0560   27.6740 C.3       6 GLP5        0.0000 
     54 N          50.6760   28.7490   21.2465 N.am      2 SEC2        0.0000 
     55 N          49.8390   29.8250   22.0280 N.am      8 SEL2        0.0000 
     56 N          51.5130   27.6730   20.4650 N.am      5 SEP2        0.0000 
     57 CA         51.5825   28.2135   25.2865 C.3       3 GLC5        0.0000 
     58 CA         52.8910   29.7010   25.9320 C.3       9 GLL5        0.0000 
     59 CA         50.2740   26.7260   24.6410 C.3       6 GLP5        0.0000 
     60 CA         53.8895   28.0385   26.2900 C.3       3 GLC5        0.0000 
     61 CA         54.8880   26.3760   26.6480 C.3       6 GLP5        0.0000 
     62 N          49.3810   32.5055   26.3270 N.am      2 SEC2        0.0000 
     63 N          50.1750   32.9620   25.2510 N.am      8 SEL2        0.0000 
     64 N          48.5870   32.0490   27.4030 N.am      5 SEP2        0.0000 
     65 O          50.2815   34.1600   24.3435 O.2       1 ALC1        0.0000 
     66 O          50.1750   32.9620   25.2510 O.2       7 ALL1        0.0000 
     67 O          50.3880   35.3580   23.4360 O.2       4 ALP1        0.0000 
     68 O          47.0200   31.6740   23.5240 O.2       1 ALC1        0.0000 
     69 O          47.7680   30.3040   23.0070 O.2       7 ALL1        0.0000 
     70 O          46.2720   33.0440   24.0410 O.2       4 ALP1        0.0000 
     71 N          45.9365   30.8660   19.8305 N.am      2 SEC2        0.0000 
     72 N          46.7110   30.0230   20.5220 N.am      8 SEL2        0.0000 
     73 N          45.1620   31.7090   19.1390 N.am      5 SEP2        0.0000 
     74 CA         45.4340   27.0510   24.1165 C.3       3 GLC5        0.0000 
     75 CA         45.8530   28.8690   23.2620 C.3       9 GLL5        0.0000 
     76 CA         45.0150   25.2330   24.9710 C.3       6 GLP5        0.0000 
     77 O          47.3845   26.6045   21.3405 O.2       1 ALC1        0.0000 
     78 O          47.2110   27.7220   20.4420 O.2       7 ALL1        0.0000 
     79 O          47.5580   25.4870   22.2390 O.2       4 ALP1        0.0000 
     80 CA         50.2360   28.7880   18.3600 C.3       3 GLC5        0.0000 
     81 CA         49.0840   27.6240   18.2200 C.3       9 GLL5        0.0000 
     82 CA         51.3880   29.9520   18.5000 C.3       6 GLP5        0.0000 
     83 CA         48.3600   24.2000   20.1560 C.3       3 GLC5        0.0000 
     84 CA         48.5050   25.8270   19.2340 C.3       9 GLL5        0.0000 
     85 CA         48.2150   22.5730   21.0780 C.3       6 GLP5        0.0000 
     86 CA         50.4850   26.8425   19.3055 C.3       3 GLC5        0.0000 
     87 CA         52.4650   27.8580   19.3770 C.3       6 GLP5        0.0000 
     88 N          45.8475   24.0155   20.0275 N.am      2 SEC2        0.0000 
     89 N          45.7370   25.4860   19.8380 N.am      8 SEL2        0.0000 
     90 N          45.9580   22.5450   20.2170 N.am      5 SEP2        0.0000 
     91 O          46.6475   25.4865   21.0385 O.2       1 ALC1        0.0000 
     92 O          45.7370   25.4860   19.8380 O.2       7 ALL1        0.0000 
     93 CA         63.0992   32.6400   21.2210 C.3       3 GLC5        0.0000 
     94 CA         64.9190   32.3050   21.5000 C.3       6 GLP5        0.0000 
     95 CA         59.7435   30.6920   26.9078 C.3       3 GLC5        0.0000 
     96 CA         57.5150   31.3240   25.7860 C.3       9 GLL5        0.0000 
     97 CA         61.4750   30.4680   27.6320 C.3       6 GLP5        0.0000 
     98 CA         57.3105   32.3545   27.3856 C.3       3 GLC5        0.0000 
     99 CA         57.5560   33.8480   28.6310 C.3       6 GLP5        0.0000 
    100 CA         53.1410   30.9062   19.9342 C.3       3 GLC5        0.0000 
    101 CA         54.3030   32.1540   20.9680 C.3       9 GLL5        0.0000 
    102 CA         52.6590   29.3680   19.0770 C.3       6 GLP5        0.0000 
    103 CA         48.6225   33.2807   24.5847 C.3       3 GLC5        0.0000 
    104 CA         49.7620   31.9180   23.1240 C.3       9 GLL5        0.0000 
    105 CA         47.2970   34.7490   25.3120 C.3       6 GLP5        0.0000 
    106 CA         50.3103   28.8420   25.7302 C.3       3 GLC5        0.0000 
    107 CA         51.8690   30.4830   26.0930 C.3       9 GLL5        0.0000 
    108 CA         49.2340   27.5460   25.0720 C.3       6 GLP5        0.0000 
    109 CA         50.0157   29.4318   24.8573 C.3       3 GLC5        0.0000 
    110 CA         51.4610   30.9280   24.6940 C.3       9 GLL5        0.0000 
    111 CA         52.1294   28.9112   27.9326 C.3       3 GLC5        0.0000 
    112 CA         50.9040   29.7930   26.6840 C.3       9 GLL5        0.0000 
    113 CA         52.1200   27.9030   29.7050 C.3       6 GLP5        0.0000 
    114 CA         46.3175   29.7390   24.7538 C.3       3 GLC5        0.0000 
    115 CA         47.2130   29.0350   22.6070 C.3       9 GLL5        0.0000 
    116 CA         46.1020   30.5260   26.5730 C.3       6 GLP5        0.0000 
    117 CA         47.8835   28.2490   24.0033 C.3       3 GLC5        0.0000 
    118 CA         49.3759   26.4874   20.4398 C.3       3 GLC5        0.0000 
    119 CA         50.2050   26.4600   22.1000 C.3       6 GLP5        0.0000 
@<TRIPOS>BOND
@<TRIPOS>SUBSTRUCTURE
     1 ALC1       14 GROUP        1 X    ALC  0     ROOT ALC X 1
     2 SEC2       20 GROUP        1 X    SEC  0     **** SEC X 2
     3 GLC5        1 GROUP        1 X    GLC  0     **** GLC X 6
     4 ALP1       16 GROUP        1 Y    ALP  0     ROOT ALP Y 8
     5 SEP2       22 GROUP        1 Y    SEP  0     **** SEP Y 9
     6 GLP5        3 GROUP        1 Y    GLP  0     **** GLP Y 13
     7 ALL1       15 GROUP        1 Z    ALL  0     ROOT ALL Z 15
     8 SEL2       21 GROUP        1 Z    SEL  0     **** SEL Z 16
     9 GLL5        2 GROUP        1 Z    GLL  0     **** GLL Z 20
@<TRIPOS>SET

