#    Name: 1xe6_5FP_2_ligand
#    Modification time : Tue Mar 25 09:49:03 2014

@<TRIPOS>MOLECULE
1xe6_5FP_2_ligand
   92    91     1     0     0
SMALL
NO_CHARGES


@<TRIPOS>ATOM
      1 C22        60.9660   32.5560   22.4150 C.3       1 5FP400      0.0000 
      2 C23        60.6220   32.6880   20.9530 C.3       1 5FP400      0.0000 
      3 C39        59.3980   33.5710   20.8420 C.3       1 5FP400      0.0000 
      4 C24        61.7650   33.3280   20.2000 C.3       1 5FP400      0.0000 
      5 C21        59.9620   31.6090   23.0320 C.2       1 5FP400      0.0000 
      6 O21        59.8060   30.5180   22.4870 O.2       1 5FP400      0.0000 
      7 N20        58.9940   32.1070   23.9900 N.am      1 5FP400      0.0000 
      8 C19        57.7920   31.3540   24.2850 C.3       1 5FP400      0.0000 
      9 C18        56.6770   32.0580   23.5050 C.2       1 5FP400      0.0000 
     10 O18        56.4690   33.2720   23.6350 O.2       1 5FP400      0.0000 
     11 C36        57.5150   31.3240   25.7860 C.3       1 5FP400      0.0000 
     12 C37        58.5090   30.5080   26.5810 C.3       1 5FP400      0.0000 
     13 C38        56.1180   30.8060   26.0970 C.3       1 5FP400      0.0000 
     14 N17        55.6450   31.2930   22.8650 N.am      1 5FP400      0.0000 
     15 C16        54.4430   31.9910   22.4750 C.3       1 5FP400      0.0000 
     16 C15        53.3100   31.1710   23.0400 C.2       1 5FP400      0.0000 
     17 O15        53.1120   30.0290   22.6300 O.2       1 5FP400      0.0000 
     18 C33        54.3030   32.1540   20.9680 C.3       1 5FP400      0.0000 
     19 C34        55.4310   32.9560   20.3260 C.3       1 5FP400      0.0000 
     20 C35        52.9430   32.7350   20.6150 C.3       1 5FP400      0.0000 
     21 N14        52.5390   31.7110   24.1230 N.am      1 5FP400      0.0000 
     22 C9         49.1490   30.6070   22.6750 C.2       1 5FP400      0.0000 
     23 F1         52.2740   31.5060   26.8260 F         1 5FP400      0.0000 
     24 C10        49.7620   31.9180   23.1240 C.3       1 5FP400      0.0000 
     25 F2         50.9040   29.7930   26.6840 F         1 5FP400      0.0000 
     26 O9         49.8390   29.8250   22.0280 O.2       1 5FP400      0.0000 
     27 C11        50.1340   31.7070   24.5910 C.3       1 5FP400      0.0000 
     28 F3         52.8910   29.7010   25.9320 F         1 5FP400      0.0000 
     29 O11        50.1750   32.9620   25.2510 O.3       1 5FP400      0.0000 
     30 C12        51.4610   30.9280   24.6940 C.3       1 5FP400      0.0000 
     31 C13        51.8690   30.4830   26.0930 C.3       1 5FP400      0.0000 
     32 N8         47.7680   30.3040   23.0070 N.am      1 5FP400      0.0000 
     33 C7         47.2130   29.0350   22.6070 C.3       1 5FP400      0.0000 
     34 C6         47.1020   29.0080   21.0990 C.2       1 5FP400      0.0000 
     35 O6         46.7110   30.0230   20.5220 O.2       1 5FP400      0.0000 
     36 C29        45.8530   28.8690   23.2620 C.3       1 5FP400      0.0000 
     37 N5         47.2110   27.7220   20.4420 N.am      1 5FP400      0.0000 
     38 C1         43.4670   27.7020   18.1700 C.2       1 5FP400      0.0000 
     39 F4         47.8100   26.2320   17.2810 F         1 5FP400      0.0000 
     40 O2         42.2910   28.0920   18.4050 O.co2     1 5FP400      0.0000 
     41 C2         44.3030   27.2840   19.3650 C.3       1 5FP400      0.0000 
     42 F5         49.0840   27.6240   18.2200 F         1 5FP400      0.0000 
     43 O1         43.9620   27.6690   17.0020 O.co2     1 5FP400      0.0000 
     44 C3         45.6060   26.5910   18.9650 C.3       1 5FP400      0.0000 
     45 F6         48.5050   25.8270   19.2340 F         1 5FP400      0.0000 
     46 O3         45.7370   25.4860   19.8380 O.3       1 5FP400      0.0000 
     47 C4         46.8700   27.4650   19.0510 C.3       1 5FP400      0.0000 
     48 C25        48.0930   26.7810   18.4300 C.3       1 5FP400      0.0000 
     49 H          60.8982   33.5195   22.8950 H         1 5FP400      0.0000 
     50 H          61.9598   32.1507   22.5216 H         1 5FP400      0.0000 
     51 H          60.4048   31.7315   20.5449 H         1 5FP400      0.0000 
     52 H          59.1605   32.9906   24.4575 H         1 5FP400      0.0000 
     53 H          57.8775   30.3530   23.9109 H         1 5FP400      0.0000 
     54 H          57.5592   32.3615   26.1638 H         1 5FP400      0.0000 
     55 H          55.7501   30.3195   22.6950 H         1 5FP400      0.0000 
     56 H          54.4076   32.9646   22.9448 H         1 5FP400      0.0000 
     57 H          54.3337   31.1315   20.5243 H         1 5FP400      0.0000 
     58 H          52.7406   32.6283   24.4890 H         1 5FP400      0.0000 
     59 H          49.0429   32.7032   23.0478 H         1 5FP400      0.0000 
     60 H          50.6438   32.1223   22.5583 H         1 5FP400      0.0000 
     61 H          49.3514   31.0672   25.0227 H         1 5FP400      0.0000 
     62 H          51.3466   30.0103   24.0780 H         1 5FP400      0.0000 
     63 H          47.2119   30.9717   23.5079 H         1 5FP400      0.0000 
     64 H          47.8499   28.2284   22.9243 H         1 5FP400      0.0000 
     65 H          47.5607   26.9162   21.0072 H         1 5FP400      0.0000 
     66 H          43.7180   26.6021   19.9971 H         1 5FP400      0.0000 
     67 H          44.5431   28.1700   19.9684 H         1 5FP400      0.0000 
     68 H          45.4971   26.2411   17.9416 H         1 5FP400      0.0000 
     69 H          46.6989   28.3877   18.5334 H         1 5FP400      0.0000 
     70 H          59.5600   34.4803   21.2254 H         1 5FP400      0.0000 
     71 H          59.1179   33.6997   19.8907 H         1 5FP400      0.0000 
     72 H          58.6149   33.1832   21.3282 H         1 5FP400      0.0000 
     73 H          62.6031   32.7865   20.2667 H         1 5FP400      0.0000 
     74 H          61.5581   33.4293   19.2269 H         1 5FP400      0.0000 
     75 H          61.9766   34.2401   20.5512 H         1 5FP400      0.0000 
     76 H          59.4403   30.8588   26.4830 H         1 5FP400      0.0000 
     77 H          58.2957   30.5118   27.5580 H         1 5FP400      0.0000 
     78 H          58.5236   29.5520   26.2879 H         1 5FP400      0.0000 
     79 H          55.9822   29.8760   25.7555 H         1 5FP400      0.0000 
     80 H          55.9398   30.7859   27.0808 H         1 5FP400      0.0000 
     81 H          55.4094   31.3769   25.6824 H         1 5FP400      0.0000 
     82 H          56.3218   32.5253   20.4705 H         1 5FP400      0.0000 
     83 H          55.3063   33.0470   19.3380 H         1 5FP400      0.0000 
     84 H          55.4886   33.8814   20.7007 H         1 5FP400      0.0000 
     85 H          52.8025   33.6323   21.0335 H         1 5FP400      0.0000 
     86 H          52.8338   32.8516   19.6278 H         1 5FP400      0.0000 
     87 H          52.1961   32.1468   20.9250 H         1 5FP400      0.0000 
     88 H          45.9164   28.8893   24.2598 H         1 5FP400      0.0000 
     89 H          45.2204   29.5955   22.9937 H         1 5FP400      0.0000 
     90 H          45.4244   28.0004   23.0131 H         1 5FP400      0.0000 
     91 H          50.3584   33.6285   24.5284 H         1 5FP400      0.0000 
     92 H          46.4106   25.7729   20.5191 H         1 5FP400      0.0000 
@<TRIPOS>BOND
     1    2    1 1    
     2    5    1 1    
     3   49    1 1    
     4   50    1 1    
     5    3    2 1    
     6    4    2 1    
     7   51    2 1    
     8   70    3 1    
     9   71    3 1    
    10   72    3 1    
    11   73    4 1    
    12   74    4 1    
    13   75    4 1    
    14    6    5 2    
    15    7    5 am   
    16    8    7 1    
    17   52    7 1    
    18    9    8 1    
    19   11    8 1    
    20   53    8 1    
    21   10    9 2    
    22   14    9 am   
    23   12   11 1    
    24   13   11 1    
    25   54   11 1    
    26   76   12 1    
    27   77   12 1    
    28   78   12 1    
    29   79   13 1    
    30   80   13 1    
    31   81   13 1    
    32   15   14 1    
    33   55   14 1    
    34   16   15 1    
    35   18   15 1    
    36   56   15 1    
    37   17   16 2    
    38   21   16 am   
    39   19   18 1    
    40   20   18 1    
    41   57   18 1    
    42   82   19 1    
    43   83   19 1    
    44   84   19 1    
    45   85   20 1    
    46   86   20 1    
    47   87   20 1    
    48   30   21 1    
    49   58   21 1    
    50   24   22 1    
    51   26   22 2    
    52   32   22 am   
    53   31   23 1    
    54   27   24 1    
    55   59   24 1    
    56   60   24 1    
    57   31   25 1    
    58   29   27 1    
    59   30   27 1    
    60   61   27 1    
    61   31   28 1    
    62   91   29 1    
    63   31   30 1    
    64   62   30 1    
    65   33   32 1    
    66   63   32 1    
    67   34   33 1    
    68   36   33 1    
    69   64   33 1    
    70   35   34 2    
    71   37   34 am   
    72   88   36 1    
    73   89   36 1    
    74   90   36 1    
    75   47   37 1    
    76   65   37 1    
    77   40   38 ar   
    78   41   38 1    
    79   43   38 ar   
    80   48   39 1    
    81   44   41 1    
    82   66   41 1    
    83   67   41 1    
    84   48   42 1    
    85   46   44 1    
    86   47   44 1    
    87   68   44 1    
    88   48   45 1    
    89   92   46 1    
    90   48   47 1    
    91   69   47 1    
@<TRIPOS>SUBSTRUCTURE
     1 5FP400      1 GROUP   
@<TRIPOS>SET

