#    Name: 1bq6_COA_1_INTS_M
#    Modification time : Mon Mar 24 19:44:13 2014

@<TRIPOS>MOLECULE
1bq6_COA_1_INTS_M
   94     0     9     0     0
SMALL
NO_CHARGES


@<TRIPOS>ATOM
      1 CA          4.0630   49.1275   51.9205 C.3       3 GLC5        0.0000 
      2 CA          4.2120   51.0380   52.0620 C.3       9 GLL5        0.0000 
      3 CA          3.9140   47.2170   51.7790 C.3       6 GLP5        0.0000 
      4 CA          5.9910   49.9475   52.8860 C.3       3 GLC5        0.0000 
      5 CA          7.7700   48.8570   53.7100 C.3       6 GLP5        0.0000 
      6 CA          5.6160   50.1710   49.0095 C.3       3 GLC5        0.0000 
      7 CA          5.3340   51.8240   50.3680 C.3       9 GLL5        0.0000 
      8 CA          5.8980   48.5180   47.6510 C.3       6 GLP5        0.0000 
      9 CA          6.8620   51.0875   53.7960 C.3       3 GLC5        0.0000 
     10 CA          5.9730   52.5780   52.5470 C.3       9 GLL5        0.0000 
     11 CA          7.7510   49.5970   55.0450 C.3       6 GLP5        0.0000 
     12 CA          8.1475   52.7405   53.0245 C.3       3 GLC5        0.0000 
     13 CA         10.3220   52.9030   53.5020 C.3       6 GLP5        0.0000 
     14 CA          6.6520   51.1165   48.7075 C.3       3 GLC5        0.0000 
     15 CA          4.8880   51.6570   47.9090 C.3       9 GLL5        0.0000 
     16 CA          8.4160   50.5760   49.5060 C.3       6 GLP5        0.0000 
     17 NZ          0.3015   49.1030   43.2290 N.4       2 LYC4        0.0000 
     18 NZ          0.8130   50.6020   43.7520 N.4       8 LYL4        0.0000 
     19 NZ          0.2140   48.1070   41.5550 N.4       5 LYP4        0.0000 
     20 N           0.8550   49.9230   42.6070 N.am      1 SEC2        0.0000 
     21 N           0.8130   50.6020   43.7520 N.am      7 SEL2        0.0000 
     22 N           0.8970   49.2440   41.4620 N.am      4 SEP2        0.0000 
     23 N           0.3015   49.1030   43.2290 N.am      1 SEC2        0.0000 
     24 N          -0.2100   47.6040   42.7060 N.am      4 SEP2        0.0000 
     25 NZ          0.0525   48.7020   46.9040 N.4       2 LYC4        0.0000 
     26 NZ          0.4140   49.7350   46.1590 N.4       8 LYL4        0.0000 
     27 NZ         -0.3090   47.6690   47.6490 N.4       5 LYP4        0.0000 
     28 N           0.0525   48.7020   46.9040 N.am      1 SEC2        0.0000 
     29 N           0.4140   49.7350   46.1590 N.am      7 SEL2        0.0000 
     30 N          -0.3090   47.6690   47.6490 N.am      4 SEP2        0.0000 
     31 NZ          3.0885   55.5625   41.0625 N.4       2 LYC4        0.0000 
     32 NZ          2.7510   54.7660   42.3090 N.4       8 LYL4        0.0000 
     33 NZ          3.4260   56.3590   39.8160 N.4       5 LYP4        0.0000 
     34 N           3.0885   55.5625   41.0625 N.am      1 SEC2        0.0000 
     35 N           2.7510   54.7660   42.3090 N.am      7 SEL2        0.0000 
     36 N           3.4260   56.3590   39.8160 N.am      4 SEP2        0.0000 
     37 CA          7.7475   54.3935   42.5375 C.3       3 GLC5        0.0000 
     38 CA          7.6550   54.4730   44.5070 C.3       9 GLL5        0.0000 
     39 CA          7.8400   54.3140   40.5680 C.3       6 GLP5        0.0000 
     40 CA          8.9900   54.4615   42.4740 C.3       3 GLC5        0.0000 
     41 CA         10.1400   54.6090   44.3800 C.3       9 GLL5        0.0000 
     42 CA         11.2400   54.1065   42.8875 C.3       3 GLC5        0.0000 
     43 CA         12.3400   53.6040   41.3950 C.3       6 GLP5        0.0000 
     44 CA         11.9975   53.5395   44.9185 C.3       3 GLC5        0.0000 
     45 CA         13.8550   52.4700   45.4570 C.3       6 GLP5        0.0000 
     46 CA         11.1930   55.9485   43.6995 C.3       3 GLC5        0.0000 
     47 CA         12.2460   57.2880   43.0190 C.3       6 GLP5        0.0000 
     48 CA          9.9180   52.5250   48.0185 C.3       3 GLC5        0.0000 
     49 CA          9.1140   53.5470   46.4190 C.3       9 GLL5        0.0000 
     50 CA         10.7220   51.5030   49.6180 C.3       6 GLP5        0.0000 
     51 CA          9.0845   57.9025   46.3160 C.3       3 GLC5        0.0000 
     52 CA          8.8340   55.9970   46.1040 C.3       9 GLL5        0.0000 
     53 CA          9.3350   59.8080   46.5280 C.3       6 GLP5        0.0000 
     54 N          11.2910   58.2290   45.9040 N.am      1 SEC2        0.0000 
     55 N          11.1140   56.7670   46.4750 N.am      7 SEL2        0.0000 
     56 N          11.4680   59.6910   45.3330 N.am      4 SEP2        0.0000 
     57 CA         12.3900   54.6110   48.5090 C.3       3 GLC5        0.0000 
     58 CA         11.1600   56.2660   49.0990 C.3       9 GLL5        0.0000 
     59 CA         13.6200   52.9560   47.9190 C.3       6 GLP5        0.0000 
     60 CA         12.7840   56.5945   47.9485 C.3       3 GLC5        0.0000 
     61 CA         14.4080   56.9230   46.7980 C.3       6 GLP5        0.0000 
     62 CA         10.8740   57.7830   52.4490 C.3       3 GLC5        0.0000 
     63 CA         10.8510   56.6830   50.5180 C.3       9 GLL5        0.0000 
     64 CA         10.8970   58.8830   54.3800 C.3       6 GLP5        0.0000 
     65 CA         10.0200   58.3005   51.0935 C.3       3 GLC5        0.0000 
     66 CA          9.1890   59.9180   51.6690 C.3       6 GLP5        0.0000 
     67 CA         14.3825   56.5035   54.4965 C.3       3 GLC5        0.0000 
     68 CA         14.0600   55.8550   52.4280 C.3       9 GLL5        0.0000 
     69 CA         14.7050   57.1520   56.5650 C.3       6 GLP5        0.0000 
     70 CA         13.1745   57.5890   53.2080 C.3       3 GLC5        0.0000 
     71 CA         12.2890   59.3230   53.9880 C.3       6 GLP5        0.0000 
     72 CA         15.5485   56.5685   50.9535 C.3       3 GLC5        0.0000 
     73 CA         17.0370   57.2820   49.4790 C.3       6 GLP5        0.0000 
     74 CA         14.2790   57.8630   51.6075 C.3       3 GLC5        0.0000 
     75 CA         14.4980   59.8710   50.7870 C.3       6 GLP5        0.0000 
     76 CA         14.3995   52.8655   53.1605 C.3       3 GLC5        0.0000 
     77 CA         14.9190   54.5710   52.4330 C.3       9 GLL5        0.0000 
     78 CA         13.8800   51.1600   53.8880 C.3       6 GLP5        0.0000 
     79 CA         15.4220   54.3565   55.8765 C.3       3 GLC5        0.0000 
     80 CA         15.7060   54.4530   54.0240 C.3       9 GLL5        0.0000 
     81 CA         15.1380   54.2600   57.7290 C.3       6 GLP5        0.0000 
     82 CA         15.2335   52.7745   54.4855 C.3       3 GLC5        0.0000 
     83 CA         14.7610   51.0960   54.9470 C.3       6 GLP5        0.0000 
     84 CA         13.6540   54.2485   54.6600 C.3       3 GLC5        0.0000 
     85 CA         11.6020   54.0440   55.2960 C.3       6 GLP5        0.0000 
     86 CA          7.1415   51.4839   50.5794 C.3       3 GLC5        0.0000 
     87 CA          6.1880   52.5870   51.1490 C.3       9 GLL5        0.0000 
     88 CA          4.8283   50.0524   47.3279 C.3       3 GLC5        0.0000 
     89 CA          5.8635   50.7593   45.0663 C.3       3 GLC5        0.0000 
     90 CA          4.7670   51.7110   45.5000 C.3       9 GLL5        0.0000 
     91 CA          6.9230   49.2700   45.1920 C.3       6 GLP5        0.0000 
     92 CA         13.0457   54.6285   53.8632 C.3       3 GLC5        0.0000 
     93 CA         16.4552   53.0030   52.7512 C.3       3 GLC5        0.0000 
     94 CA         17.5980   51.4940   52.2740 C.3       6 GLP5        0.0000 
@<TRIPOS>BOND
@<TRIPOS>SUBSTRUCTURE
     1 SEC2       20 GROUP        1 X    SEC  0     ROOT SEC X 2
     2 LYC4       17 GROUP        1 X    LYC  0     **** LYC X 4
     3 GLC5        1 GROUP        1 X    GLC  0     **** GLC X 6
     4 SEP2       22 GROUP        1 Y    SEP  0     ROOT SEP Y 9
     5 LYP4       19 GROUP        1 Y    LYP  0     **** LYP Y 11
     6 GLP5        3 GROUP        1 Y    GLP  0     **** GLP Y 13
     7 SEL2       21 GROUP        1 Z    SEL  0     ROOT SEL Z 16
     8 LYL4       18 GROUP        1 Z    LYL  0     **** LYL Z 18
     9 GLL5        2 GROUP        1 Z    GLL  0     **** GLL Z 20
@<TRIPOS>SET

