#    Name: 1bq6_COA_1_ligand
#    Modification time : Mon Mar 24 19:44:13 2014

@<TRIPOS>MOLECULE
1bq6_COA_1_ligand
   79    81     1     0     0
SMALL
NO_CHARGES


@<TRIPOS>ATOM
      1 N1A         4.9850   51.7160   52.9630 N.ar      1 COA390      0.0000 
      2 C2A         4.2120   51.0380   52.0620 C.ar      1 COA390      0.0000 
      3 N3A         4.3150   50.9920   50.7670 N.ar      1 COA390      0.0000 
      4 C4A         5.3340   51.8240   50.3680 C.ar      1 COA390      0.0000 
      5 C5A         6.1880   52.5870   51.1490 C.ar      1 COA390      0.0000 
      6 C6A         5.9730   52.5780   52.5470 C.ar      1 COA390      0.0000 
      7 N6A         6.3160   53.6340   53.3310 N.pl3     1 COA390      0.0000 
      8 N7A         6.9310   53.4840   50.3730 N.2       1 COA390      0.0000 
      9 C8A         6.5040   53.2090   49.1180 C.2       1 COA390      0.0000 
     10 N9A         5.5500   52.2180   49.0460 N.pl3     1 COA390      0.0000 
     11 C1B         4.8880   51.6570   47.9090 C.3       1 COA390      0.0000 
     12 C2B         3.4920   51.3320   47.7020 C.3       1 COA390      0.0000 
     13 O2B         2.9910   51.9020   48.8490 O.3       1 COA390      0.0000 
     14 C3B         3.3270   51.6790   46.2040 C.3       1 COA390      0.0000 
     15 O3B         2.6150   50.5310   45.5180 O.3       1 COA390      0.0000 
     16 P3B         1.0650   50.8360   45.1880 P.3       1 COA390      0.0000 
     17 O7A         0.6970   52.2380   45.5150 O.co2     1 COA390      0.0000 
     18 O8A         0.8130   50.6020   43.7520 O.co2     1 COA390      0.0000 
     19 O9A         0.4140   49.7350   46.1590 O.co2     1 COA390      0.0000 
     20 C4B         4.7670   51.7110   45.5000 C.3       1 COA390      0.0000 
     21 O4B         5.4660   52.2920   46.7170 O.3       1 COA390      0.0000 
     22 C5B         4.8410   52.7860   44.3810 C.3       1 COA390      0.0000 
     23 O5B         3.6570   53.6690   44.3970 O.3       1 COA390      0.0000 
     24 P1A         3.5050   55.0280   43.5790 P.3       1 COA390      0.0000 
     25 O1A         2.7850   56.0610   44.3900 O.co2     1 COA390      0.0000 
     26 O2A         2.7510   54.7660   42.3090 O.co2     1 COA390      0.0000 
     27 O3A         4.9960   55.4940   43.2800 O.3       1 COA390      0.0000 
     28 P2A         6.2120   56.3540   43.8400 P.3       1 COA390      0.0000 
     29 O4A         6.0420   56.8320   45.2000 O.co2     1 COA390      0.0000 
     30 O5A         6.2920   57.5610   42.9620 O.co2     1 COA390      0.0000 
     31 O6A         7.4960   55.6080   43.6670 O.3       1 COA390      0.0000 
     32 CBP         8.9450   54.6490   45.3540 C.3       1 COA390      0.0000 
     33 CCP         7.6550   54.4730   44.5070 C.3       1 COA390      0.0000 
     34 CDP        10.1400   54.6090   44.3800 C.3       1 COA390      0.0000 
     35 CEP         9.1140   53.5470   46.4190 C.3       1 COA390      0.0000 
     36 CAP         8.8340   55.9970   46.1040 C.3       1 COA390      0.0000 
     37 OAP         7.7730   55.8730   47.0820 O.3       1 COA390      0.0000 
     38 C9P        10.0710   56.2910   46.9890 C.2       1 COA390      0.0000 
     39 O9P        11.1140   56.7670   46.4750 O.2       1 COA390      0.0000 
     40 N8P         9.8520   56.1170   48.2960 N.am      1 COA390      0.0000 
     41 C7P        11.1600   56.2660   49.0990 C.3       1 COA390      0.0000 
     42 C6P        10.8510   56.6830   50.5180 C.3       1 COA390      0.0000 
     43 C5P        11.9700   56.3310   51.4590 C.2       1 COA390      0.0000 
     44 O5P        11.5600   56.1470   52.5960 O.2       1 COA390      0.0000 
     45 N4P        13.2220   56.0210   51.1450 N.am      1 COA390      0.0000 
     46 C3P        14.0600   55.8550   52.4280 C.3       1 COA390      0.0000 
     47 C2P        14.9190   54.5710   52.4330 C.3       1 COA390      0.0000 
     48 S1P        15.7060   54.4530   54.0240 S.3       1 COA390      0.0000 
     49 H           3.3897   50.4536   52.5238 H         1 COA390      0.0000 
     50 H           5.8140   53.7249   54.1911 H         1 COA390      0.0000 
     51 H           7.0401   54.2268   52.9785 H         1 COA390      0.0000 
     52 H           6.8445   53.6784   48.3050 H         1 COA390      0.0000 
     53 H           5.4445   50.5575   47.7970 H         1 COA390      0.0000 
     54 H           3.5033   50.2102   47.7722 H         1 COA390      0.0000 
     55 H           2.8556   52.5693   46.0526 H         1 COA390      0.0000 
     56 H           5.0730   50.8147   45.2851 H         1 COA390      0.0000 
     57 H           4.9242   52.2643   43.4217 H         1 COA390      0.0000 
     58 H           5.7590   53.3636   44.5329 H         1 COA390      0.0000 
     59 H           7.7674   53.5473   43.9398 H         1 COA390      0.0000 
     60 H           6.8258   54.3529   45.2064 H         1 COA390      0.0000 
     61 H           8.6700   56.7845   45.4518 H         1 COA390      0.0000 
     62 H           9.0489   55.9253   48.7717 H         1 COA390      0.0000 
     63 H          11.7804   57.0164   48.6187 H         1 COA390      0.0000 
     64 H          11.6805   55.3132   49.0974 H         1 COA390      0.0000 
     65 H           9.9281   56.1885   50.8462 H         1 COA390      0.0000 
     66 H          10.6771   57.7660   50.5457 H         1 COA390      0.0000 
     67 H          13.6481   55.8952   50.3073 H         1 COA390      0.0000 
     68 H          13.3870   55.8335   53.2926 H         1 COA390      0.0000 
     69 H          14.7205   56.7227   52.5367 H         1 COA390      0.0000 
     70 H          15.7258   54.6154   51.7606 H         1 COA390      0.0000 
     71 H          14.3436   53.6931   52.3759 H         1 COA390      0.0000 
     72 H          11.0123   54.7129   44.8579 H         1 COA390      0.0000 
     73 H          10.1816   53.7448   43.8785 H         1 COA390      0.0000 
     74 H          10.0895   55.3404   43.6999 H         1 COA390      0.0000 
     75 H           9.1639   52.6371   46.0072 H         1 COA390      0.0000 
     76 H           9.9493   53.6727   46.9542 H         1 COA390      0.0000 
     77 H           8.3509   53.5348   47.0652 H         1 COA390      0.0000 
     78 H           3.1423   51.2198   49.5643 H         1 COA390      0.0000 
     79 H           6.9578   56.2301   46.6260 H         1 COA390      0.0000 
@<TRIPOS>BOND
     1    2    1 ar   
     2    6    1 ar   
     3    3    2 ar   
     4   49    2 1    
     5    4    3 ar   
     6    5    4 ar   
     7   10    4 1    
     8    6    5 ar   
     9    8    5 1    
    10    7    6 1    
    11   50    7 1    
    12   51    7 1    
    13    9    8 2    
    14   10    9 1    
    15   52    9 1    
    16   11   10 1    
    17   12   11 1    
    18   21   11 1    
    19   53   11 1    
    20   13   12 1    
    21   14   12 1    
    22   54   12 1    
    23   78   13 1    
    24   15   14 1    
    25   20   14 1    
    26   55   14 1    
    27   16   15 1    
    28   17   16 ar   
    29   18   16 ar   
    30   19   16 ar   
    31   21   20 1    
    32   22   20 1    
    33   56   20 1    
    34   23   22 1    
    35   57   22 1    
    36   58   22 1    
    37   24   23 1    
    38   25   24 ar   
    39   26   24 ar   
    40   27   24 1    
    41   28   27 1    
    42   29   28 ar   
    43   30   28 ar   
    44   31   28 1    
    45   33   31 1    
    46   33   32 1    
    47   34   32 1    
    48   35   32 1    
    49   36   32 1    
    50   59   33 1    
    51   60   33 1    
    52   72   34 1    
    53   73   34 1    
    54   74   34 1    
    55   75   35 1    
    56   76   35 1    
    57   77   35 1    
    58   37   36 1    
    59   38   36 1    
    60   61   36 1    
    61   79   37 1    
    62   39   38 2    
    63   40   38 am   
    64   41   40 1    
    65   62   40 1    
    66   42   41 1    
    67   63   41 1    
    68   64   41 1    
    69   43   42 1    
    70   65   42 1    
    71   66   42 1    
    72   44   43 2    
    73   45   43 am   
    74   46   45 1    
    75   67   45 1    
    76   47   46 1    
    77   68   46 1    
    78   69   46 1    
    79   48   47 1    
    80   70   47 1    
    81   71   47 1    
@<TRIPOS>SUBSTRUCTURE
     1 COA390      1 GROUP   
@<TRIPOS>SET

