#    Name: 1opb_RET_1_INTS_M
#    Modification time : Mon Mar 24 20:21:43 2014

@<TRIPOS>MOLECULE
1opb_RET_1_INTS_M
   65     0     6     0     0
SMALL
NO_CHARGES


@<TRIPOS>ATOM
      1 CA        -15.8205   61.5395   33.8480 C.3       2 GLC5        0.0000 
      2 CA        -14.1300   61.2730   35.0750 C.3       6 GLL5        0.0000 
      3 CA        -17.5110   61.8060   32.6210 C.3       4 GLP5        0.0000 
      4 CA        -14.2870   62.8560   32.9110 C.3       2 GLC5        0.0000 
      5 CA        -13.7230   60.8910   33.7660 C.3       6 GLL5        0.0000 
      6 CA        -14.8510   64.8210   32.0560 C.3       4 GLP5        0.0000 
      7 CA        -15.1190   60.5575   32.4210 C.3       2 GLC5        0.0000 
      8 CA        -16.5150   60.2240   31.0760 C.3       4 GLP5        0.0000 
      9 CA        -11.2710   62.3600   34.1740 C.3       2 GLC5        0.0000 
     10 CA        -12.3050   60.4270   33.7280 C.3       6 GLL5        0.0000 
     11 CA        -10.2370   64.2930   34.6200 C.3       4 GLP5        0.0000 
     12 CA        -14.3105   56.8405   39.9615 C.3       2 GLC5        0.0000 
     13 CA        -12.9390   55.4460   38.8920 C.3       6 GLL5        0.0000 
     14 CA        -15.6820   58.2350   41.0310 C.3       4 GLP5        0.0000 
     15 CA        -14.3670   54.3330   37.8730 C.3       2 GLC5        0.0000 
     16 CA        -15.7950   53.2200   36.8540 C.3       4 GLP5        0.0000 
     17 CA        -14.6935   53.4135   38.6555 C.3       2 GLC5        0.0000 
     18 CA        -13.5920   53.6070   40.4570 C.3       6 GLL5        0.0000 
     19 CA        -14.5625   54.2890   43.6605 C.3       2 GLC5        0.0000 
     20 CA        -14.4010   52.4460   42.3910 C.3       6 GLL5        0.0000 
     21 CA        -14.7240   56.1320   44.9300 C.3       4 GLP5        0.0000 
     22 CA        -13.5710   50.3645   42.5725 C.3       2 GLC5        0.0000 
     23 CA        -12.7410   48.2830   42.7540 C.3       4 GLP5        0.0000 
     24 N         -14.7845   51.5495   46.2460 N.am      1 SEC2        0.0000 
     25 N         -14.9180   52.1470   44.8510 N.am      5 SEL2        0.0000 
     26 N         -14.6510   50.9520   47.6410 N.am      3 SEP2        0.0000 
     27 CA        -13.8835   61.8660   39.4835 C.3       2 GLC5        0.0000 
     28 CA        -14.0040   60.9570   37.5030 C.3       6 GLL5        0.0000 
     29 CA        -13.7630   62.7750   41.4640 C.3       4 GLP5        0.0000 
     30 CA        -15.3865   62.6330   37.9810 C.3       2 GLC5        0.0000 
     31 CA        -16.7690   64.3090   38.4590 C.3       4 GLP5        0.0000 
     32 CA        -17.3535   59.4035   36.0860 C.3       2 GLC5        0.0000 
     33 CA        -15.2220   59.3290   36.1050 C.3       6 GLL5        0.0000 
     34 CA        -19.4850   59.4780   36.0670 C.3       4 GLP5        0.0000 
     35 CA        -15.9925   57.4565   36.3515 C.3       2 GLC5        0.0000 
     36 CA        -16.7630   55.5840   36.5980 C.3       4 GLP5        0.0000 
     37 CA        -14.2525   57.7555   34.9750 C.3       2 GLC5        0.0000 
     38 CA        -13.2830   56.1820   33.8450 C.3       4 GLP5        0.0000 
     39 CA         -9.8780   59.8075   36.3030 C.3       2 GLC5        0.0000 
     40 CA        -10.5610   58.9060   34.6100 C.3       6 GLL5        0.0000 
     41 CA         -9.1950   60.7090   37.9960 C.3       4 GLP5        0.0000 
     42 CA         -9.0715   60.3680   34.5085 C.3       2 GLC5        0.0000 
     43 CA         -7.5820   61.8300   34.4070 C.3       4 GLP5        0.0000 
     44 CA         -9.3665   58.5440   33.1085 C.3       2 GLC5        0.0000 
     45 CA         -8.1720   58.1820   31.6070 C.3       4 GLP5        0.0000 
     46 CA         -9.4125   58.0290   38.5700 C.3       2 GLC5        0.0000 
     47 CA        -10.5760   56.2220   38.6330 C.3       6 GLL5        0.0000 
     48 CA         -8.2490   59.8360   38.5070 C.3       4 GLP5        0.0000 
     49 CA         -8.6735   55.9535   38.0385 C.3       2 GLC5        0.0000 
     50 CA         -6.7710   55.6850   37.4440 C.3       4 GLP5        0.0000 
     51 CA         -9.2160   56.1960   40.0575 C.3       2 GLC5        0.0000 
     52 CA         -7.8560   56.1700   41.4820 C.3       4 GLP5        0.0000 
     53 CA        -11.4485   53.8160   43.4025 C.3       2 GLC5        0.0000 
     54 CA        -11.9380   52.4990   42.0520 C.3       6 GLL5        0.0000 
     55 CA        -10.9590   55.1330   44.7530 C.3       4 GLP5        0.0000 
     56 CA        -10.2125   53.1470   41.6475 C.3       2 GLC5        0.0000 
     57 CA         -8.4870   53.7950   41.2430 C.3       4 GLP5        0.0000 
     58 CA        -10.7348   59.8503   37.1444 C.3       2 GLC5        0.0000 
     59 CA        -11.9100   59.5430   34.8830 C.3       6 GLL5        0.0000 
     60 CA        -12.8711   57.1288   35.3894 C.3       2 GLC5        0.0000 
     61 CA        -12.6620   59.4010   35.9940 C.3       6 GLL5        0.0000 
     62 CA        -12.1010   50.7362   42.0643 C.3       2 GLC5        0.0000 
     63 CA        -13.3440   52.7480   41.6190 C.3       6 GLL5        0.0000 
     64 CA        -11.5610   48.8490   42.2930 C.3       4 GLP5        0.0000 
     65 CA        -12.3086   57.8137   34.1514 C.3       2 GLC5        0.0000 
@<TRIPOS>BOND
@<TRIPOS>SUBSTRUCTURE
     1 SEC2       24 GROUP        1 X    SEC  0     ROOT SEC X 2
     2 GLC5        1 GROUP        1 X    GLC  0     **** GLC X 6
     3 SEP2       26 GROUP        1 Y    SEP  0     ROOT SEP Y 9
     4 GLP5        3 GROUP        1 Y    GLP  0     **** GLP Y 13
     5 SEL2       25 GROUP        1 Z    SEL  0     ROOT SEL Z 16
     6 GLL5        2 GROUP        1 Z    GLL  0     **** GLL Z 20
@<TRIPOS>SET

