#    Name: 1opb_RET_1_ligand
#    Modification time : Mon Mar 24 20:21:43 2014

@<TRIPOS>MOLECULE
1opb_RET_1_ligand
   49    49     1     0     0
SMALL
NO_CHARGES


@<TRIPOS>ATOM
      1 C1        -13.9720   60.2020   36.1770 C.3       1 RET134      0.0000 
      2 C2        -14.1300   61.2730   35.0750 C.3       1 RET134      0.0000 
      3 C3        -13.7230   60.8910   33.7660 C.3       1 RET134      0.0000 
      4 C4        -12.3050   60.4270   33.7280 C.3       1 RET134      0.0000 
      5 C5        -11.9100   59.5430   34.8830 C.2       1 RET134      0.0000 
      6 C6        -12.6620   59.4010   35.9940 C.2       1 RET134      0.0000 
      7 C7        -12.2630   58.5110   37.1470 C.2       1 RET134      0.0000 
      8 C8        -12.4560   57.1950   37.2970 C.2       1 RET134      0.0000 
      9 C9        -12.0510   56.3650   38.4310 C.2       1 RET134      0.0000 
     10 C10       -12.9390   55.4460   38.8920 C.2       1 RET134      0.0000 
     11 C11       -12.7530   54.5450   40.0150 C.2       1 RET134      0.0000 
     12 C12       -13.5920   53.6070   40.4570 C.2       1 RET134      0.0000 
     13 C13       -13.3440   52.7480   41.6190 C.2       1 RET134      0.0000 
     14 C14       -14.4010   52.4460   42.3910 C.2       1 RET134      0.0000 
     15 C15       -14.4100   51.6570   43.6130 C.2       1 RET134      0.0000 
     16 O1        -14.9180   52.1470   44.8510 O.2       1 RET134      0.0000 
     17 C16       -14.0040   60.9570   37.5030 C.3       1 RET134      0.0000 
     18 C17       -15.2220   59.3290   36.1050 C.3       1 RET134      0.0000 
     19 C18       -10.5610   58.9060   34.6100 C.3       1 RET134      0.0000 
     20 C19       -10.5760   56.2220   38.6330 C.3       1 RET134      0.0000 
     21 C20       -11.9380   52.4990   42.0520 C.3       1 RET134      0.0000 
     22 H         -13.5696   62.1797   35.4279 H         1 RET134      0.0000 
     23 H         -15.2066   61.5911   35.0907 H         1 RET134      0.0000 
     24 H         -13.8317   61.7355   33.0527 H         1 RET134      0.0000 
     25 H         -14.3661   60.0762   33.3708 H         1 RET134      0.0000 
     26 H         -11.6301   61.3080   33.7052 H         1 RET134      0.0000 
     27 H         -12.1224   59.8791   32.7800 H         1 RET134      0.0000 
     28 H         -11.7567   59.0696   37.9260 H         1 RET134      0.0000 
     29 H         -12.9620   56.6436   36.5209 H         1 RET134      0.0000 
     30 H         -13.8866   55.3489   38.3984 H         1 RET134      0.0000 
     31 H         -11.8074   54.6852   40.5264 H         1 RET134      0.0000 
     32 H         -14.5164   53.4295   39.9702 H         1 RET134      0.0000 
     33 H         -15.3768   52.8129   42.1058 H         1 RET134      0.0000 
     34 H         -14.0272   50.6971   43.5688 H         1 RET134      0.0000 
     35 H         -13.9099   60.3398   38.2842 H         1 RET134      0.0000 
     36 H         -13.2637   61.6262   37.5673 H         1 RET134      0.0000 
     37 H         -14.8618   61.4562   37.6255 H         1 RET134      0.0000 
     38 H         -15.3186   58.8918   35.2109 H         1 RET134      0.0000 
     39 H         -15.2049   58.5988   36.7880 H         1 RET134      0.0000 
     40 H         -16.0549   59.8592   36.2636 H         1 RET134      0.0000 
     41 H          -9.8451   59.5925   34.4824 H         1 RET134      0.0000 
     42 H         -10.2700   58.3155   35.3627 H         1 RET134      0.0000 
     43 H         -10.5769   58.3421   33.7843 H         1 RET134      0.0000 
     44 H         -10.1307   55.8085   37.8388 H         1 RET134      0.0000 
     45 H         -10.1351   57.1059   38.7891 H         1 RET134      0.0000 
     46 H         -10.3634   55.6451   39.4216 H         1 RET134      0.0000 
     47 H         -11.3999   52.0602   41.3323 H         1 RET134      0.0000 
     48 H         -11.4678   53.3480   42.2932 H         1 RET134      0.0000 
     49 H         -11.8964   51.9029   42.8538 H         1 RET134      0.0000 
@<TRIPOS>BOND
     1    2    1 1    
     2    6    1 1    
     3   17    1 1    
     4   18    1 1    
     5    3    2 1    
     6   22    2 1    
     7   23    2 1    
     8    4    3 1    
     9   24    3 1    
    10   25    3 1    
    11    5    4 1    
    12   26    4 1    
    13   27    4 1    
    14    6    5 2    
    15   19    5 1    
    16    7    6 1    
    17    8    7 2    
    18   28    7 1    
    19    9    8 1    
    20   29    8 1    
    21   10    9 2    
    22   20    9 1    
    23   11   10 1    
    24   30   10 1    
    25   12   11 2    
    26   31   11 1    
    27   13   12 1    
    28   32   12 1    
    29   14   13 2    
    30   21   13 1    
    31   15   14 1    
    32   33   14 1    
    33   16   15 2    
    34   34   15 1    
    35   35   17 1    
    36   36   17 1    
    37   37   17 1    
    38   38   18 1    
    39   39   18 1    
    40   40   18 1    
    41   41   19 1    
    42   42   19 1    
    43   43   19 1    
    44   44   20 1    
    45   45   20 1    
    46   46   20 1    
    47   47   21 1    
    48   48   21 1    
    49   49   21 1    
@<TRIPOS>SUBSTRUCTURE
     1 RET134      1 GROUP   
@<TRIPOS>SET

