#    Name: 2hoc_1CN_1_INTS_M
#    Modification time : Tue Mar 25 16:51:29 2014

@<TRIPOS>MOLECULE
2hoc_1CN_1_INTS_M
   34     0    12     0     0
SMALL
NO_CHARGES


@<TRIPOS>ATOM
      1 N          -3.9740    0.5820   18.4290 N.am      2 SEC2        0.0000 
      2 N          -5.2540    1.0250   17.9420 N.am     10 SEL2        0.0000 
      3 N          -2.6940    0.1390   18.9160 N.am      6 SEP2        0.0000 
      4 O          -4.4615   -1.4010   16.7955 O.2       1 ALC1        0.0000 
      5 O          -5.2880   -0.6130   16.1320 O.2       9 ALL1        0.0000 
      6 O          -3.6350   -2.1890   17.4590 O.2       5 ALP1        0.0000 
      7 Zn         -5.9840   -1.1450   15.6670 Zn        3 ZIC7        0.0000 
      8 Zn         -5.2880   -0.6130   16.1320 Zn       11 ZIL7        0.0000 
      9 Zn         -6.6800   -1.6770   15.2020 Zn        7 ZIP7        0.0000 
     10 N          -2.3190    1.7710   14.9400 N.am      2 SEC2        0.0000 
     11 N          -3.7220    2.3480   15.4350 N.am     10 SEL2        0.0000 
     12 N          -0.9160    1.1940   14.4450 N.am      6 SEP2        0.0000 
     13 CA         -7.8245    3.4795   14.9190 C.3       4 GLC5        0.0000 
     14 CA         -5.9640    3.3760   15.0470 C.3      12 GLL5        0.0000 
     15 CA         -9.6850    3.5830   14.7910 C.3       8 GLP5        0.0000 
     16 CA         -5.1160    4.1460   16.6300 C.3       4 GLC5        0.0000 
     17 CA         -4.2680    4.9160   18.2130 C.3       8 GLP5        0.0000 
     18 Zn         -5.8010    1.8035   14.5545 Zn        3 ZIC7        0.0000 
     19 Zn         -4.9220    5.2840   13.9070 Zn       11 ZIL7        0.0000 
     20 CA         -2.0080   10.8180   15.9905 C.3       4 GLC5        0.0000 
     21 CA         -1.4530    9.1750   14.6500 C.3      12 GLL5        0.0000 
     22 CA         -2.5630   12.4610   17.3310 C.3       8 GLP5        0.0000 
     23 CA          0.2445    8.1035   15.5770 C.3       4 GLC5        0.0000 
     24 CA          1.9420    7.0320   16.5040 C.3       8 GLP5        0.0000 
     25 CA         -4.0445    8.8330   15.7155 C.3       4 GLC5        0.0000 
     26 CA         -2.1650    8.4320   16.8040 C.3      12 GLL5        0.0000 
     27 CA         -5.9240    9.2340   14.6270 C.3       8 GLP5        0.0000 
     28 CA         -0.1115    7.7320   16.6540 C.3       4 GLC5        0.0000 
     29 CA         -3.3175    9.3811   16.8705 C.3       4 GLC5        0.0000 
     30 CA         -4.2300   10.6320   17.7240 C.3       8 GLP5        0.0000 
     31 CA         -2.1570    6.8781   16.8855 C.3       4 GLC5        0.0000 
     32 CA         -1.9090    5.6260   17.7540 C.3       8 GLP5        0.0000 
     33 CA         -0.9730    8.9925   17.3165 C.3       4 GLC5        0.0000 
     34 CA          0.0620    9.3900   18.6920 C.3       8 GLP5        0.0000 
@<TRIPOS>BOND
@<TRIPOS>SUBSTRUCTURE
     1 ALC1        4 GROUP        1 X    ALC  0     ROOT ALC X 1
     2 SEC2        1 GROUP        1 X    SEC  0     **** SEC X 2
     3 ZIC7        7 GROUP        1 X    ZIC  0     **** ZIC X 5
     4 GLC5       13 GROUP        1 X    GLC  0     **** GLC X 6
     5 ALP1        6 GROUP        1 Y    ALP  0     ROOT ALP Y 8
     6 SEP2        3 GROUP        1 Y    SEP  0     **** SEP Y 9
     7 ZIP7        9 GROUP        1 Y    ZIP  0     **** ZIP Y 12
     8 GLP5       15 GROUP        1 Y    GLP  0     **** GLP Y 13
     9 ALL1        5 GROUP        1 Z    ALL  0     ROOT ALL Z 15
    10 SEL2        2 GROUP        1 Z    SEL  0     **** SEL Z 16
    11 ZIL7        8 GROUP        1 Z    ZIL  0     **** ZIL Z 19
    12 GLL5       14 GROUP        1 Z    GLL  0     **** GLL Z 20
@<TRIPOS>SET

