#    Name: 2hoc_1CN_1_ligand
#    Modification time : Tue Mar 25 16:51:29 2014

@<TRIPOS>MOLECULE
2hoc_1CN_1_ligand
   28    29     1     0     0
SMALL
NO_CHARGES


@<TRIPOS>ATOM
      1 S1         -5.7200    0.8180   16.6140 S.o2      1 1CN265      0.0000 
      2 O1         -7.1140    0.9350   16.5620 O.2       1 1CN265      0.0000 
      3 O2         -5.2540    1.0250   17.9420 O.2       1 1CN265      0.0000 
      4 N1         -5.2880   -0.6130   16.1320 N.pl3     1 1CN265      0.0000 
      5 N2         -3.7220    2.3480   15.4350 N.2       1 1CN265      0.0000 
      6 N3         -3.5280    3.4480   14.6020 N.2       1 1CN265      0.0000 
      7 S2         -5.9640    3.3760   15.0470 S.3       1 1CN265      0.0000 
      8 C1         -5.0080    2.0370   15.5080 C.2       1 1CN265      0.0000 
      9 C2         -4.6940    3.9880   14.2070 C.2       1 1CN265      0.0000 
     10 N4         -4.9220    5.2840   13.9070 N.pl3     1 1CN265      0.0000 
     11 S3         -4.4080    6.0460   12.8690 S.o2      1 1CN265      0.0000 
     12 O3         -5.4360    6.7450   12.2210 O.2       1 1CN265      0.0000 
     13 O4         -3.7210    5.1780   11.9160 O.2       1 1CN265      0.0000 
     14 C4         -3.0410    7.3160   14.9540 C.ar      1 1CN265      0.0000 
     15 C8         -2.3750    8.0070   12.6680 C.ar      1 1CN265      0.0000 
     16 C5         -2.2490    8.3410   15.5060 C.ar      1 1CN265      0.0000 
     17 C7         -1.4530    9.1750   14.6500 C.ar      1 1CN265      0.0000 
     18 C6         -1.5770    9.0420   13.2100 C.ar      1 1CN265      0.0000 
     19 C3         -3.1560    7.1570   13.5310 C.ar      1 1CN265      0.0000 
     20 F          -2.1650    8.4320   16.8040 F         1 1CN265      0.0000 
     21 CL         -0.7470    9.9220   12.2730 Cl        1 1CN265      0.0000 
     22 N5         -0.6150   10.1360   15.2440 N.pl3     1 1CN265      0.0000 
     23 H          -4.7637   -1.1581   16.7863 H         1 1CN265      0.0000 
     24 H          -5.6119    5.8240   14.5729 H         1 1CN265      0.0000 
     25 H          -3.5471    6.6683   15.5654 H         1 1CN265      0.0000 
     26 H          -2.4056    7.8519   11.6608 H         1 1CN265      0.0000 
     27 H          -0.0776   10.6993   14.6164 H         1 1CN265      0.0000 
     28 H          -0.6281   10.1739   16.2432 H         1 1CN265      0.0000 
@<TRIPOS>BOND
     1    2    1 2    
     2    3    1 2    
     3    4    1 1    
     4    8    1 1    
     5   23    4 1    
     6    6    5 1    
     7    8    5 2    
     8    9    6 2    
     9    8    7 1    
    10    9    7 1    
    11   10    9 1    
    12   11   10 1    
    13   24   10 1    
    14   12   11 2    
    15   13   11 2    
    16   19   11 1    
    17   16   14 ar   
    18   19   14 ar   
    19   25   14 1    
    20   18   15 ar   
    21   19   15 ar   
    22   26   15 1    
    23   17   16 ar   
    24   20   16 1    
    25   18   17 ar   
    26   22   17 1    
    27   21   18 1    
    28   27   22 1    
    29   28   22 1    
@<TRIPOS>SUBSTRUCTURE
     1 1CN265      1 GROUP   
@<TRIPOS>SET

