#    Name: 4fkx_CDP_3_INTS_M
#    Modification time : Mon Mar 24 20:14:36 2014

@<TRIPOS>MOLECULE
4fkx_CDP_3_INTS_M
   48     0    15     0     0
SMALL
NO_CHARGES


@<TRIPOS>ATOM
      1 NZ          7.0515   43.4030   47.7075 N.4       3 LYC4        0.0000 
      2 NZ          8.4170   43.8930   47.6560 N.4      13 LYL4        0.0000 
      3 NZ          5.4070   41.9460   48.6410 N.4       8 LYP4        0.0000 
      4 Zn          8.5175   44.8970   47.6920 Zn        4 ZIC7        0.0000 
      5 Zn          8.4170   43.8930   47.6560 Zn       14 ZIL7        0.0000 
      6 Zn          8.6180   45.9010   47.7280 Zn        9 ZIP7        0.0000 
      7 N           7.0515   43.4030   47.7075 N.am      2 SEC2        0.0000 
      8 N           8.4170   43.8930   47.6560 N.am     12 SEL2        0.0000 
      9 N           5.6860   42.9130   47.7590 N.am      7 SEP2        0.0000 
     10 NZ          7.6985   41.4740   48.5170 N.4       3 LYC4        0.0000 
     11 NZ          9.0120   41.4750   47.6450 N.4      13 LYL4        0.0000 
     12 N           7.6985   41.4740   48.5170 N.am      2 SEC2        0.0000 
     13 N           9.0120   41.4750   47.6450 N.am     12 SEL2        0.0000 
     14 N           6.3850   41.4730   49.3890 N.am      7 SEP2        0.0000 
     15 N           9.6140   40.4535   48.0685 N.am      2 SEC2        0.0000 
     16 N          10.2160   39.4320   48.4920 N.am      7 SEP2        0.0000 
     17 Zn          9.5915   45.7415   48.0100 Zn        4 ZIC7        0.0000 
     18 Zn         10.5650   45.5820   48.2920 Zn       14 ZIL7        0.0000 
     19 CA         13.0825   46.5665   47.4070 C.3       5 GLC5        0.0000 
     20 CA         12.6930   45.2520   46.3770 C.3      15 GLL5        0.0000 
     21 CA         13.4720   47.8810   48.4370 C.3      10 GLP5        0.0000 
     22 N          12.4250   43.1545   42.8205 N.am      2 SEC2        0.0000 
     23 N          12.0240   42.7630   44.4640 N.am     12 SEL2        0.0000 
     24 N          12.8260   43.5460   41.1770 N.am      7 SEP2        0.0000 
     25 N          12.2165   41.3940   43.8130 N.am      2 SEC2        0.0000 
     26 N          12.4090   40.0250   43.1620 N.am      7 SEP2        0.0000 
     27 CA         15.2985   40.7235   45.2865 C.3       5 GLC5        0.0000 
     28 CA         14.4800   42.4730   44.6610 C.3      15 GLL5        0.0000 
     29 CA         16.1170   38.9740   45.9120 C.3      10 GLP5        0.0000 
     30 O          15.1565   41.2925   43.0810 O.2       1 ALC1        0.0000 
     31 O          14.4180   42.5370   43.2310 O.2      11 ALL1        0.0000 
     32 O          15.8950   40.0480   42.9310 O.2       6 ALP1        0.0000 
     33 CA         16.2880   44.8125   46.5465 C.3       5 GLC5        0.0000 
     34 CA         15.5450   43.4380   45.1550 C.3      15 GLL5        0.0000 
     35 CA         17.0310   46.1870   47.9380 C.3      10 GLP5        0.0000 
     36 CA         15.5080   45.0045   43.7670 C.3       5 GLC5        0.0000 
     37 CA         15.4710   46.5710   42.3790 C.3      10 GLP5        0.0000 
     38 CA         13.9695   41.3480   47.3195 C.3       5 GLC5        0.0000 
     39 CA         15.7290   42.6670   47.4440 C.3      15 GLL5        0.0000 
     40 CA         12.2100   40.0290   47.1950 C.3      10 GLP5        0.0000 
     41 CA         12.2655   46.4282   45.0200 C.3       5 GLC5        0.0000 
     42 CA         13.4890   44.5010   45.3310 C.3      15 GLL5        0.0000 
     43 CA         11.4400   47.9800   44.1860 C.3      10 GLP5        0.0000 
     44 CA         14.2950   46.3603   45.2360 C.3       5 GLC5        0.0000 
     45 CA         15.4990   47.8440   44.6180 C.3      10 GLP5        0.0000 
     46 CA         13.0235   41.3855   46.0757 C.3       5 GLC5        0.0000 
     47 CA         13.1940   43.0110   45.2520 C.3      15 GLL5        0.0000 
     48 CA         16.1025   40.6743   46.9337 C.3       5 GLC5        0.0000 
@<TRIPOS>BOND
@<TRIPOS>SUBSTRUCTURE
     1 ALC1       30 GROUP        1 X    ALC  0     ROOT ALC X 1
     2 SEC2        7 GROUP        1 X    SEC  0     **** SEC X 2
     3 LYC4        1 GROUP        1 X    LYC  0     **** LYC X 4
     4 ZIC7        4 GROUP        1 X    ZIC  0     **** ZIC X 5
     5 GLC5       19 GROUP        1 X    GLC  0     **** GLC X 6
     6 ALP1       32 GROUP        1 Y    ALP  0     ROOT ALP Y 8
     7 SEP2        9 GROUP        1 Y    SEP  0     **** SEP Y 9
     8 LYP4        3 GROUP        1 Y    LYP  0     **** LYP Y 11
     9 ZIP7        6 GROUP        1 Y    ZIP  0     **** ZIP Y 12
    10 GLP5       21 GROUP        1 Y    GLP  0     **** GLP Y 13
    11 ALL1       31 GROUP        1 Z    ALL  0     ROOT ALL Z 15
    12 SEL2        8 GROUP        1 Z    SEL  0     **** SEL Z 16
    13 LYL4        2 GROUP        1 Z    LYL  0     **** LYL Z 18
    14 ZIL7        5 GROUP        1 Z    ZIL  0     **** ZIL Z 19
    15 GLL5       20 GROUP        1 Z    GLL  0     **** GLL Z 20
@<TRIPOS>SET

