#    Name: 4fkx_CDP_3_ligand
#    Modification time : Mon Mar 24 20:14:36 2014

@<TRIPOS>MOLECULE
4fkx_CDP_3_ligand
   37    38     1     0     0
SMALL
NO_CHARGES


@<TRIPOS>ATOM
      1 O3B         8.4170   43.8930   47.6560 O.co2     1 CDP201      0.0000 
      2 PB          9.4110   42.8640   47.1860 P.3       1 CDP201      0.0000 
      3 O1B         9.8050   43.0290   45.7580 O.co2     1 CDP201      0.0000 
      4 O2B         9.0120   41.4750   47.6450 O.co2     1 CDP201      0.0000 
      5 O3A        10.7380   43.0630   48.1050 O.3       1 CDP201      0.0000 
      6 PA         11.4760   44.4150   48.5360 P.3       1 CDP201      0.0000 
      7 O1A        10.5650   45.5820   48.2920 O.co2     1 CDP201      0.0000 
      8 O2A        12.0030   44.2130   49.9290 O.co2     1 CDP201      0.0000 
      9 O5'        12.7670   44.5510   47.6100 O.3       1 CDP201      0.0000 
     10 C5'        12.6930   45.2520   46.3770 C.3       1 CDP201      0.0000 
     11 C4'        13.4890   44.5010   45.3310 C.3       1 CDP201      0.0000 
     12 O4'        14.8590   44.5810   45.6780 O.3       1 CDP201      0.0000 
     13 C3'        13.1940   43.0110   45.2520 C.3       1 CDP201      0.0000 
     14 O3'        12.0240   42.7630   44.4640 O.3       1 CDP201      0.0000 
     15 C2'        14.4800   42.4730   44.6610 C.3       1 CDP201      0.0000 
     16 O2'        14.4180   42.5370   43.2310 O.3       1 CDP201      0.0000 
     17 C1'        15.5450   43.4380   45.1550 C.3       1 CDP201      0.0000 
     18 N1         16.3030   42.8360   46.2470 N.am      1 CDP201      0.0000 
     19 C2         17.6220   42.3980   46.0260 C.2       1 CDP201      0.0000 
     20 O2         18.1280   42.5420   44.9130 O.2       1 CDP201      0.0000 
     21 N3         18.3160   41.8270   47.0250 N.2       1 CDP201      0.0000 
     22 C4         17.7520   41.6760   48.2260 C.2       1 CDP201      0.0000 
     23 N4         18.4630   41.0960   49.2250 N.pl3     1 CDP201      0.0000 
     24 C5         16.4470   42.0820   48.4670 C.2       1 CDP201      0.0000 
     25 C6         15.7290   42.6670   47.4440 C.2       1 CDP201      0.0000 
     26 H          13.1080   46.2631   46.4578 H         1 CDP201      0.0000 
     27 H          11.6607   45.3395   46.0195 H         1 CDP201      0.0000 
     28 H          13.3239   44.9367   44.3648 H         1 CDP201      0.0000 
     29 H          13.1159   42.6543   46.2595 H         1 CDP201      0.0000 
     30 H          14.6717   41.5203   45.0391 H         1 CDP201      0.0000 
     31 H          16.1749   43.7022   44.3472 H         1 CDP201      0.0000 
     32 H          18.0092   41.0428   50.1145 H         1 CDP201      0.0000 
     33 H          19.3781   40.7729   48.9836 H         1 CDP201      0.0000 
     34 H          16.0268   41.9480   49.3905 H         1 CDP201      0.0000 
     35 H          14.7532   42.9669   47.6206 H         1 CDP201      0.0000 
     36 H          11.2556   42.9437   45.0779 H         1 CDP201      0.0000 
     37 H          14.9043   41.7226   42.9143 H         1 CDP201      0.0000 
@<TRIPOS>BOND
     1    2    1 ar   
     2    3    2 ar   
     3    4    2 ar   
     4    5    2 1    
     5    6    5 1    
     6    7    6 ar   
     7    8    6 ar   
     8    9    6 1    
     9   10    9 1    
    10   11   10 1    
    11   26   10 1    
    12   27   10 1    
    13   12   11 1    
    14   13   11 1    
    15   28   11 1    
    16   17   12 1    
    17   14   13 1    
    18   15   13 1    
    19   29   13 1    
    20   36   14 1    
    21   16   15 1    
    22   17   15 1    
    23   30   15 1    
    24   37   16 1    
    25   18   17 1    
    26   31   17 1    
    27   19   18 am   
    28   25   18 1    
    29   20   19 2    
    30   21   19 1    
    31   22   21 2    
    32   23   22 1    
    33   24   22 1    
    34   32   23 1    
    35   33   23 1    
    36   25   24 2    
    37   34   24 1    
    38   35   25 1    
@<TRIPOS>SUBSTRUCTURE
     1 CDP201      1 GROUP   
@<TRIPOS>SET

