#    Name: 3fyw_I2H_1_INTS_M
#    Modification time : Tue Mar 25 06:47:15 2014

@<TRIPOS>MOLECULE
3fyw_I2H_1_INTS_M
   64     0     6     0     0
SMALL
NO_CHARGES


@<TRIPOS>ATOM
      1 O          25.5080   11.3030   38.9435 O.2       1 ALC1        0.0000 
      2 O          26.7000   11.6620   39.6000 O.2       5 ALL1        0.0000 
      3 O          24.3160   10.9440   38.2870 O.2       3 ALP1        0.0000 
      4 O          26.4265   13.0770   39.4900 O.2       1 ALC1        0.0000 
      5 O          26.1530   14.4920   39.3800 O.2       3 ALP1        0.0000 
      6 CA         25.2445    9.9415   40.2955 C.3       2 GLC5        0.0000 
      7 CA         27.2120   10.6890   40.3870 C.3       6 GLL5        0.0000 
      8 CA         23.2770    9.1940   40.2040 C.3       4 GLP5        0.0000 
      9 CA         28.5345    9.0700   39.6695 C.3       2 GLC5        0.0000 
     10 CA         29.8570    7.4510   38.9520 C.3       4 GLP5        0.0000 
     11 CA         25.2620    8.8270   40.6205 C.3       2 GLC5        0.0000 
     12 CA         27.2470    8.4600   41.0370 C.3       6 GLL5        0.0000 
     13 CA         26.2125    7.6585   42.4805 C.3       2 GLC5        0.0000 
     14 CA         25.1780    6.8570   43.9240 C.3       4 GLP5        0.0000 
     15 CA         28.5520    7.9555   39.9945 C.3       2 GLC5        0.0000 
     16 O          27.5360    6.4930   41.9450 O.2       1 ALC1        0.0000 
     17 O          26.7590    7.2030   40.8870 O.2       5 ALL1        0.0000 
     18 O          28.3130    5.7830   43.0030 O.2       3 ALP1        0.0000 
     19 O          27.2550    5.7395   41.1980 O.2       1 ALC1        0.0000 
     20 O          27.7510    4.2760   41.5090 O.2       3 ALP1        0.0000 
     21 CA         28.2910   10.4545   44.0860 C.3       2 GLC5        0.0000 
     22 CA         28.6980    9.9490   42.0950 C.3       6 GLL5        0.0000 
     23 CA         27.8840   10.9600   46.0770 C.3       4 GLP5        0.0000 
     24 CA         29.2775    8.7000   40.5235 C.3       2 GLC5        0.0000 
     25 CA         29.5105   12.5425   39.9415 C.3       2 GLC5        0.0000 
     26 CA         28.7060   12.4090   41.4180 C.3       6 GLL5        0.0000 
     27 CA         30.3150   12.6760   38.4650 C.3       4 GLP5        0.0000 
     28 CA         27.3110   12.9470   41.9480 C.3       2 GLC5        0.0000 
     29 CA         25.9160   13.4850   42.4780 C.3       4 GLP5        0.0000 
     30 CA         28.6980   12.2090   44.8160 C.3       2 GLC5        0.0000 
     31 CA         29.5120   13.4580   43.5550 C.3       6 GLL5        0.0000 
     32 CA         29.8595   12.4245   45.6430 C.3       2 GLC5        0.0000 
     33 CA         30.4950   13.6830   44.5170 C.3       6 GLL5        0.0000 
     34 CA         29.2240   11.1660   46.7690 C.3       4 GLP5        0.0000 
     35 CA         29.3305   15.2360   47.8375 C.3       2 GLC5        0.0000 
     36 CA         29.0170   15.1950   45.7060 C.3       6 GLL5        0.0000 
     37 CA         29.6440   15.2770   49.9690 C.3       4 GLP5        0.0000 
     38 CA         29.1205   13.1805   46.2375 C.3       2 GLC5        0.0000 
     39 CA         30.0500   16.8600   45.8175 C.3       2 GLC5        0.0000 
     40 CA         31.0830   18.5250   45.9290 C.3       4 GLP5        0.0000 
     41 CA         27.7465   15.8410   46.1135 C.3       2 GLC5        0.0000 
     42 CA         26.4760   16.4870   46.5210 C.3       4 GLP5        0.0000 
     43 CA         34.2640   15.3820   44.1220 C.3       2 GLC5        0.0000 
     44 CA         34.0760   13.4200   44.9430 C.3       6 GLL5        0.0000 
     45 CA         34.4520   17.3440   43.3010 C.3       4 GLP5        0.0000 
     46 CA         30.3660   11.3628   44.2290 C.3       2 GLC5        0.0000 
     47 CA         31.0330   12.0480   42.3430 C.3       6 GLL5        0.0000 
     48 CA         30.3250   10.3850   46.0540 C.3       4 GLP5        0.0000 
     49 CA         32.2275   10.2558   42.9728 C.3       2 GLC5        0.0000 
     50 CA         32.0090   12.2790   43.2980 C.3       6 GLL5        0.0000 
     51 CA         32.9340    8.3480   43.1250 C.3       4 GLP5        0.0000 
     52 CA         31.0993   11.5350   44.9477 C.3       2 GLC5        0.0000 
     53 CA         32.0869   14.5765   42.8957 C.3       2 GLC5        0.0000 
     54 CA         31.7380   13.0910   44.3850 C.3       6 GLL5        0.0000 
     55 CA         32.6110   16.3200   41.9170 C.3       4 GLP5        0.0000 
     56 CA         31.6170    9.9343   39.2290 C.3       2 GLC5        0.0000 
     57 CA         32.6240   10.8150   40.9800 C.3       6 GLL5        0.0000 
     58 CA         31.2380    8.8560   37.3810 C.3       4 GLP5        0.0000 
     59 CA         31.1555   11.8443   39.7710 C.3       2 GLC5        0.0000 
     60 CA         32.8997    9.7229   42.3182 C.3       2 GLC5        0.0000 
     61 CA         31.3680   11.2100   41.1740 C.3       6 GLL5        0.0000 
     62 CA         35.6654   13.2440   39.7154 C.3       2 GLC5        0.0000 
     63 CA         35.8400   11.8260   40.5240 C.3       6 GLL5        0.0000 
     64 CA         35.7570   14.3930   38.3650 C.3       4 GLP5        0.0000 
@<TRIPOS>BOND
@<TRIPOS>SUBSTRUCTURE
     1 ALC1        1 GROUP        1 X    ALC  0     ROOT ALC X 1
     2 GLC5        6 GROUP        1 X    GLC  0     **** GLC X 6
     3 ALP1        3 GROUP        1 Y    ALP  0     ROOT ALP Y 8
     4 GLP5        8 GROUP        1 Y    GLP  0     **** GLP Y 13
     5 ALL1        2 GROUP        1 Z    ALL  0     ROOT ALL Z 15
     6 GLL5        7 GROUP        1 Z    GLL  0     **** GLL Z 20
@<TRIPOS>SET

