#    Name: 3fyw_I2H_1_ligand
#    Modification time : Tue Mar 25 06:47:15 2014

@<TRIPOS>MOLECULE
3fyw_I2H_1_ligand
   50    53     1     0     0
SMALL
NO_CHARGES


@<TRIPOS>ATOM
      1 N7         26.7000   11.6620   39.6000 N.pl3     1 I2H300      0.0000 
      2 C6         27.2120   10.6890   40.3870 C.ar      1 I2H300      0.0000 
      3 N5         26.7560    9.4390   40.2700 N.ar      1 I2H300      0.0000 
      4 C3         27.2470    8.4600   41.0370 C.ar      1 I2H300      0.0000 
      5 N4         26.7590    7.2030   40.8870 N.pl3     1 I2H300      0.0000 
      6 N2         28.2080    8.7100   41.9410 N.ar      1 I2H300      0.0000 
      7 C1         28.6980    9.9490   42.0950 C.ar      1 I2H300      0.0000 
      8 C8         28.2040   10.9810   41.3080 C.ar      1 I2H300      0.0000 
      9 C9         28.7060   12.4090   41.4180 C.3       1 I2H300      0.0000 
     10 C10        29.7810   12.6330   42.4650 C.ar      1 I2H300      0.0000 
     11 C21        29.5120   13.4580   43.5550 C.ar      1 I2H300      0.0000 
     12 C18        30.4950   13.6830   44.5170 C.ar      1 I2H300      0.0000 
     13 O19        30.2500   14.4860   45.6020 O.3       1 I2H300      0.0000 
     14 C20        29.0170   15.1950   45.7060 C.3       1 I2H300      0.0000 
     15 C11        31.0330   12.0480   42.3430 C.ar      1 I2H300      0.0000 
     16 C12        32.0090   12.2790   43.2980 C.ar      1 I2H300      0.0000 
     17 O13        33.2460   11.6900   43.1880 O.3       1 I2H300      0.0000 
     18 C15        31.7380   13.0910   44.3850 C.ar      1 I2H300      0.0000 
     19 O16        32.7060   13.3080   45.3290 O.3       1 I2H300      0.0000 
     20 C17        34.0760   13.4200   44.9430 C.3       1 I2H300      0.0000 
     21 C27        31.3680   11.2100   41.1740 C.3       1 I2H300      0.0000 
     22 C28        32.6240   10.8150   40.9800 C.3       1 I2H300      0.0000 
     23 C14        33.7350   11.1830   41.9460 C.3       1 I2H300      0.0000 
     24 C24        34.6100   12.2710   41.3110 C.3       1 I2H300      0.0000 
     25 C26        36.0050   12.4570   41.9040 C.3       1 I2H300      0.0000 
     26 C25        35.8400   11.8260   40.5240 C.3       1 I2H300      0.0000 
     27 H          26.7199   12.5883   39.9763 H         1 I2H300      0.0000 
     28 H          26.3469   11.3690   38.7115 H         1 I2H300      0.0000 
     29 H          26.0096    7.0970   40.2335 H         1 I2H300      0.0000 
     30 H          27.1919    6.4936   41.4432 H         1 I2H300      0.0000 
     31 H          29.4367   10.1560   42.7871 H         1 I2H300      0.0000 
     32 H          27.8465   13.0751   41.6382 H         1 I2H300      0.0000 
     33 H          29.0956   12.7291   40.4298 H         1 I2H300      0.0000 
     34 H          28.5899   13.9002   43.6497 H         1 I2H300      0.0000 
     35 H          30.9509   11.7701   40.2513 H         1 I2H300      0.0000 
     36 H          30.6398   10.3113   41.2079 H         1 I2H300      0.0000 
     37 H          33.0217   11.1350   39.9356 H         1 I2H300      0.0000 
     38 H          32.7017    9.6608   40.8652 H         1 I2H300      0.0000 
     39 H          34.3671   10.3179   42.0957 H         1 I2H300      0.0000 
     40 H          34.3369   13.1089   40.9659 H         1 I2H300      0.0000 
     41 H          36.1473   11.7569   42.5229 H         1 I2H300      0.0000 
     42 H          36.2505   13.3610   41.7771 H         1 I2H300      0.0000 
     43 H          36.0243   12.4938   39.8807 H         1 I2H300      0.0000 
     44 H          35.9212   10.8897   40.6265 H         1 I2H300      0.0000 
     45 H          28.9708   15.7387   46.5440 H         1 I2H300      0.0000 
     46 H          28.8849   15.8247   44.9404 H         1 I2H300      0.0000 
     47 H          28.2320   14.5756   45.7148 H         1 I2H300      0.0000 
     48 H          34.6720   13.5776   45.7304 H         1 I2H300      0.0000 
     49 H          34.4030   12.5910   44.4892 H         1 I2H300      0.0000 
     50 H          34.2222   14.1787   44.3082 H         1 I2H300      0.0000 
@<TRIPOS>BOND
     1    2    1 1    
     2   27    1 1    
     3   28    1 1    
     4    3    2 ar   
     5    8    2 ar   
     6    4    3 ar   
     7    5    4 1    
     8    6    4 ar   
     9   29    5 1    
    10   30    5 1    
    11    7    6 ar   
    12    8    7 ar   
    13   31    7 1    
    14    9    8 1    
    15   10    9 1    
    16   32    9 1    
    17   33    9 1    
    18   11   10 ar   
    19   15   10 ar   
    20   12   11 ar   
    21   34   11 1    
    22   13   12 1    
    23   18   12 ar   
    24   14   13 1    
    25   45   14 1    
    26   46   14 1    
    27   47   14 1    
    28   16   15 ar   
    29   21   15 1    
    30   17   16 1    
    31   18   16 ar   
    32   23   17 1    
    33   19   18 1    
    34   20   19 1    
    35   48   20 1    
    36   49   20 1    
    37   50   20 1    
    38   22   21 1    
    39   35   21 1    
    40   36   21 1    
    41   23   22 1    
    42   37   22 1    
    43   38   22 1    
    44   24   23 1    
    45   39   23 1    
    46   25   24 1    
    47   26   24 1    
    48   40   24 1    
    49   26   25 1    
    50   41   25 1    
    51   42   25 1    
    52   43   26 1    
    53   44   26 1    
@<TRIPOS>SUBSTRUCTURE
     1 I2H300      1 GROUP   
@<TRIPOS>SET

