#    Name: 3adv_SRO_3_INTS_M
#    Modification time : Tue Mar 25 11:47:48 2014

@<TRIPOS>MOLECULE
3adv_SRO_3_INTS_M
   37     0     6     0     0
SMALL
NO_CHARGES


@<TRIPOS>ATOM
      1 CA         38.3505   35.4375   44.5875 C.3       2 GLC5        0.0000 
      2 CA         39.8160   36.1150   43.2380 C.3       6 GLL5        0.0000 
      3 CA         36.8850   34.7600   45.9370 C.3       4 GLP5        0.0000 
      4 CA         42.0140   37.7205   42.4580 C.3       2 GLC5        0.0000 
      5 CA         40.3580   37.3010   43.8070 C.3       6 GLL5        0.0000 
      6 CA         43.6700   38.1400   41.1090 C.3       4 GLP5        0.0000 
      7 CA         40.2320   40.4810   44.2200 C.3       2 GLC5        0.0000 
      8 CA         39.7150   38.5370   43.6270 C.3       6 GLL5        0.0000 
      9 CA         40.7490   42.4250   44.8130 C.3       4 GLP5        0.0000 
     10 CA         34.9310   40.3775   41.5615 C.3       2 GLC5        0.0000 
     11 CA         36.6290   39.1700   41.7680 C.3       6 GLL5        0.0000 
     12 CA         33.2330   41.5850   41.3550 C.3       4 GLP5        0.0000 
     13 CA         39.0260   35.2945   40.6090 C.3       2 GLC5        0.0000 
     14 CA         38.6270   36.1670   42.4850 C.3       6 GLL5        0.0000 
     15 CA         39.4250   34.4220   38.7330 C.3       4 GLP5        0.0000 
     16 CA         36.9380   35.3285   39.7935 C.3       2 GLC5        0.0000 
     17 CA         35.7940   36.9530   40.8150 C.3       6 GLL5        0.0000 
     18 CA         38.0820   33.7040   38.7720 C.3       4 GLP5        0.0000 
     19 CA         33.3920   36.7655   42.7750 C.3       2 GLC5        0.0000 
     20 CA         34.8890   36.1750   41.7780 C.3       6 GLL5        0.0000 
     21 CA         31.8950   37.3560   43.7720 C.3       4 GLP5        0.0000 
     22 CA         35.6030   36.1675   43.7820 C.3       2 GLC5        0.0000 
     23 CA         36.3170   36.1600   45.7860 C.3       4 GLP5        0.0000 
     24 O          34.3770   34.4205   43.0935 O.2       1 ALC1        0.0000 
     25 O          35.3800   34.7940   41.9070 O.2       5 ALL1        0.0000 
     26 O          33.3740   34.0470   44.2800 O.2       3 ALP1        0.0000 
     27 CA         39.7428   38.7058   41.3173 C.3       2 GLC5        0.0000 
     28 CA         38.5140   38.6100   42.8700 C.3       6 GLL5        0.0000 
     29 CA         40.3710   38.8380   39.3860 C.3       4 GLP5        0.0000 
     30 CA         39.3338   37.8152   40.8880 C.3       2 GLC5        0.0000 
     31 CA         37.9660   37.4180   42.2950 C.3       6 GLL5        0.0000 
     32 CA         37.3753   36.6253   44.1599 C.3       2 GLC5        0.0000 
     33 CA         37.1071   38.9529   39.9976 C.3       2 GLC5        0.0000 
     34 CA         36.7440   37.8390   41.5910 C.3       6 GLL5        0.0000 
     35 CA         37.9740   40.1770   38.7480 C.3       4 GLP5        0.0000 
     36 CA         33.7088   36.9725   40.4723 C.3       2 GLC5        0.0000 
     37 CA         32.0760   37.3810   39.6480 C.3       4 GLP5        0.0000 
@<TRIPOS>BOND
@<TRIPOS>SUBSTRUCTURE
     1 ALC1       24 GROUP        1 X    ALC  0     ROOT ALC X 1
     2 GLC5        1 GROUP        1 X    GLC  0     **** GLC X 6
     3 ALP1       26 GROUP        1 Y    ALP  0     ROOT ALP Y 8
     4 GLP5        3 GROUP        1 Y    GLP  0     **** GLP Y 13
     5 ALL1       25 GROUP        1 Z    ALL  0     ROOT ALL Z 15
     6 GLL5        2 GROUP        1 Z    GLL  0     **** GLL Z 20
@<TRIPOS>SET

