#    Name: 3adv_SRO_3_ligand
#    Modification time : Tue Mar 25 11:47:48 2014

@<TRIPOS>MOLECULE
3adv_SRO_3_ligand
   26    27     1     0     0
SMALL
NO_CHARGES


@<TRIPOS>ATOM
      1 OH         40.4470   34.9260   43.4210 O.3       1 SRO4        0.0000 
      2 CZ3        39.8160   36.1150   43.2380 C.ar      1 SRO4        0.0000 
      3 CH2        40.3580   37.3010   43.8070 C.ar      1 SRO4        0.0000 
      4 CZ2        39.7150   38.5370   43.6270 C.ar      1 SRO4        0.0000 
      5 CE2        38.5140   38.6100   42.8700 C.ar      1 SRO4        0.0000 
      6 NE1        37.6710   39.6450   42.5240 N.pl3     1 SRO4        0.0000 
      7 CD1        36.6290   39.1700   41.7680 C.2       1 SRO4        0.0000 
      8 CG         36.7440   37.8390   41.5910 C.2       1 SRO4        0.0000 
      9 CD2        37.9660   37.4180   42.2950 C.ar      1 SRO4        0.0000 
     10 CE3        38.6270   36.1670   42.4850 C.ar      1 SRO4        0.0000 
     11 CB         35.7940   36.9530   40.8150 C.3       1 SRO4        0.0000 
     12 CA         34.8890   36.1750   41.7780 C.3       1 SRO4        0.0000 
     13 NZ         35.3800   34.7940   41.9070 N.4       1 SRO4        0.0000 
     14 H          41.2242   37.2450   44.3508 H         1 SRO4        0.0000 
     15 H          40.1043   39.3870   44.0368 H         1 SRO4        0.0000 
     16 H          37.7986   40.5681   42.7785 H         1 SRO4        0.0000 
     17 H          35.9124   39.7285   41.4147 H         1 SRO4        0.0000 
     18 H          38.2347   35.3233   42.0755 H         1 SRO4        0.0000 
     19 H          36.3594   36.2460   40.2130 H         1 SRO4        0.0000 
     20 H          35.1738   37.5620   40.1620 H         1 SRO4        0.0000 
     21 H          33.8742   36.1902   41.3825 H         1 SRO4        0.0000 
     22 H          34.8988   36.6815   42.7423 H         1 SRO4        0.0000 
     23 H          36.3137   34.7636   42.2637 H         1 SRO4        0.0000 
     24 H          34.8114   34.2541   42.5277 H         1 SRO4        0.0000 
     25 H          35.3867   34.3185   41.0273 H         1 SRO4        0.0000 
     26 H          41.0244   35.5034   43.9984 H         1 SRO4        0.0000 
@<TRIPOS>BOND
     1    2    1 1    
     2   26    1 1    
     3    3    2 ar   
     4   10    2 ar   
     5    4    3 ar   
     6   14    3 1    
     7    5    4 ar   
     8   15    4 1    
     9    6    5 1    
    10    9    5 ar   
    11    7    6 1    
    12   16    6 1    
    13    8    7 2    
    14   17    7 1    
    15    9    8 1    
    16   11    8 1    
    17   10    9 ar   
    18   18   10 1    
    19   12   11 1    
    20   19   11 1    
    21   20   11 1    
    22   13   12 1    
    23   21   12 1    
    24   22   12 1    
    25   23   13 1    
    26   24   13 1    
    27   25   13 1    
@<TRIPOS>SUBSTRUCTURE
     1 SRO4        1 GROUP   
@<TRIPOS>SET

