#    Name: 1rp0_AHZ_2_INTS_M
#    Modification time : Tue Mar 25 01:01:30 2014

@<TRIPOS>MOLECULE
1rp0_AHZ_2_INTS_M
  109     0    15     0     0
SMALL
NO_CHARGES


@<TRIPOS>ATOM
      1 N          73.6020   40.7440   54.7155 N.am      2 SEC2        0.0000 
      2 N          73.9850   41.4840   55.9860 N.am     12 SEL2        0.0000 
      3 N          73.2190   40.0040   53.4450 N.am      7 SEP2        0.0000 
      4 O          73.2120   40.7950   56.7670 O.2       1 ALC1        0.0000 
      5 O          73.9850   41.4840   55.9860 O.2      11 ALL1        0.0000 
      6 O          72.4390   40.1060   57.5480 O.2       6 ALP1        0.0000 
      7 CA         76.6615   41.7535   58.6310 C.3       5 GLC5        0.0000 
      8 CA         75.2950   42.7060   57.6570 C.3      15 GLL5        0.0000 
      9 CA         78.0280   40.8010   59.6050 C.3      10 GLP5        0.0000 
     10 O          73.7855   41.4505   58.9305 O.2       1 ALC1        0.0000 
     11 O          75.0290   41.5830   58.5040 O.2      11 ALL1        0.0000 
     12 O          72.5420   41.3180   59.3570 O.2       6 ALP1        0.0000 
     13 CA         72.4375   44.2655   58.5600 C.3       5 GLC5        0.0000 
     14 CA         73.2020   43.5460   57.0280 C.3      15 GLL5        0.0000 
     15 CA         71.6730   44.9850   60.0920 C.3      10 GLP5        0.0000 
     16 CA         67.3145   46.1210   55.0455 C.3       5 GLC5        0.0000 
     17 CA         69.3310   45.3750   54.5460 C.3      15 GLL5        0.0000 
     18 CA         65.2980   46.8670   55.5450 C.3      10 GLP5        0.0000 
     19 CA         69.7355   47.2525   53.4925 C.3       5 GLC5        0.0000 
     20 CA         70.1400   49.1300   52.4390 C.3      10 GLP5        0.0000 
     21 N          67.0185   44.5950   54.9170 N.am      2 SEC2        0.0000 
     22 N          68.4940   44.5810   55.2220 N.am     12 SEL2        0.0000 
     23 N          65.5430   44.6090   54.6120 N.am      7 SEP2        0.0000 
     24 CA         68.6415   45.4700   56.9590 C.3       5 GLC5        0.0000 
     25 CA         68.8760   43.7190   56.2000 C.3      15 GLL5        0.0000 
     26 CA         68.4070   47.2210   57.7180 C.3      10 GLP5        0.0000 
     27 CA         67.1020   43.5380   57.1985 C.3       5 GLC5        0.0000 
     28 CA         65.3280   43.3570   58.1970 C.3      10 GLP5        0.0000 
     29 CA         69.0025   42.3015   57.5900 C.3       5 GLC5        0.0000 
     30 CA         69.1290   40.8840   58.9800 C.3      10 GLP5        0.0000 
     31 CA         69.2640   42.2580   55.1590 C.3       5 GLC5        0.0000 
     32 CA         69.6520   40.7970   54.1180 C.3      10 GLP5        0.0000 
     33 CA         67.3925   43.0155   55.1265 C.3       5 GLC5        0.0000 
     34 CA         65.9090   42.3120   54.0530 C.3      10 GLP5        0.0000 
     35 O          67.6125   46.4935   53.1855 O.2       1 ALC1        0.0000 
     36 O          68.9020   46.2280   53.5960 O.2      11 ALL1        0.0000 
     37 O          66.3230   46.7590   52.7750 O.2       6 ALP1        0.0000 
     38 O          69.8105   47.0760   52.7525 O.2       1 ALC1        0.0000 
     39 O          70.7190   47.9240   51.9090 O.2       6 ALP1        0.0000 
     40 CA         71.3880   44.6495   57.9875 C.3       5 GLC5        0.0000 
     41 CA         71.1030   44.3140   55.8830 C.3      15 GLL5        0.0000 
     42 N          69.7885   42.0255   56.5805 N.am      2 SEC2        0.0000 
     43 N          70.1450   43.5160   56.5920 N.am     12 SEL2        0.0000 
     44 N          69.4320   40.5350   56.5690 N.am      7 SEP2        0.0000 
     45 CA         73.3490   44.4940   59.2660 C.3       5 GLC5        0.0000 
     46 CA         75.0250   44.0030   58.4400 C.3      15 GLL5        0.0000 
     47 CA         74.9890   46.6365   57.6595 C.3       5 GLC5        0.0000 
     48 CA         76.1330   45.0330   58.3170 C.3      15 GLL5        0.0000 
     49 CA         73.8450   48.2400   57.0020 C.3      10 GLP5        0.0000 
     50 CA         76.8685   46.7695   57.5190 C.3       5 GLC5        0.0000 
     51 CA         77.6040   48.5060   56.7210 C.3      10 GLP5        0.0000 
     52 N          79.9235   42.8360   59.6150 N.am      2 SEC2        0.0000 
     53 N          79.5320   44.1880   59.8380 N.am     12 SEL2        0.0000 
     54 N          80.3150   41.4840   59.3920 N.am      7 SEP2        0.0000 
     55 N          78.0590   46.6645   63.2830 N.am      2 SEC2        0.0000 
     56 N          78.2270   46.5910   61.8100 N.am     12 SEL2        0.0000 
     57 N          77.8910   46.7380   64.7560 N.am      7 SEP2        0.0000 
     58 N          79.1845   50.0190   60.1770 N.am      2 SEC2        0.0000 
     59 N          78.7770   48.6850   60.3960 N.am     12 SEL2        0.0000 
     60 N          79.5920   51.3530   59.9580 N.am      7 SEP2        0.0000 
     61 CA         81.5245   48.4020   61.1435 C.3       5 GLC5        0.0000 
     62 CA         81.5200   47.1840   59.9200 C.3      15 GLL5        0.0000 
     63 CA         81.5290   49.6200   62.3670 C.3      10 GLP5        0.0000 
     64 CA         82.5655   47.4480   61.8565 C.3       5 GLC5        0.0000 
     65 CA         82.8270   46.4020   60.1430 C.3      15 GLL5        0.0000 
     66 CA         82.3040   48.4940   63.5700 C.3      10 GLP5        0.0000 
     67 CA         85.5800   49.4850   59.8455 C.3       5 GLC5        0.0000 
     68 CA         84.9280   47.9710   58.8830 C.3      15 GLL5        0.0000 
     69 CA         86.2320   50.9990   60.8080 C.3      10 GLP5        0.0000 
     70 NZ         87.1005   47.7810   54.2665 N.4       3 LYC4        0.0000 
     71 NZ         86.2190   47.5200   55.2560 N.4      13 LYL4        0.0000 
     72 NZ         88.3140   49.2950   53.0310 N.4       8 LYP4        0.0000 
     73 Zn         85.4095   46.9660   55.0130 Zn        4 ZIC7        0.0000 
     74 Zn         86.2190   47.5200   55.2560 Zn       14 ZIL7        0.0000 
     75 Zn         84.6000   46.4120   54.7700 Zn        9 ZIP7        0.0000 
     76 N          87.1005   47.7810   54.2665 N.am      2 SEC2        0.0000 
     77 N          86.2190   47.5200   55.2560 N.am     12 SEL2        0.0000 
     78 N          87.9820   48.0420   53.2770 N.am      7 SEP2        0.0000 
     79 NZ         87.4790   49.7175   55.2765 N.4       3 LYC4        0.0000 
     80 NZ         86.7810   49.2120   56.5850 N.4      13 LYL4        0.0000 
     81 N          87.4790   49.7175   55.2765 N.am      2 SEC2        0.0000 
     82 N          86.7810   49.2120   56.5850 N.am     12 SEL2        0.0000 
     83 N          88.1770   50.2230   53.9680 N.am      7 SEP2        0.0000 
     84 N          87.9645   49.3850   57.5885 N.am      2 SEC2        0.0000 
     85 N          89.1480   49.5580   58.5920 N.am      7 SEP2        0.0000 
     86 Zn         84.5310   46.5395   55.8075 Zn        4 ZIC7        0.0000 
     87 Zn         84.4620   46.6670   56.8450 Zn       14 ZIL7        0.0000 
     88 CA         83.0900   47.5395   56.2085 C.3       5 GLC5        0.0000 
     89 CA         83.6150   46.1830   57.7910 C.3      15 GLL5        0.0000 
     90 CA         82.5650   48.8960   54.6260 C.3      10 GLP5        0.0000 
     91 CA         82.1945   43.2210   58.3810 C.3       5 GLC5        0.0000 
     92 CA         82.6300   45.0710   57.5260 C.3      15 GLL5        0.0000 
     93 CA         81.7590   41.3710   59.2360 C.3      10 GLP5        0.0000 
     94 CA         72.4660   42.1120   55.4047 C.3       5 GLC5        0.0000 
     95 CA         74.3700   42.7760   56.4370 C.3      15 GLL5        0.0000 
     96 CA         71.1460   41.0630   54.0770 C.3      10 GLP5        0.0000 
     97 CA         71.0400   42.9263   54.7235 C.3       5 GLC5        0.0000 
     98 CA         70.7650   45.2650   54.8570 C.3      15 GLL5        0.0000 
     99 CA         71.2575   44.9135   53.1262 C.3       5 GLC5        0.0000 
    100 CA         72.4670   44.5070   51.5510 C.3      10 GLP5        0.0000 
    101 CA         69.4912   46.0190   56.5051 C.3       5 GLC5        0.0000 
    102 CA         70.9103   46.8065   55.7161 C.3       5 GLC5        0.0000 
    103 CA         71.2450   48.7960   56.1400 C.3      10 GLP5        0.0000 
    104 CA         76.1475   43.9025   60.3662 C.3       5 GLC5        0.0000 
    105 CA         76.7160   43.2870   62.3540 C.3      10 GLP5        0.0000 
    106 CA         82.3407   48.6370   59.3263 C.3       5 GLC5        0.0000 
    107 CA         82.5080   50.4810   58.6210 C.3      10 GLP5        0.0000 
    108 CA         83.4187   48.9248   58.7745 C.3       5 GLC5        0.0000 
    109 CA         83.7310   46.7660   58.9730 C.3      15 GLL5        0.0000 
@<TRIPOS>BOND
@<TRIPOS>SUBSTRUCTURE
     1 ALC1        4 GROUP        1 X    ALC  0     ROOT ALC X 1
     2 SEC2        1 GROUP        1 X    SEC  0     **** SEC X 2
     3 LYC4       70 GROUP        1 X    LYC  0     **** LYC X 4
     4 ZIC7       73 GROUP        1 X    ZIC  0     **** ZIC X 5
     5 GLC5        7 GROUP        1 X    GLC  0     **** GLC X 6
     6 ALP1        6 GROUP        1 Y    ALP  0     ROOT ALP Y 8
     7 SEP2        3 GROUP        1 Y    SEP  0     **** SEP Y 9
     8 LYP4       72 GROUP        1 Y    LYP  0     **** LYP Y 11
     9 ZIP7       75 GROUP        1 Y    ZIP  0     **** ZIP Y 12
    10 GLP5        9 GROUP        1 Y    GLP  0     **** GLP Y 13
    11 ALL1        5 GROUP        1 Z    ALL  0     ROOT ALL Z 15
    12 SEL2        2 GROUP        1 Z    SEL  0     **** SEL Z 16
    13 LYL4       71 GROUP        1 Z    LYL  0     **** LYL Z 18
    14 ZIL7       74 GROUP        1 Z    ZIL  0     **** ZIL Z 19
    15 GLL5        8 GROUP        1 Z    GLL  0     **** GLL Z 20
@<TRIPOS>SET

