#    Name: 1rp0_AHZ_2_ligand
#    Modification time : Tue Mar 25 01:01:30 2014

@<TRIPOS>MOLECULE
1rp0_AHZ_2_ligand
   57    60     1     0     0
SMALL
NO_CHARGES


@<TRIPOS>ATOM
      1 O2'        73.9850   41.4840   55.9860 O.3       1 AHZ601      0.0000 
      2 C2'        74.3700   42.7760   56.4370 C.3       1 AHZ601      0.0000 
      3 C3'        75.2950   42.7060   57.6570 C.3       1 AHZ601      0.0000 
      4 O3'        75.0290   41.5830   58.5040 O.3       1 AHZ601      0.0000 
      5 C1'        73.2020   43.5460   57.0280 C.3       1 AHZ601      0.0000 
      6 N9         72.4090   44.3150   56.0660 N.pl3     1 AHZ601      0.0000 
      7 C8         72.8800   45.2260   55.1850 C.2       1 AHZ601      0.0000 
      8 N7         71.9220   45.8190   54.4470 N.2       1 AHZ601      0.0000 
      9 C5         70.7650   45.2650   54.8570 C.ar      1 AHZ601      0.0000 
     10 C6         69.3310   45.3750   54.5460 C.ar      1 AHZ601      0.0000 
     11 N1         68.4940   44.5810   55.2220 N.ar      1 AHZ601      0.0000 
     12 C2         68.8760   43.7190   56.2000 C.ar      1 AHZ601      0.0000 
     13 N6         68.9020   46.2280   53.5960 N.pl3     1 AHZ601      0.0000 
     14 C4         71.1030   44.3140   55.8830 C.ar      1 AHZ601      0.0000 
     15 N3         70.1450   43.5160   56.5920 N.ar      1 AHZ601      0.0000 
     16 O4'        73.8470   44.5680   57.8190 O.3       1 AHZ601      0.0000 
     17 C4'        75.0250   44.0030   58.4400 C.3       1 AHZ601      0.0000 
     18 C5'        76.1330   45.0330   58.3170 C.3       1 AHZ601      0.0000 
     19 O5'        77.2030   44.5120   59.0860 O.3       1 AHZ601      0.0000 
     20 PA         78.7070   44.9940   58.8550 P.3       1 AHZ601      0.0000 
     21 O2A        79.5320   44.1880   59.8380 O.co2     1 AHZ601      0.0000 
     22 O1A        78.9700   45.0100   57.3640 O.co2     1 AHZ601      0.0000 
     23 O3A        78.7270   46.5600   59.2380 O.3       1 AHZ601      0.0000 
     24 PB         78.9910   47.2170   60.6870 P.3       1 AHZ601      0.0000 
     25 O1B        78.2270   46.5910   61.8100 O.co2     1 AHZ601      0.0000 
     26 O2B        78.7770   48.6850   60.3960 O.co2     1 AHZ601      0.0000 
     27 O3B        80.5580   46.8890   60.9420 O.3       1 AHZ601      0.0000 
     28 C7T        81.5200   47.1840   59.9200 C.3       1 AHZ601      0.0000 
     29 C6T        82.8270   46.4020   60.1430 C.3       1 AHZ601      0.0000 
     30 C5T        83.7310   46.7660   58.9730 C.2       1 AHZ601      0.0000 
     31 S1T        84.9280   47.9710   58.8830 S.3       1 AHZ601      0.0000 
     32 C2T        85.2040   47.5990   57.2830 C.2       1 AHZ601      0.0000 
     33 C1R        86.1470   48.1690   56.3250 C.2       1 AHZ601      0.0000 
     34 O1R        86.2190   47.5200   55.2560 O.co2     1 AHZ601      0.0000 
     35 O2R        86.7810   49.2120   56.5850 O.co2     1 AHZ601      0.0000 
     36 N3T        84.4620   46.6670   56.8450 N.2       1 AHZ601      0.0000 
     37 C4T        83.6150   46.1830   57.7910 C.2       1 AHZ601      0.0000 
     38 C1M        82.6300   45.0710   57.5260 C.3       1 AHZ601      0.0000 
     39 H          74.8356   43.3851   55.7134 H         1 AHZ601      0.0000 
     40 H          76.3069   42.7455   57.3180 H         1 AHZ601      0.0000 
     41 H          72.6206   42.9330   57.6367 H         1 AHZ601      0.0000 
     42 H          73.8541   45.4389   55.0916 H         1 AHZ601      0.0000 
     43 H          68.1011   43.1607   56.6933 H         1 AHZ601      0.0000 
     44 H          69.6109   46.7445   53.1158 H         1 AHZ601      0.0000 
     45 H          67.9128   46.2688   53.4555 H         1 AHZ601      0.0000 
     46 H          74.8375   43.7709   59.4517 H         1 AHZ601      0.0000 
     47 H          75.7667   45.9714   58.7049 H         1 AHZ601      0.0000 
     48 H          76.3875   45.1325   57.2728 H         1 AHZ601      0.0000 
     49 H          81.7755   48.2541   59.9000 H         1 AHZ601      0.0000 
     50 H          81.1440   46.9193   58.9203 H         1 AHZ601      0.0000 
     51 H          82.6187   45.3554   60.1314 H         1 AHZ601      0.0000 
     52 H          83.2736   46.7149   61.0604 H         1 AHZ601      0.0000 
     53 H          82.6808   44.7472   56.5812 H         1 AHZ601      0.0000 
     54 H          82.7947   44.2806   58.1160 H         1 AHZ601      0.0000 
     55 H          81.6873   45.3642   57.6851 H         1 AHZ601      0.0000 
     56 H          73.0940   41.3175   56.4083 H         1 AHZ601      0.0000 
     57 H          74.0531   41.6428   58.7140 H         1 AHZ601      0.0000 
@<TRIPOS>BOND
     1    2    1 1    
     2   56    1 1    
     3    3    2 1    
     4    5    2 1    
     5   39    2 1    
     6    4    3 1    
     7   17    3 1    
     8   40    3 1    
     9   57    4 1    
    10    6    5 1    
    11   16    5 1    
    12   41    5 1    
    13    7    6 1    
    14   14    6 1    
    15    8    7 2    
    16   42    7 1    
    17    9    8 1    
    18   10    9 ar   
    19   14    9 ar   
    20   11   10 ar   
    21   13   10 1    
    22   12   11 ar   
    23   15   12 ar   
    24   43   12 1    
    25   44   13 1    
    26   45   13 1    
    27   15   14 ar   
    28   17   16 1    
    29   18   17 1    
    30   46   17 1    
    31   19   18 1    
    32   47   18 1    
    33   48   18 1    
    34   20   19 1    
    35   21   20 ar   
    36   22   20 ar   
    37   23   20 1    
    38   24   23 1    
    39   25   24 ar   
    40   26   24 ar   
    41   27   24 1    
    42   28   27 1    
    43   29   28 1    
    44   49   28 1    
    45   50   28 1    
    46   30   29 1    
    47   51   29 1    
    48   52   29 1    
    49   31   30 1    
    50   37   30 2    
    51   32   31 1    
    52   33   32 1    
    53   36   32 2    
    54   34   33 ar   
    55   35   33 ar   
    56   37   36 1    
    57   38   37 1    
    58   53   38 1    
    59   54   38 1    
    60   55   38 1    
@<TRIPOS>SUBSTRUCTURE
     1 AHZ601      1 GROUP   
@<TRIPOS>SET

