#    Name: 3k4v_ROC_2_INTS_M
#    Modification time : Mon Mar 24 18:21:00 2014

@<TRIPOS>MOLECULE
3k4v_ROC_2_INTS_M
  107     0     9     0     0
SMALL
NO_CHARGES


@<TRIPOS>ATOM
      1 N           7.6965   12.7300    4.9805 N.am      2 SEC2        0.0000 
      2 N           6.7010   11.9230    4.1520 N.am      8 SEL2        0.0000 
      3 N           8.6920   13.5370    5.8090 N.am      5 SEP2        0.0000 
      4 CA          5.8085    7.0265    0.4165 C.3       3 GLC5        0.0000 
      5 CA          4.0580    7.2420    1.4500 C.3       9 GLL5        0.0000 
      6 CA          7.5590    6.8110   -0.6170 C.3       6 GLP5        0.0000 
      7 CA          4.6860    8.4585   -0.0605 C.3       3 GLC5        0.0000 
      8 CA          5.3140    9.6750   -1.5710 C.3       6 GLP5        0.0000 
      9 O           6.9820   10.1790    1.0855 O.2       1 ALC1        0.0000 
     10 O           6.6670   11.3150    1.9460 O.2       7 ALL1        0.0000 
     11 O           7.2970    9.0430    0.2250 O.2       4 ALP1        0.0000 
     12 CA          7.7585   13.8595    2.8710 C.3       3 GLC5        0.0000 
     13 CA          7.4650   12.4690    1.5330 C.3       9 GLL5        0.0000 
     14 CA          8.0520   15.2500    4.2090 C.3       6 GLP5        0.0000 
     15 CA          9.7700   12.0700   -0.6540 C.3       3 GLC5        0.0000 
     16 CA          8.8400   11.9360    1.1200 C.3       9 GLL5        0.0000 
     17 CA         10.7000   12.2040   -2.4280 C.3       6 GLP5        0.0000 
     18 CA          9.0160   13.7820    2.1925 C.3       3 GLC5        0.0000 
     19 CA          9.1920   15.6280    3.2650 C.3       6 GLP5        0.0000 
     20 CA          9.9645   13.6675    0.5805 C.3       3 GLC5        0.0000 
     21 CA         11.0890   15.3990    0.0410 C.3       6 GLP5        0.0000 
     22 O          10.8100   10.8535    4.0145 O.2       1 ALC1        0.0000 
     23 O           9.9650   12.1090    3.1920 O.2       7 ALL1        0.0000 
     24 O          11.6550    9.5980    4.8370 O.2       4 ALP1        0.0000 
     25 N           4.9380   18.3175    1.6045 N.am      2 SEC2        0.0000 
     26 N           5.5470   17.1420    1.0230 N.am      8 SEL2        0.0000 
     27 N           4.3290   19.4930    2.1860 N.am      5 SEP2        0.0000 
     28 O           6.3005   18.0520    1.5375 O.2       1 ALC1        0.0000 
     29 O           5.5470   17.1420    1.0230 O.2       7 ALL1        0.0000 
     30 O           7.0540   18.9620    2.0520 O.2       4 ALP1        0.0000 
     31 O           7.0085   17.5605    0.8415 O.2       1 ALC1        0.0000 
     32 O           8.4700   17.9790    0.6600 O.2       4 ALP1        0.0000 
     33 O           5.6740   14.6560    2.3155 O.2       1 ALC1        0.0000 
     34 O           6.0090   14.2520    0.7930 O.2       7 ALL1        0.0000 
     35 O           5.3390   15.0600    3.8380 O.2       4 ALP1        0.0000 
     36 CA          0.8625   11.6830    3.0850 C.3       3 GLC5        0.0000 
     37 CA          2.7510   12.1570    2.5380 C.3       9 GLL5        0.0000 
     38 CA         -1.0260   11.2090    3.6320 C.3       6 GLP5        0.0000 
     39 CA          1.0775   10.5865    2.9660 C.3       3 GLC5        0.0000 
     40 CA          2.4370   11.1310    1.6460 C.3       9 GLL5        0.0000 
     41 CA         -0.2820   10.0420    4.2860 C.3       6 GLP5        0.0000 
     42 CA          3.9965   18.9420   -1.6740 C.3       3 GLC5        0.0000 
     43 CA          5.1240   17.1950   -1.3820 C.3       9 GLL5        0.0000 
     44 CA          2.8690   20.6890   -1.9660 C.3       6 GLP5        0.0000 
     45 CA          5.6320   15.1380   -5.8055 C.3       3 GLC5        0.0000 
     46 CA          6.1790   16.8290   -5.0180 C.3       9 GLL5        0.0000 
     47 CA          5.0850   13.4470   -6.5930 C.3       6 GLP5        0.0000 
     48 CA          9.8435   18.3420   -6.8925 C.3       3 GLC5        0.0000 
     49 CA          8.3490   17.2370   -6.2710 C.3       9 GLL5        0.0000 
     50 CA         11.3380   19.4470   -7.5140 C.3       6 GLP5        0.0000 
     51 CA          8.6560   13.8440   -5.8170 C.3       3 GLC5        0.0000 
     52 CA          9.0310   15.8590   -6.1530 C.3       9 GLL5        0.0000 
     53 CA          8.2810   11.8290   -5.4810 C.3       6 GLP5        0.0000 
     54 CA          9.9490   13.6655   -4.3045 C.3       3 GLC5        0.0000 
     55 CA          9.6080   15.5510   -4.7720 C.3       9 GLL5        0.0000 
     56 CA         10.2900   11.7800   -3.8370 C.3       6 GLP5        0.0000 
     57 CA          8.7110   13.7825   -3.8265 C.3       3 GLC5        0.0000 
     58 CA          8.6530   15.8710   -3.6270 C.3       9 GLL5        0.0000 
     59 CA          8.7690   11.6940   -4.0260 C.3       6 GLP5        0.0000 
     60 CA         -0.7170   19.3065   -5.2840 C.3       3 GLC5        0.0000 
     61 CA          0.6180   17.9210   -4.8180 C.3       9 GLL5        0.0000 
     62 CA         -2.0520   20.6920   -5.7500 C.3       6 GLP5        0.0000 
     63 CA         -0.5340   16.5695   -6.0580 C.3       3 GLC5        0.0000 
     64 CA         -1.6860   15.2180   -7.2980 C.3       6 GLP5        0.0000 
     65 CA         -0.1315   15.4295   -6.3570 C.3       3 GLC5        0.0000 
     66 CA          1.4230   15.6410   -5.4160 C.3       9 GLL5        0.0000 
     67 CA          3.2540   14.5440   -6.0045 C.3       3 GLC5        0.0000 
     68 CA         -0.9500   16.2965   -3.5690 C.3       3 GLC5        0.0000 
     69 CA          0.9260   16.2380   -3.0180 C.3       9 GLL5        0.0000 
     70 CA         -2.8260   16.3550   -4.1200 C.3       6 GLP5        0.0000 
     71 CA          0.3955   15.3510   -1.5385 C.3       3 GLC5        0.0000 
     72 CA         -0.1350   14.4640   -0.0590 C.3       6 GLP5        0.0000 
     73 CA          1.0032    6.7397    2.3223 C.3       3 GLC5        0.0000 
     74 CA          2.6450    6.8300    3.8420 C.3       9 GLL5        0.0000 
     75 CA         -0.5660    7.0920    1.3390 C.3       6 GLP5        0.0000 
     76 CA          1.4259    8.8133    4.1653 C.3       3 GLC5        0.0000 
     77 CA          2.1005    7.6594    1.2188 C.3       3 GLC5        0.0000 
     78 CA          3.1840    6.1750    1.5740 C.3       9 GLL5        0.0000 
     79 CA          0.2760    7.9000    0.4180 C.3       6 GLP5        0.0000 
     80 CA          1.2692   13.2455   -0.0038 C.3       3 GLC5        0.0000 
     81 CA          2.8970   12.6470   -0.1820 C.3       9 GLL5        0.0000 
     82 CA          3.9938   10.8510   -0.7597 C.3       3 GLC5        0.0000 
     83 CA          1.7138   11.8800   -1.6227 C.3       3 GLC5        0.0000 
     84 CA          2.4500   11.4070    0.2850 C.3       9 GLL5        0.0000 
     85 CA          0.7540   11.7330   -3.2970 C.3       6 GLP5        0.0000 
     86 CA          2.3828   13.9725    3.6545 C.3       3 GLC5        0.0000 
     87 CA          3.1160   13.4270    2.0800 C.3       9 GLL5        0.0000 
     88 CA          1.8320   15.1530    5.0000 C.3       6 GLP5        0.0000 
     89 CA          1.5809   14.1757    0.6134 C.3       3 GLC5        0.0000 
     90 CA          1.3598    9.5845    0.6917 C.3       3 GLC5        0.0000 
     91 CA         10.3727   14.7940   -6.6728 C.3       3 GLC5        0.0000 
     92 CA         11.4260   13.8830   -7.8830 C.3       6 GLP5        0.0000 
     93 CA         10.6247   17.3475   -5.8268 C.3       3 GLC5        0.0000 
     94 CA         11.9300   18.9900   -6.1910 C.3       6 GLP5        0.0000 
     95 CA         10.2787   16.8160   -2.8928 C.3       3 GLC5        0.0000 
     96 CA         11.4270   17.9210   -1.5860 C.3       6 GLP5        0.0000 
     97 CA          8.4845   19.4657   -2.8070 C.3       3 GLC5        0.0000 
     98 CA          8.2000   17.3470   -3.6970 C.3       9 GLL5        0.0000 
     99 CA          9.1780   21.4290   -2.5490 C.3       6 GLP5        0.0000 
    100 CA          9.6090   17.7118   -2.3255 C.3       3 GLC5        0.0000 
    101 CA          7.3820   17.6580   -2.4330 C.3       9 GLL5        0.0000 
    102 CA         -0.7978   16.4198   -4.5600 C.3       3 GLC5        0.0000 
    103 CA          1.3730   18.3495   -2.5370 C.3       3 GLC5        0.0000 
    104 CA          1.4580   16.7350   -4.3500 C.3       9 GLL5        0.0000 
    105 CA          1.7640   19.9160   -1.2730 C.3       6 GLP5        0.0000 
    106 CA          0.6216   14.6395   -3.7058 C.3       3 GLC5        0.0000 
    107 CA          0.0600   13.0660   -3.4610 C.3       6 GLP5        0.0000 
@<TRIPOS>BOND
@<TRIPOS>SUBSTRUCTURE
     1 ALC1        9 GROUP        1 X    ALC  0     ROOT ALC X 1
     2 SEC2        1 GROUP        1 X    SEC  0     **** SEC X 2
     3 GLC5        4 GROUP        1 X    GLC  0     **** GLC X 6
     4 ALP1       11 GROUP        1 Y    ALP  0     ROOT ALP Y 8
     5 SEP2        3 GROUP        1 Y    SEP  0     **** SEP Y 9
     6 GLP5        6 GROUP        1 Y    GLP  0     **** GLP Y 13
     7 ALL1       10 GROUP        1 Z    ALL  0     ROOT ALL Z 15
     8 SEL2        2 GROUP        1 Z    SEL  0     **** SEL Z 16
     9 GLL5        5 GROUP        1 Z    GLL  0     **** GLL Z 20
@<TRIPOS>SET

