#    Name: 3k4v_ROC_2_ligand
#    Modification time : Mon Mar 24 18:21:00 2014

@<TRIPOS>MOLECULE
3k4v_ROC_2_ligand
  100   104     1     0     0
SMALL
NO_CHARGES


@<TRIPOS>ATOM
      1 C           6.2230   11.1570    3.2110 C.2       1 ROC201      0.0000 
      2 O           6.7010   11.9230    4.1520 O.2       1 ROC201      0.0000 
      3 N1          5.0840    9.1740    2.3860 N.ar      1 ROC201      0.0000 
      4 C2          5.2730   10.0200    3.4330 C.ar      1 ROC201      0.0000 
      5 C3          4.6380    9.7970    4.6530 C.ar      1 ROC201      0.0000 
      6 C4          3.7090    8.7750    4.7810 C.ar      1 ROC201      0.0000 
      7 C5          2.6450    6.8300    3.8420 C.ar      1 ROC201      0.0000 
      8 C6          2.5000    5.9450    2.7690 C.ar      1 ROC201      0.0000 
      9 C7          3.1840    6.1750    1.5740 C.ar      1 ROC201      0.0000 
     10 C8          4.0580    7.2420    1.4500 C.ar      1 ROC201      0.0000 
     11 C4A         3.5360    7.9030    3.7130 C.ar      1 ROC201      0.0000 
     12 C8A         4.2290    8.1290    2.5270 C.ar      1 ROC201      0.0000 
     13 N           6.6670   11.3150    1.9460 N.am      1 ROC201      0.0000 
     14 CA          7.4650   12.4690    1.5330 C.3       1 ROC201      0.0000 
     15 C1          6.7100   13.1490    0.4200 C.2       1 ROC201      0.0000 
     16 O1          6.6710   12.7960   -0.8190 O.2       1 ROC201      0.0000 
     17 CB          8.8400   11.9360    1.1200 C.3       1 ROC201      0.0000 
     18 CG          9.5110   11.3150    2.3380 C.2       1 ROC201      0.0000 
     19 OD1         9.5690   10.0870    2.4620 O.2       1 ROC201      0.0000 
     20 ND2         9.9650   12.1090    3.1920 N.am      1 ROC201      0.0000 
     21 C9          5.8000   16.4370   -0.2150 C.3       1 ROC201      0.0000 
     22 O2          5.5470   17.1420    1.0230 O.3       1 ROC201      0.0000 
     23 CA1         5.2090   15.0200   -0.1580 C.3       1 ROC201      0.0000 
     24 N2          6.0090   14.2520    0.7930 N.am      1 ROC201      0.0000 
     25 CB1         3.7110   15.0430    0.2690 C.3       1 ROC201      0.0000 
     26 CG1         3.2440   13.6530    0.7140 C.ar      1 ROC201      0.0000 
     27 CD1         2.8970   12.6470   -0.1820 C.ar      1 ROC201      0.0000 
     28 CD2         3.1160   13.4270    2.0800 C.ar      1 ROC201      0.0000 
     29 CE1         2.4500   11.4070    0.2850 C.ar      1 ROC201      0.0000 
     30 CE2         2.7510   12.1570    2.5380 C.ar      1 ROC201      0.0000 
     31 CZ          2.4370   11.1310    1.6460 C.ar      1 ROC201      0.0000 
     32 N11         5.9520   17.3520   -2.5690 N.4       1 ROC201      0.0000 
     33 CM          5.1240   17.1950   -1.3820 C.3       1 ROC201      0.0000 
     34 C21         5.2590   17.2930   -3.8830 C.3       1 ROC201      0.0000 
     35 CC          3.9600   16.5000   -3.8610 C.2       1 ROC201      0.0000 
     36 O3          3.9060   15.3380   -3.5360 O.2       1 ROC201      0.0000 
     37 C31         6.1790   16.8290   -5.0180 C.3       1 ROC201      0.0000 
     38 C3A         7.4980   17.6080   -5.0270 C.3       1 ROC201      0.0000 
     39 C41         8.3490   17.2370   -6.2710 C.3       1 ROC201      0.0000 
     40 C51         9.0310   15.8590   -6.1530 C.3       1 ROC201      0.0000 
     41 C61         9.6080   15.5510   -4.7720 C.3       1 ROC201      0.0000 
     42 C71         8.6530   15.8710   -3.6270 C.3       1 ROC201      0.0000 
     43 C7A         8.2000   17.3470   -3.6970 C.3       1 ROC201      0.0000 
     44 C81         7.3820   17.6580   -2.4330 C.3       1 ROC201      0.0000 
     45 N3          2.8400   17.1930   -4.1910 N.am      1 ROC201      0.0000 
     46 CD          1.4580   16.7350   -4.3500 C.3       1 ROC201      0.0000 
     47 C11         0.6180   17.9210   -4.8180 C.3       1 ROC201      0.0000 
     48 C22         1.4230   15.6410   -5.4160 C.3       1 ROC201      0.0000 
     49 C32         0.9260   16.2380   -3.0180 C.3       1 ROC201      0.0000 
     50 H           4.8613   10.3951    5.4616 H         1 ROC201      0.0000 
     51 H           3.1671    8.6655    5.6352 H         1 ROC201      0.0000 
     52 H           2.1149    6.6982    4.6988 H         1 ROC201      0.0000 
     53 H           1.8891    5.1248    2.8613 H         1 ROC201      0.0000 
     54 H           3.0327    5.5375    0.7737 H         1 ROC201      0.0000 
     55 H           4.5812    7.3921    0.5825 H         1 ROC201      0.0000 
     56 H           6.4589   10.6160    1.2023 H         1 ROC201      0.0000 
     57 H           7.5798   13.1372    2.3595 H         1 ROC201      0.0000 
     58 H           9.4430   12.7526    0.7504 H         1 ROC201      0.0000 
     59 H           8.7162   11.1863    0.3522 H         1 ROC201      0.0000 
     60 H           9.8311   13.0819    3.0034 H         1 ROC201      0.0000 
     61 H          10.4182   11.6945    3.9812 H         1 ROC201      0.0000 
     62 H           6.8430   16.3646   -0.4279 H         1 ROC201      0.0000 
     63 H           5.2769   14.5878   -1.1403 H         1 ROC201      0.0000 
     64 H           6.0143   14.5938    1.7724 H         1 ROC201      0.0000 
     65 H           3.1150   15.3744   -0.5762 H         1 ROC201      0.0000 
     66 H           3.5953   15.7461    1.0885 H         1 ROC201      0.0000 
     67 H           2.9686   12.8132   -1.1956 H         1 ROC201      0.0000 
     68 H           3.2870   14.1829    2.7491 H         1 ROC201      0.0000 
     69 H           2.1291   10.6963   -0.3884 H         1 ROC201      0.0000 
     70 H           2.7136   11.9766    3.5556 H         1 ROC201      0.0000 
     71 H           2.2039   10.2013    1.9885 H         1 ROC201      0.0000 
     72 H           6.2050   15.9552   -2.6081 H         1 ROC201      0.0000 
     73 H           4.8047   18.1857   -0.9895 H         1 ROC201      0.0000 
     74 H           4.1837   16.6528   -1.6255 H         1 ROC201      0.0000 
     75 H           4.9669   18.3543   -4.1535 H         1 ROC201      0.0000 
     76 H           5.6707   16.9741   -5.9722 H         1 ROC201      0.0000 
     77 H           6.3914   15.7663   -4.8943 H         1 ROC201      0.0000 
     78 H           7.2498   18.6665   -5.0823 H         1 ROC201      0.0000 
     79 H           9.1167   18.0050   -6.4121 H         1 ROC201      0.0000 
     80 H           7.7002   17.2405   -7.1531 H         1 ROC201      0.0000 
     81 H           9.8394   15.8027   -6.9022 H         1 ROC201      0.0000 
     82 H           8.2955   15.0801   -6.4183 H         1 ROC201      0.0000 
     83 H          10.5365   16.1268   -4.6367 H         1 ROC201      0.0000 
     84 H           9.8773   14.4845   -4.7275 H         1 ROC201      0.0000 
     85 H           9.1518   15.7023   -2.6776 H         1 ROC201      0.0000 
     86 H           7.7775   15.2324   -3.6926 H         1 ROC201      0.0000 
     87 H           9.1193   17.9482   -3.6606 H         1 ROC201      0.0000 
     88 H           7.8230   17.0848   -1.5957 H         1 ROC201      0.0000 
     89 H           7.5280   18.7276   -2.1908 H         1 ROC201      0.0000 
     90 H           2.9492   18.2684   -4.3749 H         1 ROC201      0.0000 
     91 H           0.6354   18.6719   -4.1578 H         1 ROC201      0.0000 
     92 H           0.9462   18.2882   -5.6883 H         1 ROC201      0.0000 
     93 H          -0.3406   17.6683   -4.9494 H         1 ROC201      0.0000 
     94 H           1.7502   15.9737   -6.3005 H         1 ROC201      0.0000 
     95 H           1.9961   14.8605   -5.1662 H         1 ROC201      0.0000 
     96 H           0.4972   15.2910   -5.5587 H         1 ROC201      0.0000 
     97 H           1.4661   15.4745   -2.6639 H         1 ROC201      0.0000 
     98 H           0.9406   16.9552   -2.3213 H         1 ROC201      0.0000 
     99 H          -0.0191   15.9195   -3.0911 H         1 ROC201      0.0000 
    100 H           6.4071   17.6046    1.2377 H         1 ROC201      0.0000 
@<TRIPOS>BOND
     1    2    1 2    
     2    4    1 1    
     3   13    1 am   
     4    4    3 ar   
     5   12    3 ar   
     6    5    4 ar   
     7    6    5 ar   
     8   50    5 1    
     9   11    6 ar   
    10   51    6 1    
    11    8    7 ar   
    12   11    7 ar   
    13   52    7 1    
    14    9    8 ar   
    15   53    8 1    
    16   10    9 ar   
    17   54    9 1    
    18   12   10 ar   
    19   55   10 1    
    20   12   11 ar   
    21   14   13 1    
    22   56   13 1    
    23   15   14 1    
    24   17   14 1    
    25   57   14 1    
    26   16   15 2    
    27   24   15 am   
    28   18   17 1    
    29   58   17 1    
    30   59   17 1    
    31   19   18 2    
    32   20   18 am   
    33   60   20 1    
    34   61   20 1    
    35   22   21 1    
    36   23   21 1    
    37   33   21 1    
    38   62   21 1    
    39  100   22 1    
    40   24   23 1    
    41   25   23 1    
    42   63   23 1    
    43   64   24 1    
    44   26   25 1    
    45   65   25 1    
    46   66   25 1    
    47   27   26 ar   
    48   28   26 ar   
    49   29   27 ar   
    50   67   27 1    
    51   30   28 ar   
    52   68   28 1    
    53   31   29 ar   
    54   69   29 1    
    55   31   30 ar   
    56   70   30 1    
    57   71   31 1    
    58   33   32 1    
    59   34   32 1    
    60   44   32 1    
    61   72   32 1    
    62   73   33 1    
    63   74   33 1    
    64   35   34 1    
    65   37   34 1    
    66   75   34 1    
    67   36   35 2    
    68   45   35 am   
    69   38   37 1    
    70   76   37 1    
    71   77   37 1    
    72   39   38 1    
    73   43   38 1    
    74   78   38 1    
    75   40   39 1    
    76   79   39 1    
    77   80   39 1    
    78   41   40 1    
    79   81   40 1    
    80   82   40 1    
    81   42   41 1    
    82   83   41 1    
    83   84   41 1    
    84   43   42 1    
    85   85   42 1    
    86   86   42 1    
    87   44   43 1    
    88   87   43 1    
    89   88   44 1    
    90   89   44 1    
    91   46   45 1    
    92   90   45 1    
    93   47   46 1    
    94   48   46 1    
    95   49   46 1    
    96   91   47 1    
    97   92   47 1    
    98   93   47 1    
    99   94   48 1    
   100   95   48 1    
   101   96   48 1    
   102   97   49 1    
   103   98   49 1    
   104   99   49 1    
@<TRIPOS>SUBSTRUCTURE
     1 ROC201      1 GROUP   
@<TRIPOS>SET

