#    Name: 2oxd_K32_1_INTS_M
#    Modification time : Mon Mar 24 17:57:29 2014

@<TRIPOS>MOLECULE
2oxd_K32_1_INTS_M
   47     0     3     0     0
SMALL
NO_CHARGES


@<TRIPOS>ATOM
      1 CA         18.6890    6.9855   22.8385 C.3       1 GLC5        0.0000 
      2 CA         20.8110    6.8790   22.6790 C.3       3 GLL5        0.0000 
      3 CA         16.5670    7.0920   22.9980 C.3       2 GLP5        0.0000 
      4 CA         20.8525   10.4615   21.4345 C.3       1 GLC5        0.0000 
      5 CA         19.3420    9.4560   21.2260 C.3       3 GLL5        0.0000 
      6 CA         22.3630   11.4670   21.6430 C.3       2 GLP5        0.0000 
      7 CA         17.7960   10.2060   20.5825 C.3       1 GLC5        0.0000 
      8 CA         16.2500   10.9560   19.9390 C.3       2 GLP5        0.0000 
      9 CA         17.9545    8.2740   22.1120 C.3       1 GLC5        0.0000 
     10 CA         23.3380    9.8560   17.9085 C.3       1 GLC5        0.0000 
     11 CA         22.5890    8.5760   16.6590 C.3       3 GLL5        0.0000 
     12 CA         24.0870   11.1360   19.1580 C.3       2 GLP5        0.0000 
     13 CA         21.2930    9.6830   15.2885 C.3       1 GLC5        0.0000 
     14 CA         19.9970   10.7900   13.9180 C.3       2 GLP5        0.0000 
     15 CA         23.6955    9.8645   15.9920 C.3       1 GLC5        0.0000 
     16 CA         24.8020   11.1530   15.3250 C.3       2 GLP5        0.0000 
     17 CA         20.9550    7.8685   16.0015 C.3       1 GLC5        0.0000 
     18 CA         19.3210    7.1610   15.3440 C.3       2 GLP5        0.0000 
     19 CA         20.0805   10.5865   16.0295 C.3       1 GLC5        0.0000 
     20 CA         20.1640   10.3830   18.1410 C.3       3 GLL5        0.0000 
     21 CA         18.2490   10.8615   18.3065 C.3       1 GLC5        0.0000 
     22 CA         16.3340   11.3400   18.4720 C.3       2 GLP5        0.0000 
     23 CA         19.0850    8.4870   18.3845 C.3       1 GLC5        0.0000 
     24 CA         18.0060    6.5910   18.6280 C.3       2 GLP5        0.0000 
     25 CA         22.6093    7.8810   22.8837 C.3       1 GLC5        0.0000 
     26 CA         21.2880    7.4110   20.9220 C.3       3 GLL5        0.0000 
     27 CA         24.1690    8.6170   23.9670 C.3       2 GLP5        0.0000 
     28 CA         19.7912    6.5245   21.0008 C.3       1 GLC5        0.0000 
     29 CA         18.5330    5.9040   20.2010 C.3       2 GLP5        0.0000 
     30 CA         23.7115    7.6000   20.6767 C.3       1 GLC5        0.0000 
     31 CA         25.6480    8.1570   20.7560 C.3       2 GLP5        0.0000 
     32 CA         21.6725    9.7115   21.1268 C.3       1 GLC5        0.0000 
     33 CA         19.2710    7.4413   20.4817 C.3       1 GLC5        0.0000 
     34 CA         20.6760    8.5010   20.2990 C.3       3 GLL5        0.0000 
     35 CA         20.4935    6.3810   19.9133 C.3       1 GLC5        0.0000 
     36 CA         22.2620    6.6750   20.2730 C.3       3 GLL5        0.0000 
     37 CA         23.9902    7.8715   19.7172 C.3       1 GLC5        0.0000 
     38 CA         22.6460    7.0410   18.9780 C.3       3 GLL5        0.0000 
     39 CA         23.2097    9.3610   18.9183 C.3       1 GLC5        0.0000 
     40 CA         19.7640    7.5498   18.6605 C.3       1 GLC5        0.0000 
     41 CA         22.0190    8.1310   18.3790 C.3       3 GLL5        0.0000 
     42 CA         21.5467    6.2038   18.0366 C.3       1 GLC5        0.0000 
     43 CA         20.8570    4.9130   17.0710 C.3       2 GLP5        0.0000 
     44 CA         21.3308   10.8622   19.4305 C.3       1 GLC5        0.0000 
     45 CA         21.0250    8.8860   19.0070 C.3       3 GLL5        0.0000 
     46 CA         22.0670   12.0900   20.2870 C.3       2 GLP5        0.0000 
     47 CA         19.9578    8.3977   16.9590 C.3       1 GLC5        0.0000 
@<TRIPOS>BOND
@<TRIPOS>SUBSTRUCTURE
     1 GLC5        1 GROUP        1 X    GLC  0     ROOT GLC X 6
     2 GLP5        3 GROUP        1 Y    GLP  0     ROOT GLP Y 13
     3 GLL5        2 GROUP        1 Z    GLL  0     ROOT GLL Z 20
@<TRIPOS>SET

