#    Name: 2oxd_K32_1_ligand
#    Modification time : Mon Mar 24 17:57:29 2014

@<TRIPOS>MOLECULE
2oxd_K32_1_ligand
   16    17     1     0     0
SMALL
NO_CHARGES


@<TRIPOS>ATOM
      1 BR1        20.8110    6.8790   22.6790 Br        1 K32338      0.0000 
      2 C5         21.2880    7.4110   20.9220 C.ar      1 K32338      0.0000 
      3 C2         20.6760    8.5010   20.2990 C.ar      1 K32338      0.0000 
      4 BR2        19.3420    9.4560   21.2260 Br        1 K32338      0.0000 
      5 C7         22.2620    6.6750   20.2730 C.ar      1 K32338      0.0000 
      6 N14        22.9720    5.6030   20.6600 N.am      1 K32338      0.0000 
      7 C13        23.7530    5.3520   19.6020 C.2       1 K32338      0.0000 
      8 O10        24.5850    4.3650   19.6250 O.2       1 K32338      0.0000 
      9 N6         23.6080    6.1890   18.5520 N.am      1 K32338      0.0000 
     10 C8         22.6460    7.0410   18.9780 C.ar      1 K32338      0.0000 
     11 C4         22.0190    8.1310   18.3790 C.ar      1 K32338      0.0000 
     12 BR3        22.5890    8.5760   16.6590 Br        1 K32338      0.0000 
     13 C3         21.0250    8.8860   19.0070 C.ar      1 K32338      0.0000 
     14 BR4        20.1640   10.3830   18.1410 Br        1 K32338      0.0000 
     15 H          22.9292    5.1429   21.4755 H         1 K32338      0.0000 
     16 H          24.0564    6.1833   17.7379 H         1 K32338      0.0000 
@<TRIPOS>BOND
     1    2    1 1    
     2    3    2 ar   
     3    5    2 ar   
     4    4    3 1    
     5   13    3 ar   
     6    6    5 1    
     7   10    5 ar   
     8    7    6 am   
     9   15    6 1    
    10    8    7 2    
    11    9    7 am   
    12   10    9 1    
    13   16    9 1    
    14   11   10 ar   
    15   12   11 1    
    16   13   11 ar   
    17   14   13 1    
@<TRIPOS>SUBSTRUCTURE
     1 K32338      1 GROUP   
@<TRIPOS>SET

