#    Name: 3KWF_1_CAVITY_N1_6.mol2
#    Modification time : Tue Mar 11 09:50:05 2014

@<TRIPOS>MOLECULE
3KWF_1_CAVITY_N1_6.mol2
   75     0     7     0     0
SMALL
NO_CHARGES


@<TRIPOS>ATOM
      1 O          50.0545   53.4757   37.1568 O.2       2 ALA2        0.0000 
      2 OG         51.0096   52.3221   37.0737 O.2       1 SER1        0.0000 
      3 NZ         48.9684   52.6182   36.5780 N.2       4 LYS4        0.0000 
      4 OG         49.9235   51.4645   36.4949 O.2       1 SER1        0.0000 
      5 NZ         46.9271   52.9143   36.0823 N.2       4 LYS4        0.0000 
      6 NZ         47.8822   51.7607   35.9992 N.2       4 LYS4        0.0000 
      7 OG         48.8373   50.6070   35.9161 O.2       1 SER1        0.0000 
      8 NZ         45.8410   52.0568   35.5036 N.2       4 LYS4        0.0000 
      9 CZ         46.7961   50.9032   35.4205 C.ar      5 PHE5        0.0000 
     10 CZ         47.7512   49.7495   35.3374 C.ar      5 PHE5        0.0000 
     11 OG         49.6569   53.0470   38.5381 O.2       1 SER1        0.0000 
     12 CA         50.6120   51.8934   38.4550 C.3       6 GLY6        0.0000 
     13 CZ         47.0870   50.9033   38.7619 C.ar      5 PHE5        0.0000 
     14 CZ         48.0421   49.7496   38.6788 C.ar      5 PHE5        0.0000 
     15 NZ         47.7224   53.7717   33.3196 N.2       4 LYS4        0.0000 
     16 NZ         48.6775   52.6181   33.2365 N.2       4 LYS4        0.0000 
     17 DU         49.6326   51.4644   33.1534 H         7 CUB7        0.0000 
     18 N          46.6362   52.9142   32.7409 N.2       2 ALA2        0.0000 
     19 DU         47.5913   51.7605   32.6578 H         7 CUB7        0.0000 
     20 DU         48.5464   50.6069   32.5747 H         7 CUB7        0.0000 
     21 N          44.5950   53.2103   32.2452 N.2       2 ALA2        0.0000 
     22 DU         45.5501   52.0567   32.1621 H         7 CUB7        0.0000 
     23 CZ         46.5052   50.9030   32.0790 C.ar      5 PHE5        0.0000 
     24 CZ         47.4603   49.7494   31.9959 C.ar      5 PHE5        0.0000 
     25 N          43.5089   52.3528   31.6664 N.2       2 ALA2        0.0000 
     26 CZ         44.4640   51.1992   31.5833 C.ar      5 PHE5        0.0000 
     27 OG         48.5707   52.1895   37.9593 O.2       1 SER1        0.0000 
     28 OG         49.5258   51.0358   37.8762 O.2       1 SER1        0.0000 
     29 CZ         47.4846   51.3320   37.3806 C.ar      5 PHE5        0.0000 
     30 OG         48.4397   50.1783   37.2975 O.2       1 SER1        0.0000 
     31 OG         49.2593   52.6183   39.9195 O.2       1 SER1        0.0000 
     32 CA         50.2143   51.4647   39.8364 C.3       6 GLY6        0.0000 
     33 OG         48.1731   51.7608   39.3407 O.2       1 SER1        0.0000 
     34 DU         49.1282   50.6072   39.2576 H         7 CUB7        0.0000 
     35 CZ         44.7549   51.1993   34.9248 C.ar      5 PHE5        0.0000 
     36 CZ         45.7099   50.0456   34.8417 C.ar      5 PHE5        0.0000 
     37 CZ         46.6650   48.8920   34.7586 C.ar      5 PHE5        0.0000 
     38 OG         44.3041   53.2102   28.9037 O.2       1 SER1        0.0000 
     39 N          42.2629   53.5063   28.4081 N.2       2 ALA2        0.0000 
     40 OG         43.2180   52.3527   28.3250 O.2       1 SER1        0.0000 
     41 OG         53.4484   52.4546   36.1880 O.2       1 SER1        0.0000 
     42 O          51.4072   52.7508   35.6923 O.2       2 ALA2        0.0000 
     43 OG         52.3623   51.5971   35.6092 O.2       1 SER1        0.0000 
     44 OG         53.3174   50.4435   35.5261 O.2       1 SER1        0.0000 
     45 O          49.3660   53.0469   35.1967 O.2       2 ALA2        0.0000 
     46 O          50.3211   51.8932   35.1135 O.2       2 ALA2        0.0000 
     47 OG         51.2762   50.7396   35.0304 O.2       1 SER1        0.0000 
     48 NZ         48.2798   52.1894   34.6179 N.2       4 LYS4        0.0000 
     49 OG         49.2349   51.0357   34.5348 O.2       1 SER1        0.0000 
     50 OG         43.6156   52.7814   26.9436 O.2       1 SER1        0.0000 
     51 NZ         46.2386   52.4855   34.1222 N.2       4 LYS4        0.0000 
     52 DU         47.1937   51.3319   34.0391 H         7 CUB7        0.0000 
     53 OG         48.1488   50.1782   33.9560 O.2       1 SER1        0.0000 
     54 OG         49.1039   49.0246   33.8729 O.2       1 SER1        0.0000 
     55 NZ         45.1525   51.6280   33.5434 N.2       4 LYS4        0.0000 
     56 CZ         46.1076   50.4743   33.4603 C.ar      5 PHE5        0.0000 
     57 CZ         47.0627   49.3207   33.3772 C.ar      5 PHE5        0.0000 
     58 CZ         44.0663   50.7705   32.9647 C.ar      5 PHE5        0.0000 
     59 CA         48.5176   54.6291   30.5569 C.3       6 GLY6        0.0000 
     60 OD1        50.1612   53.9043   32.4340 O.3       3 ASP3        0.0000 
     61 NZ         48.1200   54.2004   31.9383 N.2       4 LYS4        0.0000 
     62 N          46.0788   54.4965   31.4426 N.2       2 ALA2        0.0000 
     63 DU         47.0338   53.3429   31.3595 H         7 CUB7        0.0000 
     64 OG         44.9926   53.6390   30.8639 O.2       1 SER1        0.0000 
     65 OG         45.9477   52.4854   30.7808 O.2       1 SER1        0.0000 
     66 DU         46.9028   51.3317   30.6976 H         7 CUB7        0.0000 
     67 N          42.9514   53.9351   30.3682 N.2       2 ALA2        0.0000 
     68 OG         43.9065   52.7815   30.2851 O.2       1 SER1        0.0000 
     69 CZ         44.8616   51.6279   30.2020 C.ar      5 PHE5        0.0000 
     70 CZ         45.8167   50.4742   30.1189 C.ar      5 PHE5        0.0000 
     71 N          41.8652   53.0776   29.7894 N.2       2 ALA2        0.0000 
     72 CA         42.8203   51.9240   29.7063 C.3       6 GLY6        0.0000 
     73 CA         43.7754   50.7703   29.6232 C.3       6 GLY6        0.0000 
     74 CZ         47.7755   51.3321   40.7220 C.ar      5 PHE5        0.0000 
     75 CA         48.7306   50.1785   40.6389 C.3       6 GLY6        0.0000 
@<TRIPOS>BOND
@<TRIPOS>SUBSTRUCTURE
     1 SER1        2 GROUP   
     2 ALA2        1 GROUP   
     3 ASP3       60 GROUP   
     4 LYS4        3 GROUP   
     5 PHE5        9 GROUP   
     6 GLY6       12 GROUP   
     7 CUB7       17 GROUP   
@<TRIPOS>SET

