#    Name: 3kwf_B1Q_1_INTS_M
#    Modification time : Mon Mar 24 20:38:59 2014

@<TRIPOS>MOLECULE
3kwf_B1Q_1_INTS_M
   71     0    12     0     0
SMALL
NO_CHARGES


@<TRIPOS>ATOM
      1 CA         45.9095   49.2070   32.9865 C.3       4 GLC5        0.0000 
      2 CA         46.6950   50.9460   33.5510 C.3      12 GLL5        0.0000 
      3 CA         45.1240   47.4680   32.4220 C.3       8 GLP5        0.0000 
      4 CA         45.8775   50.0400   35.3845 C.3       4 GLC5        0.0000 
      5 CA         45.0600   49.1340   37.2180 C.3       8 GLP5        0.0000 
      6 CA         46.7345   49.8605   37.6125 C.3       4 GLC5        0.0000 
      7 CA         48.4090   50.5870   38.0070 C.3      12 GLL5        0.0000 
      8 CA         51.5595   53.5605   38.9690 C.3       4 GLC5        0.0000 
      9 CA         49.6790   52.3580   39.2140 C.3      12 GLL5        0.0000 
     10 CA         53.4400   54.7630   38.7240 C.3       8 GLP5        0.0000 
     11 CA         46.8185   48.4330   32.7080 C.3       4 GLC5        0.0000 
     12 CA         48.5130   49.3980   32.9940 C.3      12 GLL5        0.0000 
     13 N          50.0275   54.9780   37.7215 N.am      2 SEC2        0.0000 
     14 N          49.9350   53.7120   37.2250 N.am     10 SEL2        0.0000 
     15 N          50.1200   56.2440   38.2180 N.am      6 SEP2        0.0000 
     16 CA         47.1010   48.2330   31.4280 C.3       4 GLC5        0.0000 
     17 CA         48.3950   49.6020   31.4910 C.3      12 GLL5        0.0000 
     18 CA         45.8070   46.8640   31.3650 C.3       8 GLP5        0.0000 
     19 OD1        47.1890   54.6260   35.7535 O.co2     3 ASC3        0.0000 
     20 OD1        46.5900   53.5710   36.2940 O.co2    11 ASL3        0.0000 
     21 OD1        47.7880   55.6810   35.2130 O.co2     7 ASP3        0.0000 
     22 OD1        45.1030   53.6600   36.0725 O.co2     3 ASC3        0.0000 
     23 OD1        43.6160   53.7490   35.8510 O.co2     7 ASP3        0.0000 
     24 OD1        45.3565   54.1045   37.0405 O.co2     3 ASC3        0.0000 
     25 OD1        44.1230   54.6380   37.7870 O.co2     7 ASP3        0.0000 
     26 O          47.1890   54.6260   35.7535 O.2       1 ALC1        0.0000 
     27 O          46.5900   53.5710   36.2940 O.2       9 ALL1        0.0000 
     28 O          47.7880   55.6810   35.2130 O.2       5 ALP1        0.0000 
     29 O          45.1030   53.6600   36.0725 O.2       1 ALC1        0.0000 
     30 O          43.6160   53.7490   35.8510 O.2       5 ALP1        0.0000 
     31 O          45.3565   54.1045   37.0405 O.2       1 ALC1        0.0000 
     32 O          44.1230   54.6380   37.7870 O.2       5 ALP1        0.0000 
     33 O          46.7865   53.8300   37.7815 O.2       1 ALC1        0.0000 
     34 O          46.9830   54.0890   39.2690 O.2       5 ALP1        0.0000 
     35 CA         48.3595   47.6855   40.5855 C.3       4 GLC5        0.0000 
     36 CA         48.2900   49.4930   40.9380 C.3      12 GLL5        0.0000 
     37 CA         48.4290   45.8780   40.2330 C.3       8 GLP5        0.0000 
     38 CA         47.3130   48.4860   42.0370 C.3       4 GLC5        0.0000 
     39 CA         46.3360   47.4790   43.1360 C.3       8 GLP5        0.0000 
     40 CA         46.8865   51.1010   40.7460 C.3       4 GLC5        0.0000 
     41 CA         45.4830   52.7090   40.5540 C.3       8 GLP5        0.0000 
     42 CA         46.4815   49.0495   40.2385 C.3       4 GLC5        0.0000 
     43 CA         44.6730   48.6060   39.5390 C.3       8 GLP5        0.0000 
     44 CA         50.0690   48.3215   39.9580 C.3       4 GLC5        0.0000 
     45 CA         49.3250   50.1300   40.3040 C.3      12 GLL5        0.0000 
     46 CA         50.8130   46.5130   39.6120 C.3       8 GLP5        0.0000 
     47 CA         44.9010   48.8670   28.4790 C.3       4 GLC5        0.0000 
     48 CA         45.6530   50.0350   27.1280 C.3      12 GLL5        0.0000 
     49 CA         44.1490   47.6990   29.8300 C.3       8 GLP5        0.0000 
     50 CA         42.6155   54.5420   32.3355 C.3       4 GLC5        0.0000 
     51 CA         43.0620   53.4560   30.5460 C.3      12 GLL5        0.0000 
     52 CA         42.1690   55.6280   34.1250 C.3       8 GLP5        0.0000 
     53 CA         41.3920   54.8370   30.9105 C.3       4 GLC5        0.0000 
     54 CA         39.7220   56.2180   31.2750 C.3       8 GLP5        0.0000 
     55 CA         42.6330   51.2710   30.5765 C.3       4 GLC5        0.0000 
     56 CA         42.2040   49.0860   30.6070 C.3       8 GLP5        0.0000 
     57 CA         46.7163   50.1392   36.3473 C.3       4 GLC5        0.0000 
     58 CA         48.4810   50.4660   35.1410 C.3      12 GLL5        0.0000 
     59 CA         45.3517   51.2085   36.1710 C.3       4 GLC5        0.0000 
     60 CA         46.7800   52.2400   35.7600 C.3      12 GLL5        0.0000 
     61 CA         44.1720   50.1840   37.3050 C.3       8 GLP5        0.0000 
     62 CA         43.7542   50.2330   30.3931 C.3       4 GLC5        0.0000 
     63 CA         45.1740   51.6760   31.6670 C.3      12 GLL5        0.0000 
     64 CA         47.7981   52.6487   39.7218 C.3       4 GLC5        0.0000 
     65 CA         46.4710   53.6800   40.4870 C.3       8 GLP5        0.0000 
     66 CA         48.8922   50.1227   42.4595 C.3       4 GLC5        0.0000 
     67 CA         48.9770   50.4340   44.2980 C.3       8 GLP5        0.0000 
     68 CA         51.2249   50.9081   39.8251 C.3       4 GLC5        0.0000 
     69 CA         53.1840   50.8700   39.8470 C.3       8 GLP5        0.0000 
     70 CA         50.0014   52.2946   41.1591 C.3       4 GLC5        0.0000 
     71 CA         50.7370   53.6430   42.5150 C.3       8 GLP5        0.0000 
@<TRIPOS>BOND
@<TRIPOS>SUBSTRUCTURE
     1 ALC1       26 GROUP        1 X    ALC  0     ROOT ALC X 1
     2 SEC2       13 GROUP        1 X    SEC  0     **** SEC X 2
     3 ASC3       19 GROUP        1 X    ASC  0     **** ASC X 3
     4 GLC5        1 GROUP        1 X    GLC  0     **** GLC X 6
     5 ALP1       28 GROUP        1 Y    ALP  0     ROOT ALP Y 8
     6 SEP2       15 GROUP        1 Y    SEP  0     **** SEP Y 9
     7 ASP3       21 GROUP        1 Y    ASP  0     **** ASP Y 10
     8 GLP5        3 GROUP        1 Y    GLP  0     **** GLP Y 13
     9 ALL1       27 GROUP        1 Z    ALL  0     ROOT ALL Z 15
    10 SEL2       14 GROUP        1 Z    SEL  0     **** SEL Z 16
    11 ASL3       20 GROUP        1 Z    ASL  0     **** ASL Z 17
    12 GLL5        2 GROUP        1 Z    GLL  0     **** GLL Z 20
@<TRIPOS>SET

