#    Name: 3kwf_B1Q_1_ligand
#    Modification time : Mon Mar 24 20:38:59 2014

@<TRIPOS>MOLECULE
3kwf_B1Q_1_ligand
   57    60     1     0     0
SMALL
NO_CHARGES


@<TRIPOS>ATOM
      1 N1         48.7350   51.7550   37.1960 N.am      1 B1Q1        0.0000 
      2 C2         48.2640   51.8230   35.8120 C.3       1 B1Q1        0.0000 
      3 N3         48.1470   50.6300   33.7140 N.4       1 B1Q1        0.0000 
      4 C4         46.6950   50.9460   33.5510 C.3       1 B1Q1        0.0000 
      5 C5         49.4710   52.7140   37.7600 C.2       1 B1Q1        0.0000 
      6 C6         46.3340   51.0010   32.0960 C.ar      1 B1Q1        0.0000 
      7 C7         48.4810   50.4660   35.1410 C.3       1 B1Q1        0.0000 
      8 C8         46.2830   52.2260   34.3140 C.3       1 B1Q1        0.0000 
      9 C9         46.7800   52.2400   35.7600 C.3       1 B1Q1        0.0000 
     10 C10        47.1310   50.3550   31.1400 C.ar      1 B1Q1        0.0000 
     11 C11        45.1740   51.6760   31.6670 C.ar      1 B1Q1        0.0000 
     12 C12        44.8200   51.7160   30.3100 C.ar      1 B1Q1        0.0000 
     13 C13        48.4090   50.5870   38.0070 C.3       1 B1Q1        0.0000 
     14 C14        46.7640   50.3920   29.7960 C.ar      1 B1Q1        0.0000 
     15 C15        45.6120   51.0640   29.3700 C.ar      1 B1Q1        0.0000 
     16 C16        49.6790   52.3580   39.2140 C.3       1 B1Q1        0.0000 
     17 C17        48.5130   49.3980   32.9940 C.3       1 B1Q1        0.0000 
     18 C18        48.7340   51.1670   39.3910 C.3       1 B1Q1        0.0000 
     19 O19        49.9350   53.7120   37.2250 O.2       1 B1Q1        0.0000 
     20 C20        48.3950   49.6020   31.4910 C.3       1 B1Q1        0.0000 
     21 N21        46.5900   53.5710   36.2940 N.4       1 B1Q1        0.0000 
     22 O22        43.6840   52.3590   29.8690 O.3       1 B1Q1        0.0000 
     23 O23        45.2700   51.0880   28.0280 O.3       1 B1Q1        0.0000 
     24 F24        48.2900   49.4930   40.9380 F         1 B1Q1        0.0000 
     25 C25        49.3250   50.1300   40.3040 C.3       1 B1Q1        0.0000 
     26 C26        45.6530   50.0350   27.1280 C.3       1 B1Q1        0.0000 
     27 C27        43.0620   53.4560   30.5460 C.3       1 B1Q1        0.0000 
     28 H          48.8387   52.5627   35.2632 H         1 B1Q1        0.0000 
     29 H          48.7308   51.4594   33.3137 H         1 B1Q1        0.0000 
     30 H          46.1190   50.1084   34.0040 H         1 B1Q1        0.0000 
     31 H          47.8321   49.7410   35.6080 H         1 B1Q1        0.0000 
     32 H          49.5142   50.1797   35.2647 H         1 B1Q1        0.0000 
     33 H          45.1905   52.3022   34.3057 H         1 B1Q1        0.0000 
     34 H          46.6868   53.0950   33.7837 H         1 B1Q1        0.0000 
     35 H          46.2055   51.5167   36.3157 H         1 B1Q1        0.0000 
     36 H          44.5777   52.1471   32.3632 H         1 B1Q1        0.0000 
     37 H          49.0566   49.7838   37.8166 H         1 B1Q1        0.0000 
     38 H          47.3864   50.3559   37.9691 H         1 B1Q1        0.0000 
     39 H          47.3560   49.9116   29.0932 H         1 B1Q1        0.0000 
     40 H          49.3670   53.1523   39.8350 H         1 B1Q1        0.0000 
     41 H          50.6743   52.0471   39.3774 H         1 B1Q1        0.0000 
     42 H          47.8552   48.5734   33.2864 H         1 B1Q1        0.0000 
     43 H          49.5430   49.1097   33.2267 H         1 B1Q1        0.0000 
     44 H          47.8065   51.5405   39.8191 H         1 B1Q1        0.0000 
     45 H          49.2634   50.1621   31.1363 H         1 B1Q1        0.0000 
     46 H          48.3880   48.6277   30.9968 H         1 B1Q1        0.0000 
     47 H          50.0017   50.6453   40.9985 H         1 B1Q1        0.0000 
     48 H          49.9332   49.4534   39.6891 H         1 B1Q1        0.0000 
     49 H          45.6303   53.8502   36.2628 H         1 B1Q1        0.0000 
     50 H          46.8826   53.6336   37.2482 H         1 B1Q1        0.0000 
     51 H          47.1108   54.2543   35.7823 H         1 B1Q1        0.0000 
     52 H          46.6465   49.9333   27.0767 H         1 B1Q1        0.0000 
     53 H          45.2821   49.1507   27.4117 H         1 B1Q1        0.0000 
     54 H          45.3273   50.2047   26.1979 H         1 B1Q1        0.0000 
     55 H          43.6805   54.2368   30.6342 H         1 B1Q1        0.0000 
     56 H          42.2493   53.7791   30.0610 H         1 B1Q1        0.0000 
     57 H          42.7720   53.2060   31.4698 H         1 B1Q1        0.0000 
@<TRIPOS>BOND
     1    2    1 1    
     2    5    1 am   
     3   13    1 1    
     4    7    2 1    
     5    9    2 1    
     6   28    2 1    
     7    4    3 1    
     8    7    3 1    
     9   17    3 1    
    10   29    3 1    
    11    6    4 1    
    12    8    4 1    
    13   30    4 1    
    14   16    5 1    
    15   19    5 2    
    16   10    6 ar   
    17   11    6 ar   
    18   31    7 1    
    19   32    7 1    
    20    9    8 1    
    21   33    8 1    
    22   34    8 1    
    23   21    9 1    
    24   35    9 1    
    25   14   10 ar   
    26   20   10 1    
    27   12   11 ar   
    28   36   11 1    
    29   15   12 ar   
    30   22   12 1    
    31   18   13 1    
    32   37   13 1    
    33   38   13 1    
    34   15   14 ar   
    35   39   14 1    
    36   23   15 1    
    37   18   16 1    
    38   40   16 1    
    39   41   16 1    
    40   20   17 1    
    41   42   17 1    
    42   43   17 1    
    43   25   18 1    
    44   44   18 1    
    45   45   20 1    
    46   46   20 1    
    47   49   21 1    
    48   50   21 1    
    49   51   21 1    
    50   27   22 1    
    51   26   23 1    
    52   25   24 1    
    53   47   25 1    
    54   48   25 1    
    55   52   26 1    
    56   53   26 1    
    57   54   26 1    
    58   55   27 1    
    59   56   27 1    
    60   57   27 1    
@<TRIPOS>SUBSTRUCTURE
     1 B1Q1        1 GROUP   
@<TRIPOS>SET

