#    Name: 3KMT_1_CAVITY_N1_ALL.mol2
#    Modification time : Tue Mar 11 08:20:43 2014

@<TRIPOS>MOLECULE
3KMT_1_CAVITY_N1_ALL.mol2
  136     0     6     0     0
SMALL
NO_CHARGES


@<TRIPOS>ATOM
      1 N          19.1503   -7.7174    7.7546 N.2       2 ALA2        0.0000 
      2 N          20.0798   -6.8272    8.5250 N.2       2 ALA2        0.0000 
      3 CA         20.9436   -6.6759    7.3081 C.3       5 GLY6        0.0000 
      4 N          19.2799   -5.6294    8.1061 N.2       2 ALA2        0.0000 
      5 CZ         20.1437   -5.4781    6.8892 C.ar      4 PHE5        0.0000 
      6 N          17.6161   -4.5829    8.9040 N.2       2 ALA2        0.0000 
      7 CZ         18.4800   -4.4316    7.6871 C.ar      4 PHE5        0.0000 
      8 DU         21.8091   -7.1347    9.7145 H         6 CUB7        0.0000 
      9 N          20.1454   -6.0882   10.5124 N.2       2 ALA2        0.0000 
     10 N          21.0092   -5.9369    9.2955 N.2       2 ALA2        0.0000 
     11 CA         21.8731   -5.7857    8.0786 C.3       5 GLY6        0.0000 
     12 N          19.3455   -4.8904   10.0935 N.2       2 ALA2        0.0000 
     13 CZ         20.2093   -4.7392    8.8766 C.ar      4 PHE5        0.0000 
     14 CZ         21.0732   -4.5879    7.6597 C.ar      4 PHE5        0.0000 
     15 N          18.5456   -3.6927    9.6745 N.2       2 ALA2        0.0000 
     16 CZ         19.4094   -3.5414    8.4576 C.ar      4 PHE5        0.0000 
     17 N          17.7457   -2.4949    9.2556 N.2       2 ALA2        0.0000 
     18 CA         21.8747   -6.3958   11.7018 C.3       5 GLY6        0.0000 
     19 DU         22.7386   -6.2445   10.4849 H         6 CUB7        0.0000 
     20 DU         23.6024   -6.0933    9.2680 H         6 CUB7        0.0000 
     21 CA         21.0748   -5.1980   11.2829 C.3       5 GLY6        0.0000 
     22 DU         21.9387   -5.0467   10.0660 H         6 CUB7        0.0000 
     23 DU         22.8026   -4.8955    8.8491 H         6 CUB7        0.0000 
     24 CA         23.6664   -4.7442    7.6322 C.3       5 GLY6        0.0000 
     25 CA         24.5303   -4.5930    6.4153 C.3       5 GLY6        0.0000 
     26 N          20.2749   -4.0002   10.8639 N.2       2 ALA2        0.0000 
     27 DU         21.1388   -3.8490    9.6470 H         6 CUB7        0.0000 
     28 CZ         22.0027   -3.6977    8.4301 C.ar      4 PHE5        0.0000 
     29 CA         22.8665   -3.5465    7.2132 C.3       5 GLY6        0.0000 
     30 CA         23.7304   -3.3952    5.9963 C.3       5 GLY6        0.0000 
     31 N          19.4750   -2.8025   10.4450 N.2       2 ALA2        0.0000 
     32 CZ         20.3389   -2.6512    9.2281 C.ar      4 PHE5        0.0000 
     33 CZ         21.2028   -2.4999    8.0112 C.ar      4 PHE5        0.0000 
     34 CZ         22.0666   -2.3487    6.7943 C.ar      4 PHE5        0.0000 
     35 CZ         19.5390   -1.4534    8.8091 C.ar      4 PHE5        0.0000 
     36 DU         24.4679   -6.5521   11.6744 H         6 CUB7        0.0000 
     37 N          22.8042   -5.5056   12.4723 N.2       2 ALA2        0.0000 
     38 DU         23.6680   -5.3543   11.2554 H         6 CUB7        0.0000 
     39 DU         25.3958   -5.0518    8.8216 H         6 CUB7        0.0000 
     40 N          22.0043   -4.3078   12.0534 N.2       2 ALA2        0.0000 
     41 N          22.8682   -4.1565   10.8365 N.2       2 ALA2        0.0000 
     42 DU         24.5959   -3.8540    8.4026 H         6 CUB7        0.0000 
     43 NZ         25.4598   -3.7028    7.1857 N.2       3 LYS4        0.0000 
     44 N          22.0683   -2.9588   10.4175 N.2       2 ALA2        0.0000 
     45 DU         22.9321   -2.8075    9.2006 H         6 CUB7        0.0000 
     46 OG         23.7960   -2.6563    7.9837 O.2       1 SER1        0.0000 
     47 N          21.2684   -1.7610    9.9985 N.2       2 ALA2        0.0000 
     48 CZ         22.1322   -1.6097    8.7816 C.ar      4 PHE5        0.0000 
     49 OG         22.9961   -1.4585    7.5647 O.2       1 SER1        0.0000 
     50 CA         24.5335   -5.8131   13.6617 C.3       5 GLY6        0.0000 
     51 DU         25.3974   -5.6619   12.4448 H         6 CUB7        0.0000 
     52 N          23.7337   -4.6154   13.2428 N.2       2 ALA2        0.0000 
     53 DU         24.5975   -4.4641   12.0259 H         6 CUB7        0.0000 
     54 DU         25.4614   -4.3129   10.8090 H         6 CUB7        0.0000 
     55 DU         26.3252   -4.1616    9.5921 H         6 CUB7        0.0000 
     56 NZ         27.1891   -4.0103    8.3752 N.2       3 LYS4        0.0000 
     57 N          22.9338   -3.4176   12.8238 N.2       2 ALA2        0.0000 
     58 N          23.7976   -3.2663   11.6069 N.2       2 ALA2        0.0000 
     59 DU         24.6615   -3.1151   10.3900 H         6 CUB7        0.0000 
     60 CA         25.5254   -2.9638    9.1731 C.3       5 GLY6        0.0000 
     61 N          22.9977   -2.0686   11.1880 N.2       2 ALA2        0.0000 
     62 OG         23.8616   -1.9173    9.9711 O.2       1 SER1        0.0000 
     63 OG         24.7255   -1.7660    8.7542 O.2       1 SER1        0.0000 
     64 OG         23.0617   -0.7195    9.5521 O.2       1 SER1        0.0000 
     65 O          25.4630   -4.9229   14.4322 O.2       2 ALA2        0.0000 
     66 OG         26.3269   -4.7717   13.2153 O.2       1 SER1        0.0000 
     67 O          24.6631   -3.7252   14.0132 O.2       2 ALA2        0.0000 
     68 OG         25.5270   -3.5739   12.7963 O.2       1 SER1        0.0000 
     69 OG         26.3909   -3.4226   11.5794 O.2       1 SER1        0.0000 
     70 N          23.8632   -2.5274   13.5943 N.2       2 ALA2        0.0000 
     71 DU         24.7271   -2.3761   12.3774 H         6 CUB7        0.0000 
     72 CZ         25.5910   -2.2249   11.1605 C.ar      4 PHE5        0.0000 
     73 CZ         26.4548   -2.0736    9.9436 C.ar      4 PHE5        0.0000 
     74 N          23.9272   -1.1784   11.9584 N.2       2 ALA2        0.0000 
     75 OG         24.7911   -1.0271   10.7415 O.2       1 SER1        0.0000 
     76 N          25.6549   -0.8758    9.5246 N.2       2 ALA2        0.0000 
     77 N          24.8551    0.3219    9.1057 N.2       2 ALA2        0.0000 
     78 CZ         27.9923   -6.4283   16.0406 C.ar      4 PHE5        0.0000 
     79 CZ         27.1924   -5.2305   15.6216 C.ar      4 PHE5        0.0000 
     80 OG         28.0562   -5.0792   14.4047 O.2       1 SER1        0.0000 
     81 CA         25.5286   -4.1840   16.4196 C.3       5 GLY6        0.0000 
     82 OG         26.3925   -4.0327   15.2027 O.2       1 SER1        0.0000 
     83 CA         24.7287   -2.9862   16.0006 C.3       5 GLY6        0.0000 
     84 N          25.5926   -2.8350   14.7837 N.2       2 ALA2        0.0000 
     85 OG         26.4565   -2.6837   13.5668 O.2       1 SER1        0.0000 
     86 N          24.7927   -1.6372   14.3648 N.2       2 ALA2        0.0000 
     87 CZ         25.6566   -1.4859   13.1479 C.ar      4 PHE5        0.0000 
     88 N          24.8567   -0.2882   12.7289 N.2       2 ALA2        0.0000 
     89 CZ         25.7205   -0.1369   11.5120 C.ar      4 PHE5        0.0000 
     90 CZ         26.5844    0.0144   10.2951 C.ar      4 PHE5        0.0000 
     91 N          24.9207    1.0609   11.0931 N.2       2 ALA2        0.0000 
     92 N          25.7845    1.2121    9.8761 N.2       2 ALA2        0.0000 
     93 N          24.9846    2.4099    9.4572 N.2       2 ALA2        0.0000 
     94 DU         29.7216   -6.7358   17.2300 H         6 CUB7        0.0000 
     95 DU         30.5855   -6.5846   16.0131 H         6 CUB7        0.0000 
     96 O          31.4493   -6.4333   14.7962 O.2       2 ALA2        0.0000 
     97 CZ         28.9217   -5.5381   16.8110 C.ar      4 PHE5        0.0000 
     98 OG         29.7856   -5.3868   15.5941 O.2       1 SER1        0.0000 
     99 OG         30.6495   -5.2356   14.3772 O.2       1 SER1        0.0000 
    100 CZ         28.1218   -4.3403   16.3921 C.ar      4 PHE5        0.0000 
    101 OG         28.9857   -4.1890   15.1752 O.2       1 SER1        0.0000 
    102 CZ         26.4581   -3.2938   17.1900 C.ar      4 PHE5        0.0000 
    103 OG         27.3219   -3.1425   15.9731 O.2       1 SER1        0.0000 
    104 CA         25.6582   -2.0960   16.7711 C.3       5 GLY6        0.0000 
    105 OG         26.5221   -1.9448   15.5542 O.2       1 SER1        0.0000 
    106 CA         25.7222   -0.7470   15.1352 C.3       5 GLY6        0.0000 
    107 CA         30.5871   -7.1947   19.6363 C.3       5 GLY6        0.0000 
    108 CA         31.4510   -7.0434   18.4194 C.3       5 GLY6        0.0000 
    109 N          32.3148   -6.8922   17.2025 N.2       2 ALA2        0.0000 
    110 CZ         29.7872   -5.9969   19.2174 C.ar      4 PHE5        0.0000 
    111 N          30.6511   -5.8456   18.0005 N.2       2 ALA2        0.0000 
    112 N          31.5149   -5.6944   16.7836 N.2       2 ALA2        0.0000 
    113 CZ         28.9873   -4.7991   18.7984 C.ar      4 PHE5        0.0000 
    114 N          29.8512   -4.6479   17.5815 N.2       2 ALA2        0.0000 
    115 N          30.7151   -4.4966   16.3646 N.2       2 ALA2        0.0000 
    116 CA         31.5789   -4.3453   15.1477 C.3       5 GLY6        0.0000 
    117 CZ         28.1874   -3.6014   18.3795 C.ar      4 PHE5        0.0000 
    118 CZ         29.0513   -3.4501   17.1626 C.ar      4 PHE5        0.0000 
    119 OG         29.9152   -3.2988   15.9457 O.2       1 SER1        0.0000 
    120 CA         30.7790   -3.1476   14.7287 C.3       5 GLY6        0.0000 
    121 CZ         27.3876   -2.4036   17.9605 C.ar      4 PHE5        0.0000 
    122 DU         28.2514   -2.2523   16.7436 H         6 CUB7        0.0000 
    123 OG         29.1153   -2.1011   15.5267 O.2       1 SER1        0.0000 
    124 CA         26.5877   -1.2058   17.5416 C.3       5 GLY6        0.0000 
    125 CA         27.4515   -1.0546   16.3247 C.3       5 GLY6        0.0000 
    126 CZ         28.3154   -0.9033   15.1078 C.ar      4 PHE5        0.0000 
    127 CA         26.6516    0.1432   15.9057 C.3       5 GLY6        0.0000 
    128 CA         29.9168   -3.9089   19.5689 C.3       5 GLY6        0.0000 
    129 N          30.7807   -3.7577   18.3520 N.2       2 ALA2        0.0000 
    130 CA         29.1169   -2.7111   19.1499 C.3       5 GLY6        0.0000 
    131 N          29.9808   -2.5599   17.9330 N.2       2 ALA2        0.0000 
    132 CA         30.8446   -2.4086   16.7161 C.3       5 GLY6        0.0000 
    133 CA         28.3170   -1.5134   18.7310 C.3       5 GLY6        0.0000 
    134 CA         29.1809   -1.3621   17.5141 C.3       5 GLY6        0.0000 
    135 CA         30.0448   -1.2109   16.2972 C.3       5 GLY6        0.0000 
    136 CA         28.3810   -0.1643   17.0951 C.3       5 GLY6        0.0000 
@<TRIPOS>BOND
@<TRIPOS>SUBSTRUCTURE
     1 SER1       46 GROUP   
     2 ALA2        1 GROUP   
     3 LYS4       43 GROUP   
     4 PHE5        5 GROUP   
     5 GLY6        3 GROUP   
     6 CUB7        8 GROUP   
@<TRIPOS>SET

