#    Name: 3kmt_SAH_1_INTS_M
#    Modification time : Mon Mar 24 19:49:06 2014

@<TRIPOS>MOLECULE
3kmt_SAH_1_INTS_M
   54     0     9     0     0
SMALL
NO_CHARGES


@<TRIPOS>ATOM
      1 O          22.5815   -2.8425   14.9205 O.2       1 ALC1        0.0000 
      2 O          23.1090   -3.2250   13.6390 O.2       7 ALL1        0.0000 
      3 O          22.0540   -2.4600   16.2020 O.2       4 ALP1        0.0000 
      4 O          21.9915   -2.3140   13.2855 O.2       1 ALC1        0.0000 
      5 O          20.8740   -1.4030   12.9320 O.2       4 ALP1        0.0000 
      6 CA         24.6445    0.5025   14.7315 C.3       3 GLC5        0.0000 
      7 CA         24.4450   -1.2310   13.6220 C.3       9 GLL5        0.0000 
      8 CA         24.8440    2.2360   15.8410 C.3       6 GLP5        0.0000 
      9 CA         26.9050   -0.6715   11.7705 C.3       3 GLC5        0.0000 
     10 CA         25.3580   -0.7070   11.1300 C.3       9 GLL5        0.0000 
     11 CA         28.4520   -0.6360   12.4110 C.3       6 GLP5        0.0000 
     12 N          27.6430   -3.0460   13.4405 N.am      2 SEC2        0.0000 
     13 N          26.4750   -3.1080   14.2650 N.am      8 SEL2        0.0000 
     14 N          28.8110   -2.9840   12.6160 N.am      5 SEP2        0.0000 
     15 N          23.9595   -4.6370   16.0280 N.am      2 SEC2        0.0000 
     16 N          24.9670   -4.3160   15.1470 N.am      8 SEL2        0.0000 
     17 N          22.9520   -4.9580   16.9090 N.am      5 SEP2        0.0000 
     18 CA         23.2460    0.1690    8.7590 C.3       3 GLC5        0.0000 
     19 CA         24.6400   -1.1080    9.6140 C.3       9 GLL5        0.0000 
     20 CA         21.8520    1.4460    7.9040 C.3       6 GLP5        0.0000 
     21 CA         23.8690   -1.3700    6.6125 C.3       3 GLC5        0.0000 
     22 CA         23.5180   -2.8750    8.1330 C.3       9 GLL5        0.0000 
     23 CA         24.2200    0.1350    5.0920 C.3       6 GLP5        0.0000 
     24 O          24.6095   -1.8000    6.5885 O.2       1 ALC1        0.0000 
     25 O          24.3680   -3.0200    7.0930 O.2       7 ALL1        0.0000 
     26 O          24.8510   -0.5800    6.0840 O.2       4 ALP1        0.0000 
     27 N          18.8060   -0.1330   10.1225 N.am      2 SEC2        0.0000 
     28 N          19.1880   -1.5690    9.7560 N.am      8 SEL2        0.0000 
     29 N          18.4240    1.3030   10.4890 N.am      5 SEP2        0.0000 
     30 CA         18.4405   -0.4995    8.6940 C.3       3 GLC5        0.0000 
     31 CA         18.6560   -2.6390    9.2960 C.3       9 GLL5        0.0000 
     32 CA         18.2250    1.6400    8.0920 C.3       6 GLP5        0.0000 
     33 CA         15.5345   -4.2005    8.4805 C.3       3 GLC5        0.0000 
     34 CA         17.3330   -3.0250    8.8490 C.3       9 GLL5        0.0000 
     35 CA         13.7360   -5.3760    8.1120 C.3       6 GLP5        0.0000 
     36 O          16.1100   -0.9545    9.3790 O.2       1 ALC1        0.0000 
     37 O          16.3140   -2.2260    8.8440 O.2       7 ALL1        0.0000 
     38 O          15.9060    0.3170    9.9140 O.2       4 ALP1        0.0000 
     39 O          14.9590   -2.6155    8.6420 O.2       1 ALC1        0.0000 
     40 O          13.6040   -3.0050    8.4400 O.2       4 ALP1        0.0000 
     41 N          16.0270   -4.7375    7.7955 N.am      2 SEC2        0.0000 
     42 N          17.2310   -4.3290    8.4210 N.am      8 SEL2        0.0000 
     43 N          14.8230   -5.1460    7.1700 N.am      5 SEP2        0.0000 
     44 CA         17.0760   -5.1185    6.7020 C.3       3 GLC5        0.0000 
     45 CA         18.2580   -5.1650    8.4180 C.3       9 GLL5        0.0000 
     46 CA         15.8940   -5.0720    4.9860 C.3       6 GLP5        0.0000 
     47 CA         16.2490   -5.6505    8.8810 C.3       3 GLC5        0.0000 
     48 CA         14.2400   -6.1360    9.3440 C.3       6 GLP5        0.0000 
     49 CA         26.3765   -0.7555   12.6980 C.3       3 GLC5        0.0000 
     50 CA         24.1570   -0.5190   12.3480 C.3       9 GLL5        0.0000 
     51 CA         22.8200   -4.3137    6.4075 C.3       3 GLC5        0.0000 
     52 CA         22.5190   -5.1420    4.5050 C.3       6 GLP5        0.0000 
     53 CA         17.1097   -3.4010   10.9277 C.3       3 GLC5        0.0000 
     54 CA         16.2250   -3.9700   12.7830 C.3       6 GLP5        0.0000 
@<TRIPOS>BOND
@<TRIPOS>SUBSTRUCTURE
     1 ALC1        1 GROUP        1 X    ALC  0     ROOT ALC X 1
     2 SEC2       12 GROUP        1 X    SEC  0     **** SEC X 2
     3 GLC5        6 GROUP        1 X    GLC  0     **** GLC X 6
     4 ALP1        3 GROUP        1 Y    ALP  0     ROOT ALP Y 8
     5 SEP2       14 GROUP        1 Y    SEP  0     **** SEP Y 9
     6 GLP5        8 GROUP        1 Y    GLP  0     **** GLP Y 13
     7 ALL1        2 GROUP        1 Z    ALL  0     ROOT ALL Z 15
     8 SEL2       13 GROUP        1 Z    SEL  0     **** SEL Z 16
     9 GLL5        7 GROUP        1 Z    GLL  0     **** GLL Z 20
@<TRIPOS>SET

