#    Name: 3kmt_SAH_1_ligand
#    Modification time : Mon Mar 24 19:49:06 2014

@<TRIPOS>MOLECULE
3kmt_SAH_1_ligand
   46    48     1     0     0
SMALL
NO_CHARGES


@<TRIPOS>ATOM
      1 N          23.1090   -3.2250   13.6390 N.4       1 SAH120      0.0000 
      2 CA         24.4280   -2.7280   13.4360 C.3       1 SAH120      0.0000 
      3 CB         24.4450   -1.2310   13.6220 C.3       1 SAH120      0.0000 
      4 CG         24.1570   -0.5190   12.3480 C.3       1 SAH120      0.0000 
      5 SD         25.3580   -0.7070   11.1300 S.3       1 SAH120      0.0000 
      6 C          25.3490   -3.4470   14.3620 C.2       1 SAH120      0.0000 
      7 O          26.4750   -3.1080   14.2650 O.co2     1 SAH120      0.0000 
      8 OXT        24.9670   -4.3160   15.1470 O.co2     1 SAH120      0.0000 
      9 C5'        24.6400   -1.1080    9.6140 C.3       1 SAH120      0.0000 
     10 C4'        24.1130   -2.5280    9.4960 C.3       1 SAH120      0.0000 
     11 O4'        23.0910   -2.8050   10.3750 O.3       1 SAH120      0.0000 
     12 C3'        23.5180   -2.8750    8.1330 C.3       1 SAH120      0.0000 
     13 O3'        24.3680   -3.0200    7.0930 O.3       1 SAH120      0.0000 
     14 C2'        22.7240   -4.0960    8.4870 C.3       1 SAH120      0.0000 
     15 O2'        23.4860   -5.2820    8.5070 O.3       1 SAH120      0.0000 
     16 C1'        22.1560   -3.6740    9.8470 C.3       1 SAH120      0.0000 
     17 N9         20.8050   -3.0240    9.7090 N.pl3     1 SAH120      0.0000 
     18 C8         20.4220   -1.7880    9.9950 C.2       1 SAH120      0.0000 
     19 N7         19.1880   -1.5690    9.7560 N.2       1 SAH120      0.0000 
     20 C5         18.6560   -2.6390    9.2960 C.ar      1 SAH120      0.0000 
     21 C6         17.3330   -3.0250    8.8490 C.ar      1 SAH120      0.0000 
     22 N6         16.3140   -2.2260    8.8440 N.pl3     1 SAH120      0.0000 
     23 N1         17.2310   -4.3290    8.4210 N.ar      1 SAH120      0.0000 
     24 C2         18.2580   -5.1650    8.4180 C.ar      1 SAH120      0.0000 
     25 N3         19.4580   -4.8590    8.8120 N.ar      1 SAH120      0.0000 
     26 C4         19.7260   -3.6350    9.2540 C.ar      1 SAH120      0.0000 
     27 H          24.7417   -2.9441   12.4072 H         1 SAH120      0.0000 
     28 H          25.4299   -0.9292   14.0032 H         1 SAH120      0.0000 
     29 H          23.6985   -0.9563   14.3795 H         1 SAH120      0.0000 
     30 H          24.0839    0.5649   12.4751 H         1 SAH120      0.0000 
     31 H          23.2403   -0.8688   11.8645 H         1 SAH120      0.0000 
     32 H          25.4260   -0.9000    8.8843 H         1 SAH120      0.0000 
     33 H          23.8489   -0.3650    9.4898 H         1 SAH120      0.0000 
     34 H          24.9469   -3.2276    9.6504 H         1 SAH120      0.0000 
     35 H          22.7416   -2.0818    7.9679 H         1 SAH120      0.0000 
     36 H          21.8792   -4.1285    7.8063 H         1 SAH120      0.0000 
     37 H          22.0642   -4.5721   10.4416 H         1 SAH120      0.0000 
     38 H          21.0700   -1.0990   10.3684 H         1 SAH120      0.0000 
     39 H          15.5997   -2.4280    8.1739 H         1 SAH120      0.0000 
     40 H          16.3358   -1.4810    9.5107 H         1 SAH120      0.0000 
     41 H          18.0747   -6.1725    8.0601 H         1 SAH120      0.0000 
     42 H          23.0633   -4.2167   13.5192 H         1 SAH120      0.0000 
     43 H          22.7745   -3.0253   14.5600 H         1 SAH120      0.0000 
     44 H          22.4572   -2.8218   12.9966 H         1 SAH120      0.0000 
     45 H          24.5308   -2.0911    6.7605 H         1 SAH120      0.0000 
     46 H          22.8182   -6.0165    8.6277 H         1 SAH120      0.0000 
@<TRIPOS>BOND
     1    2    1 1    
     2   42    1 1    
     3   43    1 1    
     4   44    1 1    
     5    3    2 1    
     6    6    2 1    
     7   27    2 1    
     8    4    3 1    
     9   28    3 1    
    10   29    3 1    
    11    5    4 1    
    12   30    4 1    
    13   31    4 1    
    14    9    5 1    
    15    7    6 ar   
    16    8    6 ar   
    17   10    9 1    
    18   32    9 1    
    19   33    9 1    
    20   11   10 1    
    21   12   10 1    
    22   34   10 1    
    23   16   11 1    
    24   13   12 1    
    25   14   12 1    
    26   35   12 1    
    27   45   13 1    
    28   15   14 1    
    29   16   14 1    
    30   36   14 1    
    31   46   15 1    
    32   17   16 1    
    33   37   16 1    
    34   18   17 1    
    35   26   17 1    
    36   19   18 2    
    37   38   18 1    
    38   20   19 1    
    39   21   20 ar   
    40   26   20 ar   
    41   22   21 1    
    42   23   21 ar   
    43   39   22 1    
    44   40   22 1    
    45   24   23 ar   
    46   25   24 ar   
    47   41   24 1    
    48   26   25 ar   
@<TRIPOS>SUBSTRUCTURE
     1 SAH120      1 GROUP   
@<TRIPOS>SET

