#    Name: 2odb_GCP_1_INTS_M
#    Modification time : Tue Mar 25 22:19:14 2014

@<TRIPOS>MOLECULE
2odb_GCP_1_INTS_M
   69     0    15     0     0
SMALL
NO_CHARGES


@<TRIPOS>ATOM
      1 Zn          8.0375  -67.7475  -11.1570 Zn        4 ZIC7        0.0000 
      2 Zn          7.2920  -68.1730  -10.5170 Zn       14 ZIL7        0.0000 
      3 Zn          8.7830  -67.3220  -11.7970 Zn        9 ZIP7        0.0000 
      4 N           6.8950  -69.2210  -11.5820 N.am      2 SEC2        0.0000 
      5 N           7.2920  -68.1730  -10.5170 N.am     12 SEL2        0.0000 
      6 N           6.4980  -70.2690  -12.6470 N.am      7 SEP2        0.0000 
      7 NZ          7.2605  -67.3675   -7.3005 N.4       3 LYC4        0.0000 
      8 NZ          6.3860  -67.9230   -8.1330 N.4      13 LYL4        0.0000 
      9 NZ          8.1350  -66.8120   -6.4680 N.4       8 LYP4        0.0000 
     10 N           7.2605  -67.3675   -7.3005 N.am      2 SEC2        0.0000 
     11 N           6.3860  -67.9230   -8.1330 N.am     12 SEL2        0.0000 
     12 N           8.1350  -66.8120   -6.4680 N.am      7 SEP2        0.0000 
     13 N           6.5935  -69.1250   -7.3465 N.am      2 SEC2        0.0000 
     14 N           6.8010  -70.3270   -6.5600 N.am      7 SEP2        0.0000 
     15 N           4.8325  -69.8570   -9.7910 N.am      2 SEC2        0.0000 
     16 N           4.8360  -68.4510  -10.0290 N.am     12 SEL2        0.0000 
     17 N           4.8290  -71.2630   -9.5530 N.am      7 SEP2        0.0000 
     18 CA          4.7975  -66.1300   -8.1935 C.3       5 GLC5        0.0000 
     19 CA          5.8740  -66.0300   -9.9770 C.3      15 GLL5        0.0000 
     20 CA          3.7210  -66.2300   -6.4100 C.3      10 GLP5        0.0000 
     21 CA          4.6645  -64.4440   -9.0920 C.3       5 GLC5        0.0000 
     22 CA          3.4550  -62.8580   -8.2070 C.3      10 GLP5        0.0000 
     23 CA          4.6065  -65.4910  -11.3240 C.3       5 GLC5        0.0000 
     24 CA          3.3390  -64.9520  -12.6710 C.3      10 GLP5        0.0000 
     25 NZ          7.9185  -65.7575   -7.4305 N.4       3 LYC4        0.0000 
     26 NZ          7.7020  -64.7030   -8.3930 N.4      13 LYL4        0.0000 
     27 N           7.7255  -63.1710   -8.2440 N.am      2 SEC2        0.0000 
     28 N           7.7020  -64.7030   -8.3930 N.am     12 SEL2        0.0000 
     29 N           7.7490  -61.6390   -8.0950 N.am      7 SEP2        0.0000 
     30 N           8.9065  -63.8770   -8.6340 N.am      2 SEC2        0.0000 
     31 N          10.1110  -63.0510   -8.8750 N.am      7 SEP2        0.0000 
     32 N           7.9185  -65.7575   -7.4305 N.am      2 SEC2        0.0000 
     33 Zn          8.5970  -66.4720  -11.2535 Zn        4 ZIC7        0.0000 
     34 Zn          8.4110  -65.6220  -10.7100 Zn       14 ZIL7        0.0000 
     35 N           9.7970  -65.0210  -10.9140 N.am      2 SEC2        0.0000 
     36 N           8.4110  -65.6220  -10.7100 N.am     12 SEL2        0.0000 
     37 N          11.1830  -64.4200  -11.1180 N.am      7 SEP2        0.0000 
     38 N           7.3585  -62.5920   -9.2900 N.am      2 SEC2        0.0000 
     39 N           6.9680  -63.5450  -10.4850 N.am     12 SEL2        0.0000 
     40 N           9.9650  -62.4635  -12.6010 N.am      2 SEC2        0.0000 
     41 N           8.6080  -62.6570  -12.2100 N.am     12 SEL2        0.0000 
     42 N          11.3220  -62.2700  -12.9920 N.am      7 SEP2        0.0000 
     43 CA          4.2335  -62.1880   -9.8695 C.3       5 GLC5        0.0000 
     44 CA          5.0120  -61.5180  -11.5320 C.3      15 GLL5        0.0000 
     45 CA          6.8270  -61.3210  -10.3360 C.3       5 GLC5        0.0000 
     46 CA          8.6420  -61.1240   -9.1400 C.3      10 GLP5        0.0000 
     47 CA          7.4130  -59.7660  -14.2010 C.3       5 GLC5        0.0000 
     48 CA          5.6380  -59.2090  -13.8690 C.3      15 GLL5        0.0000 
     49 CA          9.1880  -60.3230  -14.5330 C.3      10 GLP5        0.0000 
     50 CA         10.5600  -56.7485  -11.6295 C.3       5 GLC5        0.0000 
     51 CA          8.4230  -56.5450  -11.2390 C.3      15 GLL5        0.0000 
     52 CA         12.6970  -56.9520  -12.0200 C.3      10 GLP5        0.0000 
     53 N          11.5425  -54.9605  -10.5255 N.am      2 SEC2        0.0000 
     54 N          10.0580  -54.9800  -10.3780 N.am     12 SEL2        0.0000 
     55 N          13.0270  -54.9410  -10.6730 N.am      7 SEP2        0.0000 
     56 O           8.5945  -52.8645  -10.4205 O.2       1 ALC1        0.0000 
     57 O           8.1250  -54.1340  -11.1330 O.2      11 ALL1        0.0000 
     58 O           9.0640  -51.5950   -9.7080 O.2       6 ALP1        0.0000 
     59 O           6.9510  -51.8665  -11.5185 O.2       1 ALC1        0.0000 
     60 O           6.1520  -53.1750  -11.9000 O.2      11 ALL1        0.0000 
     61 O           7.7500  -50.5580  -11.1370 O.2       6 ALP1        0.0000 
     62 CA          4.0092  -62.3685  -13.2929 C.3       5 GLC5        0.0000 
     63 CA          4.3340  -60.2880  -12.1570 C.3      15 GLL5        0.0000 
     64 CA          3.4310  -64.1900  -13.8310 C.3      10 GLP5        0.0000 
     65 CA          7.1792  -57.6440  -14.1365 C.3       5 GLC5        0.0000 
     66 CA          8.7770  -56.5240  -15.0110 C.3      10 GLP5        0.0000 
     67 CA          7.5823  -56.4147   -9.7637 C.3       5 GLC5        0.0000 
     68 CA          7.0760  -56.6020  -11.8280 C.3      15 GLL5        0.0000 
     69 CA          7.4150  -56.2560   -7.9940 C.3      10 GLP5        0.0000 
@<TRIPOS>BOND
@<TRIPOS>SUBSTRUCTURE
     1 ALC1       56 GROUP        1 X    ALC  0     ROOT ALC X 1
     2 SEC2        4 GROUP        1 X    SEC  0     **** SEC X 2
     3 LYC4        7 GROUP        1 X    LYC  0     **** LYC X 4
     4 ZIC7        1 GROUP        1 X    ZIC  0     **** ZIC X 5
     5 GLC5       18 GROUP        1 X    GLC  0     **** GLC X 6
     6 ALP1       58 GROUP        1 Y    ALP  0     ROOT ALP Y 8
     7 SEP2        6 GROUP        1 Y    SEP  0     **** SEP Y 9
     8 LYP4        9 GROUP        1 Y    LYP  0     **** LYP Y 11
     9 ZIP7        3 GROUP        1 Y    ZIP  0     **** ZIP Y 12
    10 GLP5       20 GROUP        1 Y    GLP  0     **** GLP Y 13
    11 ALL1       57 GROUP        1 Z    ALL  0     ROOT ALL Z 15
    12 SEL2        5 GROUP        1 Z    SEL  0     **** SEL Z 16
    13 LYL4        8 GROUP        1 Z    LYL  0     **** LYL Z 18
    14 ZIL7        2 GROUP        1 Z    ZIL  0     **** ZIL Z 19
    15 GLL5       19 GROUP        1 Z    GLL  0     **** GLL Z 20
@<TRIPOS>SET

