#    Name: 2odb_GCP_1_ligand
#    Modification time : Tue Mar 25 22:19:14 2014

@<TRIPOS>MOLECULE
2odb_GCP_1_ligand
   46    48     1     0     0
SMALL
NO_CHARGES


@<TRIPOS>ATOM
      1 PG          6.1260  -67.8080   -9.6430 P.3       1 GCP200      0.0000 
      2 O1G         7.2920  -68.1730  -10.5170 O.co2     1 GCP200      0.0000 
      3 O2G         6.3860  -67.9230   -8.1330 O.co2     1 GCP200      0.0000 
      4 O3G         4.8360  -68.4510  -10.0290 O.co2     1 GCP200      0.0000 
      5 C3B         5.8740  -66.0300   -9.9770 C.3       1 GCP200      0.0000 
      6 PB          7.3510  -64.9660   -9.8570 P.3       1 GCP200      0.0000 
      7 O1B         7.7020  -64.7030   -8.3930 O.co2     1 GCP200      0.0000 
      8 O2B         8.4110  -65.6220  -10.7100 O.co2     1 GCP200      0.0000 
      9 O3A         6.9680  -63.5450  -10.4850 O.3       1 GCP200      0.0000 
     10 PA          7.1670  -63.0800  -12.0110 P.3       1 GCP200      0.0000 
     11 O1A         8.6080  -62.6570  -12.2100 O.co2     1 GCP200      0.0000 
     12 O2A         6.5640  -64.0420  -12.9900 O.co2     1 GCP200      0.0000 
     13 O5'         6.3490  -61.6880  -12.0010 O.3       1 GCP200      0.0000 
     14 C5'         5.0120  -61.5180  -11.5320 C.3       1 GCP200      0.0000 
     15 C4'         4.3340  -60.2880  -12.1570 C.3       1 GCP200      0.0000 
     16 O4'         4.9090  -59.0960  -11.6280 O.3       1 GCP200      0.0000 
     17 C3'         4.5020  -60.1910  -13.6650 C.3       1 GCP200      0.0000 
     18 O3'         3.3080  -59.6740  -14.2380 O.3       1 GCP200      0.0000 
     19 C2'         5.6380  -59.2090  -13.8690 C.3       1 GCP200      0.0000 
     20 O2'         5.5410  -58.4950  -15.0980 O.3       1 GCP200      0.0000 
     21 C1'         5.5250  -58.3190  -12.6550 C.3       1 GCP200      0.0000 
     22 N9          6.8150  -57.8730  -12.0840 N.pl3     1 GCP200      0.0000 
     23 C8          7.8690  -58.6100  -11.6810 C.2       1 GCP200      0.0000 
     24 N7          8.8520  -57.8220  -11.1690 N.2       1 GCP200      0.0000 
     25 C5          8.4230  -56.5450  -11.2390 C.2       1 GCP200      0.0000 
     26 C6          8.9320  -55.1750  -10.8930 C.2       1 GCP200      0.0000 
     27 O6         10.0580  -54.9800  -10.3780 O.2       1 GCP200      0.0000 
     28 N1          8.1250  -54.1340  -11.1330 N.am      1 GCP200      0.0000 
     29 C2          6.9050  -54.2670  -11.6810 C.2       1 GCP200      0.0000 
     30 N2          6.1520  -53.1750  -11.9000 N.pl3     1 GCP200      0.0000 
     31 N3          6.3780  -55.4570  -12.0230 N.2       1 GCP200      0.0000 
     32 C4          7.0760  -56.6020  -11.8280 C.2       1 GCP200      0.0000 
     33 H           5.1933  -65.6828   -9.2523 H         1 GCP200      0.0000 
     34 H           5.5309  -65.9576  -10.9700 H         1 GCP200      0.0000 
     35 H           4.9775  -61.3897  -10.4351 H         1 GCP200      0.0000 
     36 H           4.3823  -62.3948  -11.7676 H         1 GCP200      0.0000 
     37 H           3.2773  -60.3216  -11.9354 H         1 GCP200      0.0000 
     38 H           4.7827  -61.1317  -14.0402 H         1 GCP200      0.0000 
     39 H           6.5594  -59.7659  -13.7744 H         1 GCP200      0.0000 
     40 H           4.9096  -57.4726  -12.8849 H         1 GCP200      0.0000 
     41 H           7.9261  -59.5878  -11.7457 H         1 GCP200      0.0000 
     42 H           8.4625  -53.1569  -10.8794 H         1 GCP200      0.0000 
     43 H           6.5714  -52.2974  -11.6675 H         1 GCP200      0.0000 
     44 H           5.2398  -53.3377  -12.2760 H         1 GCP200      0.0000 
     45 H           3.5960  -58.8644  -14.7495 H         1 GCP200      0.0000 
     46 H           6.2109  -58.9271  -15.7018 H         1 GCP200      0.0000 
@<TRIPOS>BOND
     1    2    1 ar   
     2    3    1 ar   
     3    4    1 ar   
     4    5    1 1    
     5    6    5 1    
     6   33    5 1    
     7   34    5 1    
     8    7    6 ar   
     9    8    6 ar   
    10    9    6 1    
    11   10    9 1    
    12   11   10 ar   
    13   12   10 ar   
    14   13   10 1    
    15   14   13 1    
    16   15   14 1    
    17   35   14 1    
    18   36   14 1    
    19   16   15 1    
    20   17   15 1    
    21   37   15 1    
    22   21   16 1    
    23   18   17 1    
    24   19   17 1    
    25   38   17 1    
    26   45   18 1    
    27   20   19 1    
    28   21   19 1    
    29   39   19 1    
    30   46   20 1    
    31   22   21 1    
    32   40   21 1    
    33   23   22 1    
    34   32   22 1    
    35   24   23 2    
    36   41   23 1    
    37   25   24 1    
    38   26   25 1    
    39   32   25 2    
    40   27   26 2    
    41   28   26 am   
    42   29   28 1    
    43   42   28 1    
    44   30   29 1    
    45   31   29 2    
    46   43   30 1    
    47   44   30 1    
    48   32   31 1    
@<TRIPOS>SUBSTRUCTURE
     1 GCP200      1 GROUP   
@<TRIPOS>SET

