#    Name: 2bvn_ENX_2_INTS_M
#    Modification time : Mon Mar 24 21:45:22 2014

@<TRIPOS>MOLECULE
2bvn_ENX_2_INTS_M
   93     0    12     0     0
SMALL
NO_CHARGES


@<TRIPOS>ATOM
      1 CA         22.6335   67.8035   29.4625 C.3       4 GLC5        0.0000 
      2 CA         24.5780   67.7230   28.3690 C.3      12 GLL5        0.0000 
      3 CA         20.6890   67.8840   30.5560 C.3       8 GLP5        0.0000 
      4 CA         23.0065   68.5905   27.7795 C.3       4 GLC5        0.0000 
      5 CA         21.4350   69.4580   27.1900 C.3       8 GLP5        0.0000 
      6 CA         26.4350   65.4950   30.4670 C.3       4 GLC5        0.0000 
      7 CA         25.6370   66.7750   28.8770 C.3      12 GLL5        0.0000 
      8 CA         27.2330   64.2150   32.0570 C.3       8 GLP5        0.0000 
      9 CA         26.9495   64.4140   30.1285 C.3       4 GLC5        0.0000 
     10 CA         26.6660   64.6130   28.2000 C.3      12 GLL5        0.0000 
     11 CA         28.4530   59.3300   29.4680 C.3       4 GLC5        0.0000 
     12 CA         28.6340   59.9310   27.5000 C.3      12 GLL5        0.0000 
     13 CA         28.2720   58.7290   31.4360 C.3       8 GLP5        0.0000 
     14 CA         29.5865   58.3700   29.6800 C.3       4 GLC5        0.0000 
     15 CA         30.9010   58.0110   27.9240 C.3      12 GLL5        0.0000 
     16 CA         34.6615   59.4285   29.3325 C.3       4 GLC5        0.0000 
     17 CA         35.2530   57.3240   29.8100 C.3      12 GLL5        0.0000 
     18 CA         34.0700   61.5330   28.8550 C.3       8 GLP5        0.0000 
     19 CA         34.6480   58.1760   31.7815 C.3       4 GLC5        0.0000 
     20 CA         34.0430   59.0280   33.7530 C.3       8 GLP5        0.0000 
     21 CA         36.2575   56.9300   31.6805 C.3       4 GLC5        0.0000 
     22 CA         37.2620   56.5360   33.5510 C.3       8 GLP5        0.0000 
     23 CA         39.7510   59.5455   31.0855 C.3       4 GLC5        0.0000 
     24 CA         39.9910   57.6260   30.6670 C.3      12 GLL5        0.0000 
     25 CA         39.5110   61.4650   31.5040 C.3       8 GLP5        0.0000 
     26 CA         40.8815   59.6840   31.5405 C.3       4 GLC5        0.0000 
     27 CA         42.2520   57.9030   31.5770 C.3      12 GLL5        0.0000 
     28 CA         45.1760   57.6245   30.2450 C.3       4 GLC5        0.0000 
     29 CA         43.5900   57.7490   31.4800 C.3      12 GLL5        0.0000 
     30 CA         46.7620   57.5000   29.0100 C.3       8 GLP5        0.0000 
     31 CA         24.8745   62.4020   30.0785 C.3       4 GLC5        0.0000 
     32 CA         26.8640   61.7570   29.4260 C.3      12 GLL5        0.0000 
     33 CA         22.8850   63.0470   30.7310 C.3       8 GLP5        0.0000 
     34 CA         27.0485   62.9860   30.7415 C.3       4 GLC5        0.0000 
     35 CA         27.5680   60.2430   30.4310 C.3       4 GLC5        0.0000 
     36 N          33.2115   58.2690   26.2650 N.am      2 SEC2        0.0000 
     37 N          31.8050   58.7090   27.0620 N.am     10 SEL2        0.0000 
     38 N          34.6180   57.8290   25.4680 N.am      6 SEP2        0.0000 
     39 CA         30.6440   55.2740   31.4135 C.3       4 GLC5        0.0000 
     40 CA         30.5990   56.0730   29.5570 C.3      12 GLL5        0.0000 
     41 CA         30.6890   54.4750   33.2700 C.3       8 GLP5        0.0000 
     42 CA         29.4355   57.4010   30.4965 C.3       4 GLC5        0.0000 
     43 CA         33.2515   58.6830   32.2630 C.3       4 GLC5        0.0000 
     44 CA         32.4600   58.3380   30.7730 C.3      12 GLL5        0.0000 
     45 CA         30.3660   58.5335   31.1045 C.3       4 GLC5        0.0000 
     46 CA         39.7115   55.7985   26.7810 C.3       4 GLC5        0.0000 
     47 CA         39.3410   56.0330   28.7760 C.3      12 GLL5        0.0000 
     48 CA         40.0820   55.5640   24.7860 C.3       8 GLP5        0.0000 
     49 N          44.3550   62.0105   32.5705 N.am      2 SEC2        0.0000 
     50 N          43.7380   62.1870   33.6830 N.am     10 SEL2        0.0000 
     51 N          44.9720   61.8340   31.4580 N.am      6 SEP2        0.0000 
     52 O          28.7720   63.6990   24.3380 O.2       1 ALC1        0.0000 
     53 O          27.3120   64.4100   23.7870 O.2       9 ALL1        0.0000 
     54 O          30.2320   62.9880   24.8890 O.2       5 ALP1        0.0000 
     55 N          27.6855   59.5825   24.4615 N.am      2 SEC2        0.0000 
     56 N          28.6960   58.9180   25.2920 N.am     10 SEL2        0.0000 
     57 N          26.6750   60.2470   23.6310 N.am      6 SEP2        0.0000 
     58 NZ         44.1795   57.0915   39.6920 N.4       3 LYC4        0.0000 
     59 NZ         44.0260   58.0940   38.5570 N.4      11 LYL4        0.0000 
     60 NZ         44.3330   56.0890   40.8270 N.4       7 LYP4        0.0000 
     61 N          44.1795   57.0915   39.6920 N.am      2 SEC2        0.0000 
     62 N          44.0260   58.0940   38.5570 N.am     10 SEL2        0.0000 
     63 N          44.3330   56.0890   40.8270 N.am      6 SEP2        0.0000 
     64 NZ         44.0480   56.2820   38.9450 N.4       3 LYC4        0.0000 
     65 NZ         43.7630   56.4750   37.0630 N.4      11 LYL4        0.0000 
     66 CA         25.0778   67.5525   30.5390 C.3       4 GLC5        0.0000 
     67 CA         25.0480   67.8560   32.4550 C.3       8 GLP5        0.0000 
     68 CA         27.1623   66.6010   26.9344 C.3       4 GLC5        0.0000 
     69 CA         28.1360   67.8030   25.5520 C.3       8 GLP5        0.0000 
     70 CA         29.6103   62.5850   27.1337 C.3       4 GLC5        0.0000 
     71 CA         27.6370   62.2670   27.9050 C.3      12 GLL5        0.0000 
     72 CA         31.5050   63.4970   26.8570 C.3       8 GLP5        0.0000 
     73 CA         33.3462   59.6723   29.4832 C.3       4 GLC5        0.0000 
     74 CA         36.6590   58.0960   28.0700 C.3       4 GLC5        0.0000 
     75 CA         37.4530   59.0770   26.5160 C.3       8 GLP5        0.0000 
     76 CA         37.7351   56.1285   31.3405 C.3       4 GLC5        0.0000 
     77 CA         36.4770   56.9060   29.4380 C.3      12 GLL5        0.0000 
     78 CA         37.4680   55.1930   32.8640 C.3       8 GLP5        0.0000 
     79 CA         41.5463   59.1085   29.8605 C.3       4 GLC5        0.0000 
     80 CA         42.4320   60.6820   29.1100 C.3       8 GLP5        0.0000 
     81 CA         42.9780   59.4655   30.9047 C.3       4 GLC5        0.0000 
     82 CA         43.0350   61.1050   30.2810 C.3       8 GLP5        0.0000 
     83 CA         40.0166   57.4335   32.5620 C.3       4 GLC5        0.0000 
     84 CA         38.5770   57.1480   34.0300 C.3       8 GLP5        0.0000 
     85 CA         44.3670   61.0457   32.4042 C.3       4 GLC5        0.0000 
     86 CA         44.7200   60.0150   34.2840 C.3      12 GLL5        0.0000 
     87 CA         44.3780   61.4350   30.2870 C.3       8 GLP5        0.0000 
     88 CA         38.1363   57.8406   27.9489 C.3       4 GLC5        0.0000 
     89 CA         41.7737   62.1672   34.1410 C.3       4 GLC5        0.0000 
     90 CA         42.6410   60.9710   35.4310 C.3      12 GLL5        0.0000 
     91 CA         40.2310   63.2000   33.1870 C.3       8 GLP5        0.0000 
     92 CA         40.7802   60.3975   36.0777 C.3       4 GLC5        0.0000 
     93 CA         38.8110   60.3030   36.1330 C.3       8 GLP5        0.0000 
@<TRIPOS>BOND
@<TRIPOS>SUBSTRUCTURE
     1 ALC1       52 GROUP        1 X    ALC  0     ROOT ALC X 1
     2 SEC2       36 GROUP        1 X    SEC  0     **** SEC X 2
     3 LYC4       58 GROUP        1 X    LYC  0     **** LYC X 4
     4 GLC5        1 GROUP        1 X    GLC  0     **** GLC X 6
     5 ALP1       54 GROUP        1 Y    ALP  0     ROOT ALP Y 8
     6 SEP2       38 GROUP        1 Y    SEP  0     **** SEP Y 9
     7 LYP4       60 GROUP        1 Y    LYP  0     **** LYP Y 11
     8 GLP5        3 GROUP        1 Y    GLP  0     **** GLP Y 13
     9 ALL1       53 GROUP        1 Z    ALL  0     ROOT ALL Z 15
    10 SEL2       37 GROUP        1 Z    SEL  0     **** SEL Z 16
    11 LYL4       59 GROUP        1 Z    LYL  0     **** LYL Z 18
    12 GLL5        2 GROUP        1 Z    GLL  0     **** GLL Z 20
@<TRIPOS>SET

