#    Name: 2bvn_ENX_2_ligand
#    Modification time : Mon Mar 24 21:45:22 2014

@<TRIPOS>MOLECULE
2bvn_ENX_2_ligand
   91    91     1     0     0
SMALL
NO_CHARGES


@<TRIPOS>ATOM
      1 C1         24.5780   67.7230   28.3690 C.3       1 ENX1396     0.0000 
      2 C2         25.6370   66.7750   28.8770 C.3       1 ENX1396     0.0000 
      3 C3         25.7850   65.5950   27.9900 C.2       1 ENX1396     0.0000 
      4 C4         26.6660   64.6130   28.2000 C.2       1 ENX1396     0.0000 
      5 C5         26.8030   63.4330   27.2790 C.3       1 ENX1396     0.0000 
      6 C6         27.6370   62.2670   27.9050 C.3       1 ENX1396     0.0000 
      7 C7         27.7940   61.0790   26.9160 C.3       1 ENX1396     0.0000 
      8 C8         28.6340   59.9310   27.5000 C.3       1 ENX1396     0.0000 
      9 C9         28.9770   58.8460   26.4970 C.2       1 ENX1396     0.0000 
     10 C10        29.6990   57.5990   27.0220 C.3       1 ENX1396     0.0000 
     11 C11        30.9010   58.0110   27.9240 C.3       1 ENX1396     0.0000 
     12 C12        31.5890   56.8100   28.6440 C.3       1 ENX1396     0.0000 
     13 C13        32.7850   57.2850   29.4500 C.2       1 ENX1396     0.0000 
     14 C14        34.0420   56.9130   29.1290 C.2       1 ENX1396     0.0000 
     15 C15        35.2530   57.3240   29.8100 C.2       1 ENX1396     0.0000 
     16 C16        36.4770   56.9060   29.4380 C.2       1 ENX1396     0.0000 
     17 C17        37.6600   57.3520   30.1200 C.2       1 ENX1396     0.0000 
     18 C18        38.9360   56.9990   29.8550 C.2       1 ENX1396     0.0000 
     19 C19        39.9910   57.6260   30.6670 C.2       1 ENX1396     0.0000 
     20 C20        41.3300   57.4440   30.5550 C.2       1 ENX1396     0.0000 
     21 C21        42.2520   57.9030   31.5770 C.2       1 ENX1396     0.0000 
     22 C22        43.5900   57.7490   31.4800 C.2       1 ENX1396     0.0000 
     23 C23        44.5350   58.4120   32.4050 C.2       1 ENX1396     0.0000 
     24 O24        43.9150   59.2900   33.3010 O.3       1 ENX1396     0.0000 
     25 C25        44.7200   60.0150   34.2840 C.3       1 ENX1396     0.0000 
     26 C26        44.9440   59.0740   35.4910 C.3       1 ENX1396     0.0000 
     27 C27        43.6020   58.7270   36.1720 C.3       1 ENX1396     0.0000 
     28 C28        43.8150   57.8110   37.3660 C.2       1 ENX1396     0.0000 
     29 O29        27.3910   63.8730   26.0230 O.3       1 ENX1396     0.0000 
     30 CL30       26.8640   61.7570   29.4260 Cl        1 ENX1396     0.0000 
     31 O31        26.4890   60.5910   26.5940 O.3       1 ENX1396     0.0000 
     32 O32        30.1450   56.7940   25.9420 O.3       1 ENX1396     0.0000 
     33 O33        31.8050   58.7090   27.0620 O.3       1 ENX1396     0.0000 
     34 C34        30.5990   56.0730   29.5570 C.3       1 ENX1396     0.0000 
     35 CL35       32.4600   58.3380   30.7730 Cl        1 ENX1396     0.0000 
     36 C36        39.3410   56.0330   28.7760 C.3       1 ENX1396     0.0000 
     37 O37        45.7700   58.2660   32.4600 O.2       1 ENX1396     0.0000 
     38 C38        43.9920   61.2980   34.7590 C.3       1 ENX1396     0.0000 
     39 C39        42.6410   60.9710   35.4310 C.3       1 ENX1396     0.0000 
     40 C40        42.8580   60.0130   36.6140 C.3       1 ENX1396     0.0000 
     41 O41        43.7380   62.1870   33.6830 O.3       1 ENX1396     0.0000 
     42 C42        26.5830   64.0600   24.8880 C.2       1 ENX1396     0.0000 
     43 N43        27.3120   64.4100   23.7870 N.am      1 ENX1396     0.0000 
     44 O44        25.3380   63.9110   24.9320 O.2       1 ENX1396     0.0000 
     45 O45        28.6960   58.9180   25.2920 O.2       1 ENX1396     0.0000 
     46 O46        44.0260   58.0940   38.5570 O.co2     1 ENX1396     0.0000 
     47 O47        43.7630   56.4750   37.0630 O.co2     1 ENX1396     0.0000 
     48 H          25.3668   66.4497   29.8914 H         1 ENX1396     0.0000 
     49 H          26.5927   67.3132   28.9472 H         1 ENX1396     0.0000 
     50 H          25.1325   65.5865   27.1659 H         1 ENX1396     0.0000 
     51 H          27.3146   64.6004   29.0141 H         1 ENX1396     0.0000 
     52 H          25.7987   63.0336   27.0837 H         1 ENX1396     0.0000 
     53 H          28.5893   62.6323   28.2206 H         1 ENX1396     0.0000 
     54 H          28.2906   61.4511   26.0319 H         1 ENX1396     0.0000 
     55 H          28.0806   59.4864   28.3437 H         1 ENX1396     0.0000 
     56 H          29.5648   60.3535   27.9133 H         1 ENX1396     0.0000 
     57 H          29.0003   57.0568   27.6560 H         1 ENX1396     0.0000 
     58 H          30.5086   58.6860   28.6805 H         1 ENX1396     0.0000 
     59 H          31.9324   56.1198   27.8831 H         1 ENX1396     0.0000 
     60 H          34.1989   56.2544   28.3010 H         1 ENX1396     0.0000 
     61 H          35.1251   57.9743   30.6206 H         1 ENX1396     0.0000 
     62 H          36.6104   56.2471   28.6460 H         1 ENX1396     0.0000 
     63 H          37.4747   58.0439   30.9270 H         1 ENX1396     0.0000 
     64 H          39.6154   58.2942   31.4195 H         1 ENX1396     0.0000 
     65 H          41.7463   56.9685   29.7321 H         1 ENX1396     0.0000 
     66 H          41.8203   58.3682   32.4089 H         1 ENX1396     0.0000 
     67 H          44.0251   57.1540   30.7470 H         1 ENX1396     0.0000 
     68 H          45.6713   60.2812   33.8874 H         1 ENX1396     0.0000 
     69 H          45.5910   59.5663   36.2090 H         1 ENX1396     0.0000 
     70 H          45.4149   58.1600   35.1454 H         1 ENX1396     0.0000 
     71 H          42.9763   58.2153   35.4473 H         1 ENX1396     0.0000 
     72 H          44.6156   61.7732   35.5150 H         1 ENX1396     0.0000 
     73 H          41.9883   60.5027   34.7051 H         1 ENX1396     0.0000 
     74 H          42.1925   61.8887   35.7901 H         1 ENX1396     0.0000 
     75 H          43.4468   60.5138   37.3794 H         1 ENX1396     0.0000 
     76 H          41.8936   59.7343   37.0330 H         1 ENX1396     0.0000 
     77 H          28.3043   64.4385   23.9072 H         1 ENX1396     0.0000 
     78 H          26.7893   64.6070   22.9576 H         1 ENX1396     0.0000 
     79 H          24.4747   68.5187   28.9658 H         1 ENX1396     0.0000 
     80 H          24.7953   68.0678   27.4558 H         1 ENX1396     0.0000 
     81 H          23.6823   67.2823   28.3104 H         1 ENX1396     0.0000 
     82 H          31.0283   55.2988   30.0220 H         1 ENX1396     0.0000 
     83 H          30.2305   56.6735   30.2667 H         1 ENX1396     0.0000 
     84 H          29.8197   55.7118   29.0449 H         1 ENX1396     0.0000 
     85 H          40.3324   55.9060   28.7442 H         1 ENX1396     0.0000 
     86 H          38.9341   55.1300   28.9141 H         1 ENX1396     0.0000 
     87 H          39.0566   56.3473   27.8703 H         1 ENX1396     0.0000 
     88 H          26.2299   60.0146   27.3690 H         1 ENX1396     0.0000 
     89 H          29.5459   57.0318   25.1775 H         1 ENX1396     0.0000 
     90 H          31.7184   58.2557   26.1748 H         1 ENX1396     0.0000 
     91 H          42.9909   61.7649   33.1696 H         1 ENX1396     0.0000 
@<TRIPOS>BOND
     1    2    1 1    
     2   79    1 1    
     3   80    1 1    
     4   81    1 1    
     5    3    2 1    
     6   48    2 1    
     7   49    2 1    
     8    4    3 2    
     9   50    3 1    
    10    5    4 1    
    11   51    4 1    
    12    6    5 1    
    13   29    5 1    
    14   52    5 1    
    15    7    6 1    
    16   30    6 1    
    17   53    6 1    
    18    8    7 1    
    19   31    7 1    
    20   54    7 1    
    21    9    8 1    
    22   55    8 1    
    23   56    8 1    
    24   10    9 1    
    25   45    9 2    
    26   11   10 1    
    27   32   10 1    
    28   57   10 1    
    29   12   11 1    
    30   33   11 1    
    31   58   11 1    
    32   13   12 1    
    33   34   12 1    
    34   59   12 1    
    35   14   13 2    
    36   35   13 1    
    37   15   14 1    
    38   60   14 1    
    39   16   15 2    
    40   61   15 1    
    41   17   16 1    
    42   62   16 1    
    43   18   17 2    
    44   63   17 1    
    45   19   18 1    
    46   36   18 1    
    47   20   19 2    
    48   64   19 1    
    49   21   20 1    
    50   65   20 1    
    51   22   21 2    
    52   66   21 1    
    53   23   22 1    
    54   67   22 1    
    55   24   23 1    
    56   37   23 2    
    57   25   24 1    
    58   26   25 1    
    59   38   25 1    
    60   68   25 1    
    61   27   26 1    
    62   69   26 1    
    63   70   26 1    
    64   28   27 1    
    65   40   27 1    
    66   71   27 1    
    67   46   28 ar   
    68   47   28 ar   
    69   42   29 1    
    70   88   31 1    
    71   89   32 1    
    72   90   33 1    
    73   82   34 1    
    74   83   34 1    
    75   84   34 1    
    76   85   36 1    
    77   86   36 1    
    78   87   36 1    
    79   39   38 1    
    80   41   38 1    
    81   72   38 1    
    82   40   39 1    
    83   73   39 1    
    84   74   39 1    
    85   75   40 1    
    86   76   40 1    
    87   91   41 1    
    88   43   42 am   
    89   44   42 2    
    90   77   43 1    
    91   78   43 1    
@<TRIPOS>SUBSTRUCTURE
     1 ENX1396     1 GROUP   
@<TRIPOS>SET

