#    Name: 2prl_R2C_2_INTS_M
#    Modification time : Mon Mar 24 19:19:42 2014

@<TRIPOS>MOLECULE
2prl_R2C_2_INTS_M
   84     0     9     0     0
SMALL
NO_CHARGES


@<TRIPOS>ATOM
      1 CA         48.5660   38.4255   -4.3580 C.3       3 GLC5        0.0000 
      2 CA         48.2330   39.8020   -2.7330 C.3       9 GLL5        0.0000 
      3 CA         48.8990   37.0490   -5.9830 C.3       6 GLP5        0.0000 
      4 CA         51.7835   42.1070   -0.7960 C.3       3 GLC5        0.0000 
      5 CA         49.9540   41.6120   -1.3550 C.3       9 GLL5        0.0000 
      6 CA         53.6130   42.6020   -0.2370 C.3       6 GLP5        0.0000 
      7 NZ         47.2475   40.2615   -6.7130 N.4       2 LYC4        0.0000 
      8 NZ         47.4490   40.4270   -5.4440 N.4       8 LYL4        0.0000 
      9 NZ         48.1660   39.7460   -8.5970 N.4       5 LYP4        0.0000 
     10 N          47.1425   41.8360   -6.2555 N.am      1 SEC2        0.0000 
     11 N          47.4490   40.4270   -5.4440 N.am      7 SEL2        0.0000 
     12 N          46.8360   43.2450   -7.0670 N.am      4 SEP2        0.0000 
     13 N          47.2475   40.2615   -6.7130 N.am      1 SEC2        0.0000 
     14 N          47.0460   40.0960   -7.9820 N.am      4 SEP2        0.0000 
     15 N          48.3865   40.1480   -6.7035 N.am      1 SEC2        0.0000 
     16 N          49.3240   39.8690   -7.9630 N.am      4 SEP2        0.0000 
     17 NZ         49.2710   40.7945   -6.7905 N.4       2 LYC4        0.0000 
     18 NZ         49.2180   41.7200   -5.6180 N.4       8 LYL4        0.0000 
     19 N          48.0270   42.4825   -6.3425 N.am      1 SEC2        0.0000 
     20 N          49.2180   41.7200   -5.6180 N.am      7 SEL2        0.0000 
     21 N          49.2710   40.7945   -6.7905 N.am      1 SEC2        0.0000 
     22 N          47.6740   38.5520    0.7610 N.am      1 SEC2        0.0000 
     23 N          47.9230   38.5450   -0.6470 N.am      7 SEL2        0.0000 
     24 N          47.4250   38.5590    2.1690 N.am      4 SEP2        0.0000 
     25 CA         49.1100   37.5320   -1.0665 C.3       3 GLC5        0.0000 
     26 CA         47.0670   37.6190   -1.3370 C.3       9 GLL5        0.0000 
     27 CA         51.1530   37.4450   -0.7960 C.3       6 GLP5        0.0000 
     28 CA         46.1935   36.3700   -2.1945 C.3       3 GLC5        0.0000 
     29 CA         45.3200   35.1210   -3.0520 C.3       6 GLP5        0.0000 
     30 CA         46.7895   38.5320    0.6655 C.3       3 GLC5        0.0000 
     31 CA         46.5120   39.4450    2.6680 C.3       6 GLP5        0.0000 
     32 CA         46.0120   36.9440    0.0285 C.3       3 GLC5        0.0000 
     33 CA         44.9570   36.2690    1.3940 C.3       6 GLP5        0.0000 
     34 CA         48.8075   44.4850   -2.0880 C.3       3 GLC5        0.0000 
     35 CA         50.8970   44.5630   -1.5350 C.3       9 GLL5        0.0000 
     36 CA         46.7180   44.4070   -2.6410 C.3       6 GLP5        0.0000 
     37 CA         52.6785   48.1495   -4.2400 C.3       3 GLC5        0.0000 
     38 CA         54.3920   48.3820   -3.0670 C.3       9 GLL5        0.0000 
     39 CA         50.9650   47.9170   -5.4130 C.3       6 GLP5        0.0000 
     40 CA         57.8005   51.0670   -3.8640 C.3       3 GLC5        0.0000 
     41 CA         56.6460   49.3750   -3.2480 C.3       9 GLL5        0.0000 
     42 CA         58.9550   52.7590   -4.4800 C.3       6 GLP5        0.0000 
     43 CA         57.5735   46.4105   -0.6905 C.3       3 GLC5        0.0000 
     44 CA         56.1290   47.7590   -1.4260 C.3       9 GLL5        0.0000 
     45 CA         59.0180   45.0620    0.0450 C.3       6 GLP5        0.0000 
     46 CA         56.1705   48.4170    0.6445 C.3       3 GLC5        0.0000 
     47 CA         56.2120   49.0750    2.7150 C.3       6 GLP5        0.0000 
     48 CA         54.5465   48.9305   -0.5725 C.3       3 GLC5        0.0000 
     49 CA         52.9640   50.1020    0.2810 C.3       6 GLP5        0.0000 
     50 CA         49.7560   38.5733   -1.4163 C.3       3 GLC5        0.0000 
     51 CA         48.4850   39.6010   -1.3400 C.3       9 GLL5        0.0000 
     52 CA         47.2275   41.0322   -1.6562 C.3       3 GLC5        0.0000 
     53 CA         46.0960   42.3630   -1.2760 C.3       6 GLP5        0.0000 
     54 CA         47.8708   41.7097   -1.1440 C.3       3 GLC5        0.0000 
     55 CA         49.3370   40.5010   -0.6690 C.3       9 GLL5        0.0000 
     56 CA         50.6143   40.6495   -4.2788 C.3       3 GLC5        0.0000 
     57 CA         49.7000   41.8150   -2.7520 C.3       9 GLL5        0.0000 
     58 CA         51.9690   39.9460   -5.4580 C.3       6 GLP5        0.0000 
     59 CA         50.9184   39.9849   -1.5340 C.3       3 GLC5        0.0000 
     60 CA         52.1640   38.5340   -1.1860 C.3       6 GLP5        0.0000 
     61 CA         47.6528   42.1795   -2.8773 C.3       3 GLC5        0.0000 
     62 CA         46.0460   43.0060   -2.6550 C.3       6 GLP5        0.0000 
     63 CA         50.5160   45.3595   -3.5897 C.3       3 GLC5        0.0000 
     64 CA         51.1890   43.8950   -2.9040 C.3       9 GLL5        0.0000 
     65 CA         49.9890   46.4900   -4.9600 C.3       6 GLP5        0.0000 
     66 CA         52.3280   43.4155   -1.2283 C.3       3 GLC5        0.0000 
     67 CA         49.9770   45.7698    0.0935 C.3       3 GLC5        0.0000 
     68 CA         48.5920   46.4980    1.4690 C.3       6 GLP5        0.0000 
     69 CA         51.2022   46.0870   -3.1830 C.3       3 GLC5        0.0000 
     70 CA         51.8270   45.5200   -1.0290 C.3       9 GLL5        0.0000 
     71 CA         53.0142   44.1430   -0.8215 C.3       3 GLC5        0.0000 
     72 CA         53.0040   45.8480   -1.7830 C.3       9 GLL5        0.0000 
     73 CA         52.2252   47.8110   -1.1515 C.3       3 GLC5        0.0000 
     74 CA         52.0350   49.9380   -0.8970 C.3       6 GLP5        0.0000 
     75 CA         51.3960   45.6125   -4.1463 C.3       3 GLC5        0.0000 
     76 CA         53.2520   45.2140   -3.0600 C.3       9 GLL5        0.0000 
     77 CA         53.4795   44.9555   -4.9582 C.3       3 GLC5        0.0000 
     78 CA         52.3540   44.2560   -3.6050 C.3       9 GLL5        0.0000 
     79 CA         54.1560   45.1760   -6.5840 C.3       6 GLP5        0.0000 
     80 CA         53.2080   43.6685   -1.7848 C.3       3 GLC5        0.0000 
     81 CA         54.4742   49.0772   -5.2000 C.3       3 GLC5        0.0000 
     82 CA         54.0970   49.3380   -7.0000 C.3       6 GLP5        0.0000 
     83 CA         53.4931   49.2830   -2.0039 C.3       3 GLC5        0.0000 
     84 CA         55.3110   49.2510   -3.7330 C.3       9 GLL5        0.0000 
@<TRIPOS>BOND
@<TRIPOS>SUBSTRUCTURE
     1 SEC2       10 GROUP        1 X    SEC  0     ROOT SEC X 2
     2 LYC4        7 GROUP        1 X    LYC  0     **** LYC X 4
     3 GLC5        1 GROUP        1 X    GLC  0     **** GLC X 6
     4 SEP2       12 GROUP        1 Y    SEP  0     ROOT SEP Y 9
     5 LYP4        9 GROUP        1 Y    LYP  0     **** LYP Y 11
     6 GLP5        3 GROUP        1 Y    GLP  0     **** GLP Y 13
     7 SEL2       11 GROUP        1 Z    SEL  0     ROOT SEL Z 16
     8 LYL4        8 GROUP        1 Z    LYL  0     **** LYL Z 18
     9 GLL5        2 GROUP        1 Z    GLL  0     **** GLL Z 20
@<TRIPOS>SET

