#    Name: 2prl_R2C_2_ligand
#    Modification time : Mon Mar 24 19:19:42 2014

@<TRIPOS>MOLECULE
2prl_R2C_2_ligand
   41    43     1     0     0
SMALL
NO_CHARGES


@<TRIPOS>ATOM
      1 C1         48.2330   39.8020   -2.7330 C.ar      1 R2C400      0.0000 
      2 C2         48.4850   39.6010   -1.3400 C.ar      1 R2C400      0.0000 
      3 C3         49.3370   40.5010   -0.6690 C.ar      1 R2C400      0.0000 
      4 C4         49.9540   41.6120   -1.3550 C.ar      1 R2C400      0.0000 
      5 C5         49.7000   41.8150   -2.7520 C.ar      1 R2C400      0.0000 
      6 C6         48.8190   40.8910   -3.4470 C.ar      1 R2C400      0.0000 
      7 C7         48.4890   41.0270   -4.9110 C.2       1 R2C400      0.0000 
      8 O8         47.4490   40.4270   -5.4440 O.co2     1 R2C400      0.0000 
      9 O9         49.2180   41.7200   -5.6180 O.co2     1 R2C400      0.0000 
     10 O10        47.9230   38.5450   -0.6470 O.3       1 R2C400      0.0000 
     11 C11        47.0670   37.6190   -1.3370 C.3       1 R2C400      0.0000 
     12 N12        50.2970   42.9180   -3.4770 N.pl3     1 R2C400      0.0000 
     13 C13        51.1890   43.8950   -2.9040 C.ar      1 R2C400      0.0000 
     14 C14        50.8970   44.5630   -1.5350 C.ar      1 R2C400      0.0000 
     15 C15        51.8270   45.5200   -1.0290 C.ar      1 R2C400      0.0000 
     16 C16        53.0040   45.8480   -1.7830 C.ar      1 R2C400      0.0000 
     17 C17        53.2520   45.2140   -3.0600 C.ar      1 R2C400      0.0000 
     18 C18        52.3540   44.2560   -3.6050 C.ar      1 R2C400      0.0000 
     19 O19        53.9410   46.7440   -1.2130 O.3       1 R2C400      0.0000 
     20 C20        54.7910   47.6280   -1.9100 C.ar      1 R2C400      0.0000 
     21 C21        54.3920   48.3820   -3.0670 C.ar      1 R2C400      0.0000 
     22 C22        55.3110   49.2510   -3.7330 C.ar      1 R2C400      0.0000 
     23 C23        56.6460   49.3750   -3.2480 C.ar      1 R2C400      0.0000 
     24 C24        57.0470   48.6280   -2.0960 C.ar      1 R2C400      0.0000 
     25 C25        56.1290   47.7590   -1.4260 C.ar      1 R2C400      0.0000 
     26 H          47.6172   39.1488   -3.2300 H         1 R2C400      0.0000 
     27 H          49.5332   40.3765    0.3320 H         1 R2C400      0.0000 
     28 H          50.5612   42.2411   -0.8493 H         1 R2C400      0.0000 
     29 H          50.0616   43.0101   -4.4921 H         1 R2C400      0.0000 
     30 H          50.0709   44.2945   -1.0670 H         1 R2C400      0.0000 
     31 H          51.6596   45.9715   -0.1352 H         1 R2C400      0.0000 
     32 H          54.1005   45.4697   -3.5769 H         1 R2C400      0.0000 
     33 H          52.5619   43.8309   -4.5117 H         1 R2C400      0.0000 
     34 H          53.4362   48.2930   -3.4160 H         1 R2C400      0.0000 
     35 H          55.0129   49.7768   -4.5475 H         1 R2C400      0.0000 
     36 H          57.3052   49.9853   -3.7130 H         1 R2C400      0.0000 
     37 H          58.0032   48.7162   -1.7463 H         1 R2C400      0.0000 
     38 H          56.4281   47.2374   -0.6092 H         1 R2C400      0.0000 
     39 H          47.5437   37.1608   -2.0872 H         1 R2C400      0.0000 
     40 H          46.7249   36.9042   -0.7271 H         1 R2C400      0.0000 
     41 H          46.2689   38.0743   -1.7316 H         1 R2C400      0.0000 
@<TRIPOS>BOND
     1    2    1 ar   
     2    6    1 ar   
     3   26    1 1    
     4    3    2 ar   
     5   10    2 1    
     6    4    3 ar   
     7   27    3 1    
     8    5    4 ar   
     9   28    4 1    
    10    6    5 ar   
    11   12    5 1    
    12    7    6 1    
    13    8    7 ar   
    14    9    7 ar   
    15   11   10 1    
    16   39   11 1    
    17   40   11 1    
    18   41   11 1    
    19   13   12 1    
    20   29   12 1    
    21   14   13 ar   
    22   18   13 ar   
    23   15   14 ar   
    24   30   14 1    
    25   16   15 ar   
    26   31   15 1    
    27   17   16 ar   
    28   19   16 1    
    29   18   17 ar   
    30   32   17 1    
    31   33   18 1    
    32   20   19 1    
    33   21   20 ar   
    34   25   20 ar   
    35   22   21 ar   
    36   34   21 1    
    37   23   22 ar   
    38   35   22 1    
    39   24   23 ar   
    40   36   23 1    
    41   25   24 ar   
    42   37   24 1    
    43   38   25 1    
@<TRIPOS>SUBSTRUCTURE
     1 R2C400      1 GROUP   
@<TRIPOS>SET

