#    Name: 3ia6_UNT_1_INTS_M
#    Modification time : Tue Mar 25 16:02:50 2014

@<TRIPOS>MOLECULE
3ia6_UNT_1_INTS_M
   72     0     6     0     0
SMALL
NO_CHARGES


@<TRIPOS>ATOM
      1 N          21.3305   62.5100   19.7175 N.am      1 SEC2        0.0000 
      2 N          20.1120   63.1870   20.2090 N.am      5 SEL2        0.0000 
      3 N          22.5490   61.8330   19.2260 N.am      3 SEP2        0.0000 
      4 N          20.2380   62.4630   21.3535 N.am      1 SEC2        0.0000 
      5 N          20.3640   61.7390   22.4980 N.am      3 SEP2        0.0000 
      6 N          16.7160   63.4720   19.9265 N.am      1 SEC2        0.0000 
      7 N          17.8920   63.5780   20.5050 N.am      5 SEL2        0.0000 
      8 N          15.5400   63.3660   19.3480 N.am      3 SEP2        0.0000 
      9 N          17.7345   62.5530   21.4020 N.am      1 SEC2        0.0000 
     10 N          17.5770   61.5280   22.2990 N.am      3 SEP2        0.0000 
     11 CA         18.0590   61.1610   19.8215 C.3       2 GLC5        0.0000 
     12 CA         18.6030   62.0530   17.8940 C.3       6 GLL5        0.0000 
     13 CA         17.5150   60.2690   21.7490 C.3       4 GLP5        0.0000 
     14 CA         18.9030   60.0175   17.7335 C.3       2 GLC5        0.0000 
     15 CA         19.2030   57.9820   17.5730 C.3       4 GLP5        0.0000 
     16 CA         19.0285   60.4850   11.4735 C.3       2 GLC5        0.0000 
     17 CA         17.5050   61.5320   12.2670 C.3       6 GLL5        0.0000 
     18 CA         20.5520   59.4380   10.6800 C.3       4 GLP5        0.0000 
     19 CA         14.7815   63.2515   12.3225 C.3       2 GLC5        0.0000 
     20 CA         16.5400   62.5180   11.6710 C.3       6 GLL5        0.0000 
     21 CA         13.0230   63.9850   12.9740 C.3       4 GLP5        0.0000 
     22 CA         19.7680   64.0865   10.5420 C.3       2 GLC5        0.0000 
     23 CA         19.6910   63.1950    8.8590 C.3       6 GLL5        0.0000 
     24 CA         19.8450   64.9780   12.2250 C.3       4 GLP5        0.0000 
     25 CA         18.9885   61.6470    7.6815 C.3       2 GLC5        0.0000 
     26 CA         18.2860   60.0990    6.5040 C.3       4 GLP5        0.0000 
     27 CA         20.1895   64.1715    7.0825 C.3       2 GLC5        0.0000 
     28 CA         20.6880   65.1480    5.3060 C.3       4 GLP5        0.0000 
     29 CA         21.4530   63.2995    8.1210 C.3       2 GLC5        0.0000 
     30 CA         23.2150   63.4040    7.3830 C.3       4 GLP5        0.0000 
     31 CA         20.1215   61.3165    9.7695 C.3       2 GLC5        0.0000 
     32 CA         16.4245   65.3785    7.4480 C.3       2 GLC5        0.0000 
     33 CA         16.9140   67.0690    8.6560 C.3       6 GLL5        0.0000 
     34 CA         15.9350   63.6880    6.2400 C.3       4 GLP5        0.0000 
     35 CA         18.7480   67.1660    6.4230 C.3       2 GLC5        0.0000 
     36 CA         17.8920   67.8860    8.1270 C.3       6 GLL5        0.0000 
     37 CA         19.6040   66.4460    4.7190 C.3       4 GLP5        0.0000 
     38 CA         15.1585   66.0225    7.3980 C.3       2 GLC5        0.0000 
     39 CA         15.6520   67.5770    8.8790 C.3       6 GLL5        0.0000 
     40 CA         14.6650   64.4680    5.9170 C.3       4 GLP5        0.0000 
     41 CA         17.0180   63.5505   18.2042 C.3       2 GLC5        0.0000 
     42 CA         18.7030   63.5170   18.3010 C.3       6 GLL5        0.0000 
     43 CA         15.3830   64.3160   18.3110 C.3       4 GLP5        0.0000 
     44 CA         16.5007   63.1475   17.2580 C.3       2 GLC5        0.0000 
     45 CA         16.9700   62.0320   15.9730 C.3       6 GLL5        0.0000 
     46 CA         18.1788   63.6598   13.9900 C.3       2 GLC5        0.0000 
     47 CA         16.6920   61.9110   14.6290 C.3       6 GLL5        0.0000 
     48 CA         19.1520   65.5220   13.7990 C.3       4 GLP5        0.0000 
     49 CA         16.0836   60.4725   16.4170 C.3       2 GLC5        0.0000 
     50 CA         15.0120   59.0000   17.4170 C.3       4 GLP5        0.0000 
     51 CA         17.9607   59.6593   13.3908 C.3       2 GLC5        0.0000 
     52 CA         17.7190   61.6840   13.7330 C.3       6 GLL5        0.0000 
     53 CA         17.5570   57.6890   12.8180 C.3       4 GLP5        0.0000 
     54 CA         19.9513   61.0562   12.8528 C.3       2 GLC5        0.0000 
     55 CA         21.5380   60.4830   11.7420 C.3       4 GLP5        0.0000 
     56 CA         19.1487   63.5783   14.3313 C.3       2 GLC5        0.0000 
     57 CA         19.0100   61.5750   14.1940 C.3       6 GLL5        0.0000 
     58 CA         18.4337   63.5015   12.0970 C.3       2 GLC5        0.0000 
     59 CA         16.2161   60.3552   11.2695 C.3       2 GLC5        0.0000 
     60 CA         15.5700   58.4860   11.4690 C.3       4 GLP5        0.0000 
     61 CA         18.8392   64.3982   10.7797 C.3       2 GLC5        0.0000 
     62 CA         17.2150   63.6770    9.6000 C.3       6 GLL5        0.0000 
     63 CA         16.8201   63.5966    7.8586 C.3       2 GLC5        0.0000 
     64 CA         18.4520   63.9600    9.0690 C.3       6 GLL5        0.0000 
     65 CA         17.2915   68.5033   10.1023 C.3       2 GLC5        0.0000 
     66 CA         17.1800   69.5290   11.8130 C.3       4 GLP5        0.0000 
     67 CA         19.6375   68.9112    8.7048 C.3       2 GLC5        0.0000 
     68 CA         21.5260   69.2800    9.4350 C.3       4 GLP5        0.0000 
     69 CA         17.0772   69.4895    9.8735 C.3       2 GLC5        0.0000 
     70 CA         17.6060   69.1990    7.8220 C.3       6 GLL5        0.0000 
     71 CA         16.3440   68.8810   10.2698 C.3       2 GLC5        0.0000 
     72 CA         15.3640   68.8890    8.5740 C.3       6 GLL5        0.0000 
@<TRIPOS>BOND
@<TRIPOS>SUBSTRUCTURE
     1 SEC2        1 GROUP        1 X    SEC  0     ROOT SEC X 2
     2 GLC5       11 GROUP        1 X    GLC  0     **** GLC X 6
     3 SEP2        3 GROUP        1 Y    SEP  0     ROOT SEP Y 9
     4 GLP5       13 GROUP        1 Y    GLP  0     **** GLP Y 13
     5 SEL2        2 GROUP        1 Z    SEL  0     ROOT SEL Z 16
     6 GLL5       12 GROUP        1 Z    GLL  0     **** GLL Z 20
@<TRIPOS>SET

