#    Name: 3ia6_UNT_1_ligand
#    Modification time : Tue Mar 25 16:02:50 2014

@<TRIPOS>MOLECULE
3ia6_UNT_1_ligand
   54    57     1     0     0
SMALL
NO_CHARGES


@<TRIPOS>ATOM
      1 O1         20.1120   63.1870   20.2090 O.co2     1 UNT1        0.0000 
      2 C2         18.9330   63.4150   19.8110 C.2       1 UNT1        0.0000 
      3 O3         17.8920   63.5780   20.5050 O.co2     1 UNT1        0.0000 
      4 C4         18.7030   63.5170   18.3010 C.3       1 UNT1        0.0000 
      5 N5         19.8650   64.1860   17.7290 N.pl3     1 UNT1        0.0000 
      6 N6         19.8420   65.5210   17.5970 N.2       1 UNT1        0.0000 
      7 C7         21.0370   65.7440   17.0510 C.2       1 UNT1        0.0000 
      8 C8         21.7190   64.5160   16.8840 C.2       1 UNT1        0.0000 
      9 N9         20.9550   63.5160   17.3230 N.2       1 UNT1        0.0000 
     10 C10        18.6030   62.0530   17.8940 C.3       1 UNT1        0.0000 
     11 C11        18.2670   61.9260   16.4370 C.ar      1 UNT1        0.0000 
     12 C12        16.9700   62.0320   15.9730 C.ar      1 UNT1        0.0000 
     13 C13        16.6920   61.9110   14.6290 C.ar      1 UNT1        0.0000 
     14 C14        17.7190   61.6840   13.7330 C.ar      1 UNT1        0.0000 
     15 C15        19.0100   61.5750   14.1940 C.ar      1 UNT1        0.0000 
     16 C16        19.2810   61.6940   15.5330 C.ar      1 UNT1        0.0000 
     17 C17        17.5050   61.5320   12.2670 C.3       1 UNT1        0.0000 
     18 C18        16.5400   62.5180   11.6710 C.3       1 UNT1        0.0000 
     19 C19        16.7020   62.4240   10.1710 C.3       1 UNT1        0.0000 
     20 C20        17.2150   63.6770    9.6000 C.2       1 UNT1        0.0000 
     21 N21        16.4230   64.7950    9.5350 N.2       1 UNT1        0.0000 
     22 C22        17.2020   65.6960    8.9790 C.2       1 UNT1        0.0000 
     23 O23        18.4500   65.2560    8.6670 O.3       1 UNT1        0.0000 
     24 C24        18.4520   63.9600    9.0690 C.2       1 UNT1        0.0000 
     25 C25        19.6910   63.1950    8.8590 C.3       1 UNT1        0.0000 
     26 C26        16.9140   67.0690    8.6560 C.ar      1 UNT1        0.0000 
     27 C27        17.8920   67.8860    8.1270 C.ar      1 UNT1        0.0000 
     28 C28        17.6060   69.1990    7.8220 C.ar      1 UNT1        0.0000 
     29 C29        16.3430   69.7010    8.0460 C.ar      1 UNT1        0.0000 
     30 C30        15.3640   68.8890    8.5740 C.ar      1 UNT1        0.0000 
     31 C31        15.6520   67.5770    8.8790 C.ar      1 UNT1        0.0000 
     32 H          17.8019   64.0024   18.1339 H         1 UNT1        0.0000 
     33 H          21.4194   66.5914   16.7935 H         1 UNT1        0.0000 
     34 H          22.6043   64.4593   16.5042 H         1 UNT1        0.0000 
     35 H          17.8303   61.5695   18.4960 H         1 UNT1        0.0000 
     36 H          19.5571   61.5621   18.0984 H         1 UNT1        0.0000 
     37 H          16.1991   62.2044   16.6444 H         1 UNT1        0.0000 
     38 H          15.7216   61.9893   14.2912 H         1 UNT1        0.0000 
     39 H          19.7819   61.4018   13.5238 H         1 UNT1        0.0000 
     40 H          20.2584   61.6090   15.8719 H         1 UNT1        0.0000 
     41 H          17.1435   60.5026   12.0526 H         1 UNT1        0.0000 
     42 H          18.4805   61.6230   11.7413 H         1 UNT1        0.0000 
     43 H          16.7813   63.5134   11.9991 H         1 UNT1        0.0000 
     44 H          15.5326   62.2573   11.9430 H         1 UNT1        0.0000 
     45 H          15.7261   62.1735    9.7272 H         1 UNT1        0.0000 
     46 H          17.3861   61.5922    9.9429 H         1 UNT1        0.0000 
     47 H          18.8403   67.5119    7.9596 H         1 UNT1        0.0000 
     48 H          18.3403   69.8078    7.4246 H         1 UNT1        0.0000 
     49 H          16.1306   70.6853    7.8182 H         1 UNT1        0.0000 
     50 H          14.4168   69.2625    8.7408 H         1 UNT1        0.0000 
     51 H          14.9160   66.9679    9.2784 H         1 UNT1        0.0000 
     52 H          20.4021   63.7507    8.4282 H         1 UNT1        0.0000 
     53 H          20.0673   62.8537    9.7204 H         1 UNT1        0.0000 
     54 H          19.5419   62.4012    8.2694 H         1 UNT1        0.0000 
@<TRIPOS>BOND
     1    2    1 ar   
     2    3    2 ar   
     3    4    2 1    
     4    5    4 1    
     5   10    4 1    
     6   32    4 1    
     7    6    5 1    
     8    9    5 1    
     9    7    6 2    
    10    8    7 1    
    11   33    7 1    
    12    9    8 2    
    13   34    8 1    
    14   11   10 1    
    15   35   10 1    
    16   36   10 1    
    17   12   11 ar   
    18   16   11 ar   
    19   13   12 ar   
    20   37   12 1    
    21   14   13 ar   
    22   38   13 1    
    23   15   14 ar   
    24   17   14 1    
    25   16   15 ar   
    26   39   15 1    
    27   40   16 1    
    28   18   17 1    
    29   41   17 1    
    30   42   17 1    
    31   19   18 1    
    32   43   18 1    
    33   44   18 1    
    34   20   19 1    
    35   45   19 1    
    36   46   19 1    
    37   21   20 1    
    38   24   20 2    
    39   22   21 2    
    40   23   22 1    
    41   26   22 1    
    42   24   23 1    
    43   25   24 1    
    44   52   25 1    
    45   53   25 1    
    46   54   25 1    
    47   27   26 ar   
    48   31   26 ar   
    49   28   27 ar   
    50   47   27 1    
    51   29   28 ar   
    52   48   28 1    
    53   30   29 ar   
    54   49   29 1    
    55   31   30 ar   
    56   50   30 1    
    57   51   31 1    
@<TRIPOS>SUBSTRUCTURE
     1 UNT1        1 GROUP   
@<TRIPOS>SET

