#    Name: 4hi0_GDP_1_INTS_M
#    Modification time : Tue Mar 25 01:06:11 2014

@<TRIPOS>MOLECULE
4hi0_GDP_1_INTS_M
   59     0    12     0     0
SMALL
NO_CHARGES


@<TRIPOS>ATOM
      1 NZ        -40.6000    3.9280   34.8135 N.4       3 LYC4        0.0000 
      2 NZ        -41.7710    4.7690   34.4580 N.4      11 LYL4        0.0000 
      3 NZ        -39.4290    3.0870   35.1690 N.4       7 LYP4        0.0000 
      4 N         -42.8145    5.8165   35.0900 N.am      2 SEC2        0.0000 
      5 N         -41.7710    4.7690   34.4580 N.am     10 SEL2        0.0000 
      6 N         -43.8580    6.8640   35.7220 N.am      6 SEP2        0.0000 
      7 N         -41.6020    6.1585   34.4030 N.am      2 SEC2        0.0000 
      8 N         -41.4330    7.5480   34.3480 N.am      6 SEP2        0.0000 
      9 N         -40.6000    3.9280   34.8135 N.am      2 SEC2        0.0000 
     10 N         -39.4290    3.0870   35.1690 N.am      6 SEP2        0.0000 
     11 NZ        -41.1600    2.9620   34.2950 N.4       3 LYC4        0.0000 
     12 NZ        -42.8910    2.8370   33.4210 N.4      11 LYL4        0.0000 
     13 N         -43.4400    2.4270   34.6630 N.am      2 SEC2        0.0000 
     14 N         -42.8910    2.8370   33.4210 N.am     10 SEL2        0.0000 
     15 N         -43.9890    2.0170   35.9050 N.am      6 SEP2        0.0000 
     16 N         -41.6490    1.9880   33.5310 N.am      2 SEC2        0.0000 
     17 N         -40.4070    1.1390   33.6410 N.am      6 SEP2        0.0000 
     18 N         -41.5065    6.0590   31.7725 N.am      2 SEC2        0.0000 
     19 N         -42.0150    4.6790   32.0020 N.am     10 SEL2        0.0000 
     20 N         -40.9980    7.4390   31.5430 N.am      6 SEP2        0.0000 
     21 N         -43.9790    5.9520   34.6030 N.am      2 SEC2        0.0000 
     22 N         -44.1000    5.0400   33.4840 N.am     10 SEL2        0.0000 
     23 N         -43.6805    7.8645   30.9810 N.am      2 SEC2        0.0000 
     24 N         -44.3020    6.6100   31.4820 N.am     10 SEL2        0.0000 
     25 N         -43.0590    9.1190   30.4800 N.am      6 SEP2        0.0000 
     26 CA        -46.2355    3.8790   34.7655 C.3       4 GLC5        0.0000 
     27 CA        -47.2030    5.0570   33.5450 C.3      12 GLL5        0.0000 
     28 CA        -45.2680    2.7010   35.9860 C.3       8 GLP5        0.0000 
     29 CA        -48.4905    6.3220   35.5455 C.3       4 GLC5        0.0000 
     30 CA        -48.6490    5.5140   33.4690 C.3      12 GLL5        0.0000 
     31 CA        -48.3320    7.1300   37.6220 C.3       8 GLP5        0.0000 
     32 N         -48.8515    6.1805   35.9090 N.am      2 SEC2        0.0000 
     33 N         -48.8440    6.6200   34.3450 N.am     10 SEL2        0.0000 
     34 N         -48.8590    5.7410   37.4730 N.am      6 SEP2        0.0000 
     35 CA        -48.8870    7.4125   35.6230 C.3       4 GLC5        0.0000 
     36 CA        -49.4420    7.6950   33.6240 C.3      12 GLL5        0.0000 
     37 N         -46.6825   10.7615   35.9115 N.am      2 SEC2        0.0000 
     38 N         -47.8000   10.7730   34.7610 N.am     10 SEL2        0.0000 
     39 N         -45.5650   10.7500   37.0620 N.am      6 SEP2        0.0000 
     40 CA        -48.8155   10.1075   37.0960 C.3       4 GLC5        0.0000 
     41 CA        -48.9920   10.8690   35.4010 C.3      12 GLL5        0.0000 
     42 CA        -48.6390    9.3460   38.7910 C.3       8 GLP5        0.0000 
     43 CA        -50.0930   11.6455   33.9360 C.3       4 GLC5        0.0000 
     44 CA        -51.1940   12.4220   32.4710 C.3       8 GLP5        0.0000 
     45 N         -48.2790   13.9310   36.1290 N.am      2 SEC2        0.0000 
     46 N         -49.0730   12.8660   36.7060 N.am     10 SEL2        0.0000 
     47 N         -47.4850   14.9960   35.5520 N.am      6 SEP2        0.0000 
     48 O         -51.5440   12.4495   37.6220 O.2       1 ALC1        0.0000 
     49 O         -50.9030   11.5250   36.7450 O.2       9 ALL1        0.0000 
     50 O         -52.1850   13.3740   38.4990 O.2       5 ALP1        0.0000 
     51 O         -53.4640   11.2440   37.7185 O.2       1 ALC1        0.0000 
     52 O         -52.8130   10.1720   36.8120 O.2       9 ALL1        0.0000 
     53 O         -54.1150   12.3160   38.6250 O.2       5 ALP1        0.0000 
     54 CA        -49.0485    8.4030   36.3235 C.3       4 GLC5        0.0000 
     55 CA        -49.7650    9.6760   35.0250 C.3      12 GLL5        0.0000 
     56 CA        -51.0555   10.6395   34.0190 C.3       4 GLC5        0.0000 
     57 CA        -52.3460   11.6030   33.0130 C.3       8 GLP5        0.0000 
     58 CA        -48.4580    3.4358   34.4940 C.3       4 GLC5        0.0000 
     59 CA        -48.9900    1.5860   35.4810 C.3       8 GLP5        0.0000 
@<TRIPOS>BOND
@<TRIPOS>SUBSTRUCTURE
     1 ALC1       48 GROUP        1 X    ALC  0     ROOT ALC X 1
     2 SEC2        4 GROUP        1 X    SEC  0     **** SEC X 2
     3 LYC4        1 GROUP        1 X    LYC  0     **** LYC X 4
     4 GLC5       26 GROUP        1 X    GLC  0     **** GLC X 6
     5 ALP1       50 GROUP        1 Y    ALP  0     ROOT ALP Y 8
     6 SEP2        6 GROUP        1 Y    SEP  0     **** SEP Y 9
     7 LYP4        3 GROUP        1 Y    LYP  0     **** LYP Y 11
     8 GLP5       28 GROUP        1 Y    GLP  0     **** GLP Y 13
     9 ALL1       49 GROUP        1 Z    ALL  0     ROOT ALL Z 15
    10 SEL2        5 GROUP        1 Z    SEL  0     **** SEL Z 16
    11 LYL4        2 GROUP        1 Z    LYL  0     **** LYL Z 18
    12 GLL5       27 GROUP        1 Z    GLL  0     **** GLL Z 20
@<TRIPOS>SET

