#    Name: 4hi0_GDP_1_ligand
#    Modification time : Tue Mar 25 01:06:11 2014

@<TRIPOS>MOLECULE
4hi0_GDP_1_ligand
   40    42     1     0     0
SMALL
NO_CHARGES


@<TRIPOS>ATOM
      1 PB        -42.6660    4.3220   33.3200 P.3       1 GDP201      0.0000 
      2 O1B       -41.7710    4.7690   34.4580 O.co2     1 GDP201      0.0000 
      3 O2B       -42.8910    2.8370   33.4210 O.co2     1 GDP201      0.0000 
      4 O3B       -42.0150    4.6790   32.0020 O.co2     1 GDP201      0.0000 
      5 O3A       -44.1000    5.0400   33.4840 O.3       1 GDP201      0.0000 
      6 PA        -44.9990    5.4960   32.2260 P.3       1 GDP201      0.0000 
      7 O1A       -44.3020    6.6100   31.4820 O.co2     1 GDP201      0.0000 
      8 O2A       -45.3590    4.3120   31.3580 O.co2     1 GDP201      0.0000 
      9 O5'       -46.3380    6.0160   32.9460 O.3       1 GDP201      0.0000 
     10 C5'       -47.2030    5.0570   33.5450 C.3       1 GDP201      0.0000 
     11 C4'       -48.6490    5.5140   33.4690 C.3       1 GDP201      0.0000 
     12 O4'       -48.8440    6.6200   34.3450 O.3       1 GDP201      0.0000 
     13 C3'       -48.9880    6.0020   32.0730 C.3       1 GDP201      0.0000 
     14 O3'       -50.2900    5.5130   31.7670 O.3       1 GDP201      0.0000 
     15 C2'       -49.0080    7.5140   32.1810 C.3       1 GDP201      0.0000 
     16 O2'       -49.9230    8.1190   31.2580 O.3       1 GDP201      0.0000 
     17 C1'       -49.4420    7.6950   33.6240 C.3       1 GDP201      0.0000 
     18 N9        -48.9980    8.9760   34.2040 N.pl3     1 GDP201      0.0000 
     19 C8        -47.8210    9.6140   34.0470 C.2       1 GDP201      0.0000 
     20 N7        -47.8000   10.7730   34.7610 N.2       1 GDP201      0.0000 
     21 C5        -48.9920   10.8690   35.4010 C.2       1 GDP201      0.0000 
     22 C6        -49.6580   11.8230   36.3270 C.2       1 GDP201      0.0000 
     23 O6        -49.0730   12.8660   36.7060 O.2       1 GDP201      0.0000 
     24 N1        -50.9030   11.5250   36.7450 N.am      1 GDP201      0.0000 
     25 C2        -51.5590   10.4100   36.3540 C.2       1 GDP201      0.0000 
     26 N2        -52.8130   10.1720   36.8120 N.pl3     1 GDP201      0.0000 
     27 N3        -51.0130    9.4970   35.5140 N.2       1 GDP201      0.0000 
     28 C4        -49.7650    9.6760   35.0250 C.2       1 GDP201      0.0000 
     29 H         -46.9562    4.8951   34.6067 H         1 GDP201      0.0000 
     30 H         -47.1323    4.0780   33.0442 H         1 GDP201      0.0000 
     31 H         -49.2937    4.7016   33.7157 H         1 GDP201      0.0000 
     32 H         -48.2483    5.6957   31.4095 H         1 GDP201      0.0000 
     33 H         -48.0080    7.8629   32.0945 H         1 GDP201      0.0000 
     34 H         -50.5148    7.6147   33.6640 H         1 GDP201      0.0000 
     35 H         -47.0777    9.2937   33.4961 H         1 GDP201      0.0000 
     36 H         -51.3914   12.1927   37.4096 H         1 GDP201      0.0000 
     37 H         -53.2312    9.3111   36.5223 H         1 GDP201      0.0000 
     38 H         -53.2086   10.8785   37.3989 H         1 GDP201      0.0000 
     39 H         -50.7606    6.2828   31.3357 H         1 GDP201      0.0000 
     40 H         -49.3716    8.7699   30.7363 H         1 GDP201      0.0000 
@<TRIPOS>BOND
     1    2    1 ar   
     2    3    1 ar   
     3    4    1 ar   
     4    5    1 1    
     5    6    5 1    
     6    7    6 ar   
     7    8    6 ar   
     8    9    6 1    
     9   10    9 1    
    10   11   10 1    
    11   29   10 1    
    12   30   10 1    
    13   12   11 1    
    14   13   11 1    
    15   31   11 1    
    16   17   12 1    
    17   14   13 1    
    18   15   13 1    
    19   32   13 1    
    20   39   14 1    
    21   16   15 1    
    22   17   15 1    
    23   33   15 1    
    24   40   16 1    
    25   18   17 1    
    26   34   17 1    
    27   19   18 1    
    28   28   18 1    
    29   20   19 2    
    30   35   19 1    
    31   21   20 1    
    32   22   21 1    
    33   28   21 2    
    34   23   22 2    
    35   24   22 am   
    36   25   24 1    
    37   36   24 1    
    38   26   25 1    
    39   27   25 2    
    40   37   26 1    
    41   38   26 1    
    42   28   27 1    
@<TRIPOS>SUBSTRUCTURE
     1 GDP201      1 GROUP   
@<TRIPOS>SET

