#    Name: 1njj_ORX_4_INTS_M
#    Modification time : Mon Mar 24 18:23:58 2014

@<TRIPOS>MOLECULE
1njj_ORX_4_INTS_M
   60     0    15     0     0
SMALL
NO_CHARGES


@<TRIPOS>ATOM
      1 CA         19.4810   -1.4885   60.8425 C.3       5 GLC5        0.0000 
      2 CA         20.4840    0.2560   61.6450 C.3      15 GLL5        0.0000 
      3 CA         18.4780   -3.2330   60.0400 C.3      10 GLP5        0.0000 
      4 CA         22.2495    0.8560   63.8160 C.3       5 GLC5        0.0000 
      5 CA         20.7660   -0.4010   62.8410 C.3      15 GLL5        0.0000 
      6 CA         23.7330    2.1130   64.7910 C.3      10 GLP5        0.0000 
      7 CA         21.2815   -1.3120   64.3845 C.3       5 GLC5        0.0000 
      8 CA         21.7970   -2.2230   65.9280 C.3      10 GLP5        0.0000 
      9 CA         16.2520   -0.1570   61.3525 C.3       5 GLC5        0.0000 
     10 CA         18.1820    0.4060   62.1570 C.3      15 GLL5        0.0000 
     11 CA         14.3220   -0.7200   60.5480 C.3      10 GLP5        0.0000 
     12 CA         17.1075   -2.6685   65.4920 C.3       5 GLC5        0.0000 
     13 CA         17.5540   -0.7360   64.5870 C.3      15 GLL5        0.0000 
     14 CA         16.6610   -4.6010   66.3970 C.3      10 GLP5        0.0000 
     15 CA         18.6235    0.9185   64.5850 C.3       5 GLC5        0.0000 
     16 CA         19.6930    2.5730   64.5830 C.3      10 GLP5        0.0000 
     17 CA         23.5405   -0.6795   60.4345 C.3       5 GLC5        0.0000 
     18 CA         21.7460    0.4430   60.8530 C.3      15 GLL5        0.0000 
     19 CA         25.3350   -1.8020   60.0160 C.3      10 GLP5        0.0000 
     20 N          21.9785    0.9040   59.0930 N.am      2 SEC2        0.0000 
     21 N          22.1670    1.6900   60.5130 N.am     12 SEL2        0.0000 
     22 N          21.7900    0.1180   57.6730 N.am      7 SEP2        0.0000 
     23 NZ         24.6510    3.7800   58.8265 N.4       4 LYC4        0.0000 
     24 NZ         24.1270    3.2530   60.1630 N.4      14 LYL4        0.0000 
     25 NZ         24.4890    4.0530   56.3780 N.4       9 LYP4        0.0000 
     26 N          24.6510    3.7800   58.8265 N.am      2 SEC2        0.0000 
     27 N          24.1270    3.2530   60.1630 N.am     12 SEL2        0.0000 
     28 N          25.1750    4.3070   57.4900 N.am      7 SEP2        0.0000 
     29 NZ         24.1160    2.6380   57.5365 N.4       4 LYC4        0.0000 
     30 NZ         23.7430    1.2230   58.6950 N.4      14 LYL4        0.0000 
     31 N          25.1030    0.5210   58.6525 N.am      2 SEC2        0.0000 
     32 N          23.7430    1.2230   58.6950 N.am     12 SEL2        0.0000 
     33 N          26.4630   -0.1810   58.6100 N.am      7 SEP2        0.0000 
     34 N          22.7665    0.6705   58.1840 N.am      2 SEC2        0.0000 
     35 N          24.4995    2.3725   62.0580 N.am      2 SEC2        0.0000 
     36 N          24.5110    1.1220   61.0560 N.am     12 SEL2        0.0000 
     37 N          24.4880    3.6230   63.0600 N.am      7 SEP2        0.0000 
     38 N          25.0610   -0.0670   61.1950 N.am      2 SEC2        0.0000 
     39 N          25.6110   -1.2560   61.3340 N.am      7 SEP2        0.0000 
     40 N          25.4870    0.4705   59.8330 N.am      2 SEC2        0.0000 
     41 CA         20.7285    2.1695   55.3210 C.3       5 GLC5        0.0000 
     42 CA         18.8150    3.1410   54.9370 C.3      15 GLL5        0.0000 
     43 CA         22.6420    1.1980   55.7050 C.3      10 GLP5        0.0000 
     44 OD1        17.0760    3.6980   54.0820 O.co2     3 ASC3        0.0000 
     45 OD1        18.4500    4.0350   53.8160 O.co2    13 ASL3        0.0000 
     46 OD1        15.7020    3.3610   54.3480 O.co2     8 ASP3        0.0000 
     47 OD1        19.9830    4.6340   53.7760 O.co2     3 ASC3        0.0000 
     48 OD1        21.5160    5.2330   53.7360 O.co2     8 ASP3        0.0000 
     49 O          17.0760    3.6980   54.0820 O.2       1 ALC1        0.0000 
     50 O          18.4500    4.0350   53.8160 O.2      11 ALL1        0.0000 
     51 O          15.7020    3.3610   54.3480 O.2       6 ALP1        0.0000 
     52 CA         18.8315   -0.6603   59.6262 C.3       5 GLC5        0.0000 
     53 CA         18.9610    1.4620   59.8140 C.3      15 GLL5        0.0000 
     54 CA         18.5820   -2.4150   58.7550 C.3      10 GLP5        0.0000 
     55 CA         19.9986    1.3091   63.3550 C.3       5 GLC5        0.0000 
     56 CA         18.3945   -1.5910   61.4177 C.3       5 GLC5        0.0000 
     57 CA         18.4400   -0.3040   63.4340 C.3      15 GLL5        0.0000 
     58 CA         19.0020    1.3120   63.6893 C.3       5 GLC5        0.0000 
     59 CA         21.6407   -1.6589   61.3185 C.3       5 GLC5        0.0000 
     60 CA         22.0960   -3.5030   61.0890 C.3      10 GLP5        0.0000 
@<TRIPOS>BOND
@<TRIPOS>SUBSTRUCTURE
     1 ALC1       49 GROUP        1 X    ALC  0     ROOT ALC X 1
     2 SEC2       20 GROUP        1 X    SEC  0     **** SEC X 2
     3 ASC3       44 GROUP        1 X    ASC  0     **** ASC X 3
     4 LYC4       23 GROUP        1 X    LYC  0     **** LYC X 4
     5 GLC5        1 GROUP        1 X    GLC  0     **** GLC X 6
     6 ALP1       51 GROUP        1 Y    ALP  0     ROOT ALP Y 8
     7 SEP2       22 GROUP        1 Y    SEP  0     **** SEP Y 9
     8 ASP3       46 GROUP        1 Y    ASP  0     **** ASP Y 10
     9 LYP4       25 GROUP        1 Y    LYP  0     **** LYP Y 11
    10 GLP5        3 GROUP        1 Y    GLP  0     **** GLP Y 13
    11 ALL1       50 GROUP        1 Z    ALL  0     ROOT ALL Z 15
    12 SEL2       21 GROUP        1 Z    SEL  0     **** SEL Z 16
    13 ASL3       45 GROUP        1 Z    ASL  0     **** ASL Z 17
    14 LYL4       24 GROUP        1 Z    LYL  0     **** LYL Z 18
    15 GLL5        2 GROUP        1 Z    GLL  0     **** GLL Z 20
@<TRIPOS>SET

