#    Name: 1njj_ORX_4_ligand
#    Modification time : Mon Mar 24 18:23:58 2014

@<TRIPOS>MOLECULE
1njj_ORX_4_ligand
   43    43     1     0     0
SMALL
NO_CHARGES


@<TRIPOS>ATOM
      1 OA         16.7850    5.2780   58.5070 O.co2     1 ORX426      0.0000 
      2 CA         18.0920    5.1800   58.9060 C.2       1 ORX426      0.0000 
      3 OXT        18.7510    6.2850   59.3790 O.co2     1 ORX426      0.0000 
      4 CAA        18.8350    3.8230   58.8100 C.3       1 ORX426      0.0000 
      5 NA         18.4840    2.9090   60.0140 N.4       1 ORX426      0.0000 
      6 C4A        18.9610    1.4620   59.8140 C.3       1 ORX426      0.0000 
      7 C4         19.2010    0.7270   61.1810 C.ar      1 ORX426      0.0000 
      8 C5         20.4840    0.2560   61.6450 C.ar      1 ORX426      0.0000 
      9 C6         20.7660   -0.4010   62.8410 C.ar      1 ORX426      0.0000 
     10 N1         19.7500   -0.6760   63.7240 N.ar      1 ORX426      0.0000 
     11 C2         18.4400   -0.3040   63.4340 C.ar      1 ORX426      0.0000 
     12 C3         18.1820    0.4060   62.1570 C.ar      1 ORX426      0.0000 
     13 O3         16.8630    0.7040   62.0180 O.3       1 ORX426      0.0000 
     14 C2A        17.5540   -0.7360   64.5870 C.3       1 ORX426      0.0000 
     15 C5A        21.7460    0.4430   60.8530 C.3       1 ORX426      0.0000 
     16 OP4        22.1670    1.6900   60.5130 O.3       1 ORX426      0.0000 
     17 P          23.6890    1.8910   60.0480 P.3       1 ORX426      0.0000 
     18 OP1        24.1270    3.2530   60.1630 O.co2     1 ORX426      0.0000 
     19 OP2        23.7430    1.2230   58.6950 O.co2     1 ORX426      0.0000 
     20 OP3        24.5110    1.1220   61.0560 O.co2     1 ORX426      0.0000 
     21 CBA        18.4990    3.2010   57.4280 C.3       1 ORX426      0.0000 
     22 CGA        18.9660    3.9740   56.2070 C.3       1 ORX426      0.0000 
     23 CDA        18.8150    3.1410   54.9370 C.3       1 ORX426      0.0000 
     24 NE         18.4500    4.0350   53.8160 N.4       1 ORX426      0.0000 
     25 H          19.8998    4.0381   58.8296 H         1 ORX426      0.0000 
     26 H          19.8956    1.4592   59.2564 H         1 ORX426      0.0000 
     27 H          18.2126    0.9047   59.2538 H         1 ORX426      0.0000 
     28 H          21.7345   -0.6756   63.0540 H         1 ORX426      0.0000 
     29 H          21.6349   -0.2292   59.9216 H         1 ORX426      0.0000 
     30 H          22.5651   -0.1329   61.4267 H         1 ORX426      0.0000 
     31 H          17.3969    3.0630   57.3742 H         1 ORX426      0.0000 
     32 H          18.9312    2.1769   57.4000 H         1 ORX426      0.0000 
     33 H          20.0146    4.2496   56.3311 H         1 ORX426      0.0000 
     34 H          18.3763    4.8868   56.1079 H         1 ORX426      0.0000 
     35 H          18.0409    2.3957   55.0991 H         1 ORX426      0.0000 
     36 H          19.7578    2.6399   54.7348 H         1 ORX426      0.0000 
     37 H          17.5884   -1.7249   64.7315 H         1 ORX426      0.0000 
     38 H          17.8267   -0.3044   65.4469 H         1 ORX426      0.0000 
     39 H          16.5961   -0.4960   64.4295 H         1 ORX426      0.0000 
     40 H          17.4588    4.1332   53.7269 H         1 ORX426      0.0000 
     41 H          18.8259    4.9539   53.9362 H         1 ORX426      0.0000 
     42 H          18.7904    3.6912   52.9408 H         1 ORX426      0.0000 
     43 H          16.8371    1.6884   61.8440 H         1 ORX426      0.0000 
@<TRIPOS>BOND
     1    2    1 ar   
     2    3    2 ar   
     3    4    2 1    
     4    5    4 1    
     5   21    4 1    
     6   25    4 1    
     7    6    5 1    
     8    7    6 1    
     9   26    6 1    
    10   27    6 1    
    11    8    7 ar   
    12   12    7 ar   
    13    9    8 ar   
    14   15    8 1    
    15   10    9 ar   
    16   28    9 1    
    17   11   10 ar   
    18   12   11 ar   
    19   14   11 1    
    20   13   12 1    
    21   43   13 1    
    22   37   14 1    
    23   38   14 1    
    24   39   14 1    
    25   16   15 1    
    26   29   15 1    
    27   30   15 1    
    28   17   16 1    
    29   18   17 ar   
    30   19   17 ar   
    31   20   17 ar   
    32   22   21 1    
    33   31   21 1    
    34   32   21 1    
    35   23   22 1    
    36   33   22 1    
    37   34   22 1    
    38   24   23 1    
    39   35   23 1    
    40   36   23 1    
    41   40   24 1    
    42   41   24 1    
    43   42   24 1    
@<TRIPOS>SUBSTRUCTURE
     1 ORX426      1 GROUP   
@<TRIPOS>SET

