#    Name: 4gw2_ADP_1_INTS_M
#    Modification time : Mon Mar 24 23:53:12 2014

@<TRIPOS>MOLECULE
4gw2_ADP_1_INTS_M
   83     0    15     0     0
SMALL
NO_CHARGES


@<TRIPOS>ATOM
      1 Zn         25.2640   10.0835   37.1735 Zn        4 ZIC7        0.0000 
      2 Zn         24.3240    9.7870   37.4760 Zn       14 ZIL7        0.0000 
      3 Zn         26.2040   10.3800   36.8710 Zn        9 ZIP7        0.0000 
      4 N          23.7890    8.7870   36.5295 N.am      2 SEC2        0.0000 
      5 N          24.3240    9.7870   37.4760 N.am     12 SEL2        0.0000 
      6 N          23.2540    7.7870   35.5830 N.am      7 SEP2        0.0000 
      7 NZ         21.0720   11.9690   37.1470 N.4       3 LYC4        0.0000 
      8 NZ         22.1080   11.0770   37.6840 N.4      13 LYL4        0.0000 
      9 NZ         19.3170   13.0260   37.7100 N.4       8 LYP4        0.0000 
     10 N          20.8570   11.6980   38.2390 N.am      2 SEC2        0.0000 
     11 N          22.1080   11.0770   37.6840 N.am     12 SEL2        0.0000 
     12 N          19.6060   12.3190   38.7940 N.am      7 SEP2        0.0000 
     13 N          21.0720   11.9690   37.1470 N.am      2 SEC2        0.0000 
     14 N          20.0360   12.8610   36.6100 N.am      7 SEP2        0.0000 
     15 NZ         22.5845    7.5920   39.0970 N.4       3 LYC4        0.0000 
     16 NZ         22.6060    8.9760   39.1200 N.4      13 LYL4        0.0000 
     17 NZ         21.3740    6.1220   38.4840 N.4       8 LYP4        0.0000 
     18 NZ         22.1960    9.1485   40.4995 N.4       3 LYC4        0.0000 
     19 NZ         21.7560   10.4810   42.5290 N.4       8 LYP4        0.0000 
     20 N          21.6580    8.1045   38.6475 N.am      2 SEC2        0.0000 
     21 N          22.6060    8.9760   39.1200 N.am     12 SEL2        0.0000 
     22 N          20.7100    7.2330   38.1750 N.am      7 SEP2        0.0000 
     23 N          22.5845    7.5920   39.0970 N.am      2 SEC2        0.0000 
     24 N          22.5630    6.2080   39.0740 N.am      7 SEP2        0.0000 
     25 N          22.1960    9.1485   40.4995 N.am      2 SEC2        0.0000 
     26 N          21.7860    9.3210   41.8790 N.am      7 SEP2        0.0000 
     27 Zn         26.0715   11.2030   37.6850 Zn        4 ZIC7        0.0000 
     28 Zn         25.9390   12.0260   38.4990 Zn       14 ZIL7        0.0000 
     29 N          25.2625   11.2065   41.5345 N.am      2 SEC2        0.0000 
     30 N          25.3180   12.6440   40.9700 N.am     12 SEL2        0.0000 
     31 N          25.2070    9.7690   42.0990 N.am      7 SEP2        0.0000 
     32 N          26.4425   12.9795   41.8190 N.am      2 SEC2        0.0000 
     33 N          27.5670   13.3150   42.6680 N.am      7 SEP2        0.0000 
     34 N          22.7930   11.5245   40.6700 N.am      2 SEC2        0.0000 
     35 N          23.5890   11.4310   39.4530 N.am     12 SEL2        0.0000 
     36 N          21.9970   11.6180   41.8870 N.am      7 SEP2        0.0000 
     37 N          22.9590   17.1610   41.7325 N.am      2 SEC2        0.0000 
     38 N          22.8170   17.9920   40.3330 N.am     12 SEL2        0.0000 
     39 N          23.1010   16.3300   43.1320 N.am      7 SEP2        0.0000 
     40 O          23.3745   18.6720   41.4675 O.2       1 ALC1        0.0000 
     41 O          22.8170   17.9920   40.3330 O.2      11 ALL1        0.0000 
     42 O          23.9320   19.3520   42.6020 O.2       6 ALP1        0.0000 
     43 O          22.9590   17.1610   41.7325 O.2       1 ALC1        0.0000 
     44 O          23.1010   16.3300   43.1320 O.2       6 ALP1        0.0000 
     45 CA         19.5430   15.3040   39.1410 C.3       5 GLC5        0.0000 
     46 CA         21.5190   16.3360   39.3530 C.3      15 GLL5        0.0000 
     47 CA         17.5670   14.2720   38.9290 C.3      10 GLP5        0.0000 
     48 CA         20.9575   18.2075   38.8415 C.3       5 GLC5        0.0000 
     49 CA         20.3960   20.0790   38.3300 C.3      10 GLP5        0.0000 
     50 N          18.6100   13.8005   42.6020 N.am      2 SEC2        0.0000 
     51 N          19.4170   14.7880   42.0050 N.am     12 SEL2        0.0000 
     52 N          17.8030   12.8130   43.1990 N.am      7 SEP2        0.0000 
     53 CA         16.5530   15.2630   41.3285 C.3       5 GLC5        0.0000 
     54 CA         17.5210   16.5110   42.2820 C.3      15 GLL5        0.0000 
     55 CA         15.5850   14.0150   40.3750 C.3      10 GLP5        0.0000 
     56 O          15.8935   14.5680   43.8890 O.2       1 ALC1        0.0000 
     57 O          16.8240   15.8420   43.2650 O.2      11 ALL1        0.0000 
     58 O          14.9630   13.2940   44.5130 O.2       6 ALP1        0.0000 
     59 O          17.3135   14.3275   43.2320 O.2       1 ALC1        0.0000 
     60 O          17.8030   12.8130   43.1990 O.2       6 ALP1        0.0000 
     61 N          16.2875   18.7755   42.4340 N.am      2 SEC2        0.0000 
     62 N          17.0310   17.7190   41.8430 N.am     12 SEL2        0.0000 
     63 N          15.5440   19.8320   43.0250 N.am      7 SEP2        0.0000 
     64 CA         15.9655   19.1415   41.7890 C.3       5 GLC5        0.0000 
     65 CA         17.7640   18.3400   40.8680 C.3      15 GLL5        0.0000 
     66 CA         14.1670   19.9430   42.7100 C.3      10 GLP5        0.0000 
     67 CA         19.0800   19.2095   39.5990 C.3       5 GLC5        0.0000 
     68 CA         17.1335   18.1530   39.1510 C.3       5 GLC5        0.0000 
     69 CA         16.5030   17.9660   37.4340 C.3      10 GLP5        0.0000 
     70 CA         18.4080   18.6785   42.7945 C.3       5 GLC5        0.0000 
     71 CA         19.0520   19.0170   44.7210 C.3      10 GLP5        0.0000 
     72 CA         19.8805   18.4085   39.5295 C.3       5 GLC5        0.0000 
     73 CA         19.3650   16.7380   40.7290 C.3      15 GLL5        0.0000 
     74 CA         23.2055   13.7767   36.1843 C.3       5 GLC5        0.0000 
     75 CA         22.9800   15.3980   37.8390 C.3      15 GLL5        0.0000 
     76 CA         23.0550   12.8570   34.5080 C.3      10 GLP5        0.0000 
     77 CA         24.8197   15.9285   40.6170 C.3       5 GLC5        0.0000 
     78 CA         23.7310   16.5030   38.6250 C.3      15 GLL5        0.0000 
     79 CA         26.3260   15.2750   41.9570 C.3      10 GLP5        0.0000 
     80 CA         18.3023   15.3137   40.0815 C.3       5 GLC5        0.0000 
     81 CA         19.2476   17.1830   42.9474 C.3       5 GLC5        0.0000 
     82 CA         18.7100   15.9730   41.7390 C.3      15 GLL5        0.0000 
     83 CA         19.7550   17.8760   44.5250 C.3      10 GLP5        0.0000 
@<TRIPOS>BOND
@<TRIPOS>SUBSTRUCTURE
     1 ALC1       40 GROUP        1 X    ALC  0     ROOT ALC X 1
     2 SEC2        4 GROUP        1 X    SEC  0     **** SEC X 2
     3 LYC4        7 GROUP        1 X    LYC  0     **** LYC X 4
     4 ZIC7        1 GROUP        1 X    ZIC  0     **** ZIC X 5
     5 GLC5       45 GROUP        1 X    GLC  0     **** GLC X 6
     6 ALP1       42 GROUP        1 Y    ALP  0     ROOT ALP Y 8
     7 SEP2        6 GROUP        1 Y    SEP  0     **** SEP Y 9
     8 LYP4        9 GROUP        1 Y    LYP  0     **** LYP Y 11
     9 ZIP7        3 GROUP        1 Y    ZIP  0     **** ZIP Y 12
    10 GLP5       47 GROUP        1 Y    GLP  0     **** GLP Y 13
    11 ALL1       41 GROUP        1 Z    ALL  0     ROOT ALL Z 15
    12 SEL2        5 GROUP        1 Z    SEL  0     **** SEL Z 16
    13 LYL4        8 GROUP        1 Z    LYL  0     **** LYL Z 18
    14 ZIL7        2 GROUP        1 Z    ZIL  0     **** ZIL Z 19
    15 GLL5       46 GROUP        1 Z    GLL  0     **** GLL Z 20
@<TRIPOS>SET

