#    Name: 4gw2_ADP_1_ligand
#    Modification time : Mon Mar 24 23:53:12 2014

@<TRIPOS>MOLECULE
4gw2_ADP_1_ligand
   39    41     1     0     0
SMALL
NO_CHARGES


@<TRIPOS>ATOM
      1 PB         23.1220   10.1530   38.3200 P.3       1 ADP401      0.0000 
      2 O1B        24.3240    9.7870   37.4760 O.co2     1 ADP401      0.0000 
      3 O2B        22.1080   11.0770   37.6840 O.co2     1 ADP401      0.0000 
      4 O3B        22.6060    8.9760   39.1200 O.co2     1 ADP401      0.0000 
      5 PA         24.9300   12.1720   39.5930 P.3       1 ADP401      0.0000 
      6 O1A        25.9390   12.0260   38.4990 O.co2     1 ADP401      0.0000 
      7 O2A        25.3180   12.6440   40.9700 O.co2     1 ADP401      0.0000 
      8 O3A        23.5890   11.4310   39.4530 O.3       1 ADP401      0.0000 
      9 O5'        24.3690   13.8190   39.0400 O.3       1 ADP401      0.0000 
     10 C5'        23.7320   13.9950   37.8820 C.3       1 ADP401      0.0000 
     11 C4'        22.9800   15.3980   37.8390 C.3       1 ADP401      0.0000 
     12 O4'        21.7060   15.2810   38.4960 O.3       1 ADP401      0.0000 
     13 C3'        23.7310   16.5030   38.6250 C.3       1 ADP401      0.0000 
     14 O3'        23.6630   17.7310   37.9800 O.3       1 ADP401      0.0000 
     15 C2'        22.8960   16.6610   39.9290 C.3       1 ADP401      0.0000 
     16 O2'        22.8170   17.9920   40.3330 O.3       1 ADP401      0.0000 
     17 C1'        21.5190   16.3360   39.3530 C.3       1 ADP401      0.0000 
     18 N9         20.4770   16.0060   40.3700 N.pl3     1 ADP401      0.0000 
     19 C8         20.4710   14.8370   41.1670 C.2       1 ADP401      0.0000 
     20 N7         19.4170   14.7880   42.0050 N.2       1 ADP401      0.0000 
     21 C5         18.7100   15.9730   41.7390 C.ar      1 ADP401      0.0000 
     22 C6         17.5210   16.5110   42.2820 C.ar      1 ADP401      0.0000 
     23 N6         16.8240   15.8420   43.2650 N.pl3     1 ADP401      0.0000 
     24 N1         17.0310   17.7190   41.8430 N.ar      1 ADP401      0.0000 
     25 C2         17.7640   18.3400   40.8680 C.ar      1 ADP401      0.0000 
     26 N3         18.9010   17.9510   40.2600 N.ar      1 ADP401      0.0000 
     27 C4         19.3650   16.7380   40.7290 C.ar      1 ADP401      0.0000 
     28 H          22.9381   13.2476   37.6678 H         1 ADP401      0.0000 
     29 H          24.3880   14.0038   36.9852 H         1 ADP401      0.0000 
     30 H          22.8756   15.7013   36.8320 H         1 ADP401      0.0000 
     31 H          24.6751   16.1691   38.8861 H         1 ADP401      0.0000 
     32 H          23.1566   15.9584   40.6005 H         1 ADP401      0.0000 
     33 H          21.1962   17.2259   38.7934 H         1 ADP401      0.0000 
     34 H          21.1742   14.1570   41.0910 H         1 ADP401      0.0000 
     35 H          16.3469   16.4135   43.9326 H         1 ADP401      0.0000 
     36 H          16.8561   14.8433   43.2250 H         1 ADP401      0.0000 
     37 H          17.3516   19.3133   40.5320 H         1 ADP401      0.0000 
     38 H          23.4417   18.3892   38.6995 H         1 ADP401      0.0000 
     39 H          23.3469   18.0372   41.1799 H         1 ADP401      0.0000 
@<TRIPOS>BOND
     1    2    1 ar   
     2    3    1 ar   
     3    4    1 ar   
     4    8    1 1    
     5    6    5 ar   
     6    7    5 ar   
     7    8    5 1    
     8    9    5 1    
     9   10    9 1    
    10   11   10 1    
    11   28   10 1    
    12   29   10 1    
    13   12   11 1    
    14   13   11 1    
    15   30   11 1    
    16   17   12 1    
    17   14   13 1    
    18   15   13 1    
    19   31   13 1    
    20   38   14 1    
    21   16   15 1    
    22   17   15 1    
    23   32   15 1    
    24   39   16 1    
    25   18   17 1    
    26   33   17 1    
    27   19   18 1    
    28   27   18 1    
    29   20   19 2    
    30   34   19 1    
    31   21   20 1    
    32   22   21 ar   
    33   27   21 ar   
    34   23   22 1    
    35   24   22 ar   
    36   35   23 1    
    37   36   23 1    
    38   25   24 ar   
    39   26   25 ar   
    40   37   25 1    
    41   27   26 ar   
@<TRIPOS>SUBSTRUCTURE
     1 ADP401      1 GROUP   
@<TRIPOS>SET

