#    Name: 3l38_879_1_INTS_M
#    Modification time : Mon Mar 24 20:55:43 2014

@<TRIPOS>MOLECULE
3l38_879_1_INTS_M
   56     0     9     0     0
SMALL
NO_CHARGES


@<TRIPOS>ATOM
      1 CA         14.5885  -13.9580   16.5580 C.3       3 GLC5        0.0000 
      2 CA         14.9330  -12.1630   15.6050 C.3       9 GLL5        0.0000 
      3 CA         14.2440  -15.7530   17.5110 C.3       6 GLP5        0.0000 
      4 CA         12.9375  -12.3245   16.2590 C.3       3 GLC5        0.0000 
      5 CA         10.9420  -12.4860   16.9130 C.3       6 GLP5        0.0000 
      6 CA         13.2365  -11.3095   14.8090 C.3       3 GLC5        0.0000 
      7 CA         11.5400  -10.4560   14.0130 C.3       6 GLP5        0.0000 
      8 N          15.3565   -7.3220   14.3510 N.am      2 SEC2        0.0000 
      9 N          15.4440   -6.9370   15.5770 N.am      8 SEL2        0.0000 
     10 N          15.2690   -7.7070   13.1250 N.am      5 SEP2        0.0000 
     11 O          16.0275   -5.3015   13.5655 O.2       1 ALC1        0.0000 
     12 O          16.3060   -4.8580   14.8630 O.2       7 ALL1        0.0000 
     13 O          15.7490   -5.7450   12.2680 O.2       4 ALP1        0.0000 
     14 O          15.7875   -6.2825   13.9940 O.2       1 ALC1        0.0000 
     15 O          15.2690   -7.7070   13.1250 O.2       4 ALP1        0.0000 
     16 O          16.8190   -3.6345   14.9175 O.2       1 ALC1        0.0000 
     17 O          17.3320   -2.4110   14.9720 O.2       4 ALP1        0.0000 
     18 CA          8.6070   -3.2350   12.2455 C.3       3 GLC5        0.0000 
     19 CA          9.3800   -3.9420   13.8190 C.3       9 GLL5        0.0000 
     20 CA          7.8340   -2.5280   10.6720 C.3       6 GLP5        0.0000 
     21 CA          8.6300   -2.1940   12.7030 C.3       3 GLC5        0.0000 
     22 CA          9.4260   -1.8600   14.7340 C.3       9 GLL5        0.0000 
     23 CA         11.4880   -1.1750   14.8100 C.3       3 GLC5        0.0000 
     24 CA         13.5500   -0.4900   14.8860 C.3       6 GLP5        0.0000 
     25 CA          9.5395    0.2745   14.9660 C.3       3 GLC5        0.0000 
     26 CA          9.6530    2.4090   15.1980 C.3       6 GLP5        0.0000 
     27 CA         17.5270   -5.5255   14.4025 C.3       3 GLC5        0.0000 
     28 CA         15.9510   -5.7220   15.8940 C.3       9 GLL5        0.0000 
     29 CA         19.1030   -5.3290   12.9110 C.3       6 GLP5        0.0000 
     30 CA         13.0375   -9.7900   15.1030 C.3       3 GLC5        0.0000 
     31 CA         14.5350   -9.1240   16.1930 C.3       9 GLL5        0.0000 
     32 CA         17.3775  -13.1952   19.4112 C.3       3 GLC5        0.0000 
     33 CA         18.2990  -12.2610   17.7330 C.3       9 GLL5        0.0000 
     34 CA         16.6220  -14.4850   20.5140 C.3       6 GLP5        0.0000 
     35 CA         19.0082  -13.9842   17.6670 C.3       3 GLC5        0.0000 
     36 CA         17.3520  -12.4440   16.7270 C.3       9 GLL5        0.0000 
     37 CA         20.1910  -15.6160   18.1040 C.3       6 GLP5        0.0000 
     38 CA         16.4147  -12.7942   19.5260 C.3       3 GLC5        0.0000 
     39 CA         16.6890  -11.0150   19.0400 C.3       9 GLL5        0.0000 
     40 CA         10.7035   -9.3790   15.3277 C.3       3 GLC5        0.0000 
     41 CA         10.3130   -8.7400   16.9510 C.3       9 GLL5        0.0000 
     42 CA         10.2831   -7.1511   14.1116 C.3       3 GLC5        0.0000 
     43 CA          9.8620   -6.6260   15.8730 C.3       9 GLL5        0.0000 
     44 CA         10.5900   -7.1500   12.0810 C.3       6 GLP5        0.0000 
     45 CA          7.7233   -6.3690   16.2673 C.3       3 GLC5        0.0000 
     46 CA          5.8050   -5.4930   16.4310 C.3       6 GLP5        0.0000 
     47 CA         17.1745  -10.9320   15.1969 C.3       3 GLC5        0.0000 
     48 CA         16.0710  -11.9090   16.8800 C.3       9 GLL5        0.0000 
     49 CA         17.9220   -9.6240   13.9090 C.3       6 GLP5        0.0000 
     50 CA         16.6668  -13.3308   18.6587 C.3       3 GLC5        0.0000 
     51 CA          9.9138   -5.6863   13.2577 C.3       3 GLC5        0.0000 
     52 CA          9.0950   -4.5030   15.0500 C.3       9 GLL5        0.0000 
     53 CA          7.4245   -4.7773   16.0048 C.3       3 GLC5        0.0000 
     54 CA         11.8765   -9.5085   15.6692 C.3       3 GLC5        0.0000 
     55 CA         11.6550   -8.3930   17.1190 C.3       9 GLL5        0.0000 
     56 CA         16.3687   -9.0388   15.1468 C.3       3 GLC5        0.0000 
@<TRIPOS>BOND
@<TRIPOS>SUBSTRUCTURE
     1 ALC1       11 GROUP        1 X    ALC  0     ROOT ALC X 1
     2 SEC2        8 GROUP        1 X    SEC  0     **** SEC X 2
     3 GLC5        1 GROUP        1 X    GLC  0     **** GLC X 6
     4 ALP1       13 GROUP        1 Y    ALP  0     ROOT ALP Y 8
     5 SEP2       10 GROUP        1 Y    SEP  0     **** SEP Y 9
     6 GLP5        3 GROUP        1 Y    GLP  0     **** GLP Y 13
     7 ALL1       12 GROUP        1 Z    ALL  0     ROOT ALL Z 15
     8 SEL2        9 GROUP        1 Z    SEL  0     **** SEL Z 16
     9 GLL5        2 GROUP        1 Z    GLL  0     **** GLL Z 20
@<TRIPOS>SET

