#    Name: 3l38_879_1_ligand
#    Modification time : Mon Mar 24 20:55:43 2014

@<TRIPOS>MOLECULE
3l38_879_1_ligand
   53    57     1     0     0
SMALL
NO_CHARGES


@<TRIPOS>ATOM
      1 C1         17.9670  -11.5500   18.8840 C.ar      1 8791        0.0000 
      2 N1          9.5500   -2.6170   13.6260 N.ar      1 8791        0.0000 
      3 O1          8.9010   -5.8380   15.2770 O.3       1 8791        0.0000 
      4 CL1        14.9330  -12.1630   15.6050 Cl        1 8791        0.0000 
      5 C2         18.2990  -12.2610   17.7330 C.ar      1 8791        0.0000 
      6 N2          9.1510   -2.2870   15.9810 N.ar      1 8791        0.0000 
      7 C3         15.7650   -6.2060   18.2340 C.ar      1 8791        0.0000 
      8 N3         15.4440   -6.9370   15.5770 N.ar      1 8791        0.0000 
      9 C4         16.6890  -11.0150   19.0400 C.ar      1 8791        0.0000 
     10 N4         13.8380   -9.6860   17.3480 N.pl3     1 8791        0.0000 
     11 C5         12.0910   -7.1410   16.6490 C.ar      1 8791        0.0000 
     12 N5         16.3060   -4.8580   14.8630 N.pl3     1 8791        0.0000 
     13 C6         10.3130   -8.7400   16.9510 C.ar      1 8791        0.0000 
     14 C7         11.2010   -6.2550   16.0280 C.ar      1 8791        0.0000 
     15 C8          9.4210   -7.8640   16.3340 C.ar      1 8791        0.0000 
     16 C9         17.3520  -12.4440   16.7270 C.ar      1 8791        0.0000 
     17 C10        12.3000  -10.1120   18.9000 C.2       1 8791        0.0000 
     18 C11        13.4370  -10.9050   19.1700 C.2       1 8791        0.0000 
     19 C12        15.2440   -7.4540   17.9170 C.ar      1 8791        0.0000 
     20 C13        16.1270   -5.3260   17.2190 C.ar      1 8791        0.0000 
     21 C14         9.3800   -3.9420   13.8190 C.ar      1 8791        0.0000 
     22 C15         8.9930   -3.6200   16.1070 C.ar      1 8791        0.0000 
     23 C16         9.4260   -1.8600   14.7340 C.ar      1 8791        0.0000 
     24 C17        11.6550   -8.3930   17.1190 C.ar      1 8791        0.0000 
     25 C18        15.7260  -11.1920   18.0360 C.ar      1 8791        0.0000 
     26 C19         9.8620   -6.6260   15.8730 C.ar      1 8791        0.0000 
     27 C20         9.0950   -4.5030   15.0500 C.ar      1 8791        0.0000 
     28 C21        16.0710  -11.9090   16.8800 C.ar      1 8791        0.0000 
     29 C22        12.5530   -9.3550   17.7670 C.2       1 8791        0.0000 
     30 C23        14.3850  -10.6300   18.1990 C.2       1 8791        0.0000 
     31 C24        15.0960   -7.7830   16.5760 C.ar      1 8791        0.0000 
     32 C25        15.9510   -5.7220   15.8940 C.ar      1 8791        0.0000 
     33 C26        14.5350   -9.1240   16.1930 C.3       1 8791        0.0000 
     34 H          18.6703  -11.4183   19.6254 H         1 8791        0.0000 
     35 H          19.2439  -12.6514   17.6252 H         1 8791        0.0000 
     36 H          15.8834   -5.9318   19.2178 H         1 8791        0.0000 
     37 H          16.4492  -10.4907   19.8888 H         1 8791        0.0000 
     38 H          13.0796   -6.8740   16.7643 H         1 8791        0.0000 
     39 H          16.6331   -3.9543   15.1392 H         1 8791        0.0000 
     40 H          16.2035   -5.2152   13.9346 H         1 8791        0.0000 
     41 H           9.9782   -9.6565   17.2881 H         1 8791        0.0000 
     42 H          11.5280   -5.3483   15.6926 H         1 8791        0.0000 
     43 H           8.4351   -8.1332   16.2193 H         1 8791        0.0000 
     44 H          17.5926  -12.9673   15.8804 H         1 8791        0.0000 
     45 H          11.5061  -10.1089   19.4152 H         1 8791        0.0000 
     46 H          13.5201  -11.5097   19.8883 H         1 8791        0.0000 
     47 H          14.9781   -8.1091   18.6475 H         1 8791        0.0000 
     48 H          16.5135   -4.4093   17.4386 H         1 8791        0.0000 
     49 H           9.4669   -4.5990   12.9908 H         1 8791        0.0000 
     50 H           8.7785   -4.0257   17.0639 H         1 8791        0.0000 
     51 H           9.5634   -0.7850   14.6064 H         1 8791        0.0000 
     52 H          13.8503   -8.9960   15.3547 H         1 8791        0.0000 
     53 H          15.3521   -9.7748   15.8820 H         1 8791        0.0000 
@<TRIPOS>BOND
     1    5    1 ar   
     2    9    1 ar   
     3   34    1 1    
     4   21    2 ar   
     5   23    2 ar   
     6   26    3 1    
     7   27    3 1    
     8   28    4 1    
     9   16    5 ar   
    10   35    5 1    
    11   22    6 ar   
    12   23    6 ar   
    13   19    7 ar   
    14   20    7 ar   
    15   36    7 1    
    16   31    8 ar   
    17   32    8 ar   
    18   25    9 ar   
    19   37    9 1    
    20   29   10 1    
    21   30   10 1    
    22   33   10 1    
    23   14   11 ar   
    24   24   11 ar   
    25   38   11 1    
    26   32   12 1    
    27   39   12 1    
    28   40   12 1    
    29   15   13 ar   
    30   24   13 ar   
    31   41   13 1    
    32   26   14 ar   
    33   42   14 1    
    34   26   15 ar   
    35   43   15 1    
    36   28   16 ar   
    37   44   16 1    
    38   18   17 1    
    39   29   17 2    
    40   45   17 1    
    41   30   18 2    
    42   46   18 1    
    43   31   19 ar   
    44   47   19 1    
    45   32   20 ar   
    46   48   20 1    
    47   27   21 ar   
    48   49   21 1    
    49   27   22 ar   
    50   50   22 1    
    51   51   23 1    
    52   29   24 1    
    53   28   25 ar   
    54   30   25 1    
    55   33   31 1    
    56   52   33 1    
    57   53   33 1    
@<TRIPOS>SUBSTRUCTURE
     1 8791        1 GROUP   
@<TRIPOS>SET

