#    Name: 2c0i_L1G_1_INTS_M
#    Modification time : Mon Mar 24 22:04:37 2014

@<TRIPOS>MOLECULE
2c0i_L1G_1_INTS_M
  113     0    12     0     0
SMALL
NO_CHARGES


@<TRIPOS>ATOM
      1 CA          2.7965   63.0425   11.0265 C.3       4 GLC5        0.0000 
      2 CA          4.3210   63.9430   12.2930 C.3      12 GLL5        0.0000 
      3 CA          1.2720   62.1420    9.7600 C.3       8 GLP5        0.0000 
      4 CA          5.1520   62.5520    9.6485 C.3       4 GLC5        0.0000 
      5 CA          5.2240   63.0320   11.7340 C.3      12 GLL5        0.0000 
      6 CA          5.0800   62.0720    7.5630 C.3       8 GLP5        0.0000 
      7 CA          5.6960   62.9145   13.6195 C.3       4 GLC5        0.0000 
      8 CA          6.1680   62.7970   15.5050 C.3       8 GLP5        0.0000 
      9 CA          6.0305   66.5070   13.3360 C.3       4 GLC5        0.0000 
     10 CA          4.5870   65.3110   12.1450 C.3      12 GLL5        0.0000 
     11 CA          7.4740   67.7030   14.5270 C.3       8 GLP5        0.0000 
     12 CA          1.9165   65.3725   11.2475 C.3       4 GLC5        0.0000 
     13 CA          1.1750   64.3710   12.8640 C.3      12 GLL5        0.0000 
     14 CA          2.6580   66.3740    9.6310 C.3       8 GLP5        0.0000 
     15 N           6.6395   66.7155   11.5295 N.am      2 SEC2        0.0000 
     16 N           5.6860   65.6380   11.4690 N.am     10 SEL2        0.0000 
     17 N           7.5930   67.7930   11.5900 N.am      6 SEP2        0.0000 
     18 O           3.9645   67.7780   12.3795 O.2       1 ALC1        0.0000 
     19 O           3.8090   66.3360   12.6160 O.2       9 ALL1        0.0000 
     20 O           4.1200   69.2200   12.1430 O.2       5 ALP1        0.0000 
     21 CA          5.2300   61.2670    9.6095 C.3       4 GLC5        0.0000 
     22 CA          5.3800   60.4620   11.6560 C.3      12 GLL5        0.0000 
     23 CA          4.6000   65.5555   10.2855 C.3       4 GLC5        0.0000 
     24 CA          6.5420   64.7370   10.9400 C.3      12 GLL5        0.0000 
     25 CA          6.3260   66.9220   10.5595 C.3       4 GLC5        0.0000 
     26 CA          6.1100   69.1070   10.1790 C.3       8 GLP5        0.0000 
     27 CA          7.6895   66.1335   11.6515 C.3       4 GLC5        0.0000 
     28 CA          8.8370   67.5300   12.3630 C.3       8 GLP5        0.0000 
     29 CA          2.5340   60.1720   10.2860 C.3       4 GLC5        0.0000 
     30 CA          4.3660   59.5930   10.9080 C.3      12 GLL5        0.0000 
     31 CA          0.7020   60.7510    9.6640 C.3       8 GLP5        0.0000 
     32 CA          7.7720   60.8365   12.7795 C.3       4 GLC5        0.0000 
     33 CA          5.8450   59.7590   12.9500 C.3      12 GLL5        0.0000 
     34 CA          9.6990   61.9140   12.6090 C.3       8 GLP5        0.0000 
     35 CA          6.0065   61.2780   14.2275 C.3       4 GLC5        0.0000 
     36 CA          1.0260   66.3475   10.6540 C.3       4 GLC5        0.0000 
     37 CA         -0.6060   66.3210   11.6770 C.3      12 GLL5        0.0000 
     38 CA         -1.0710   66.1820    9.7940 C.3       4 GLC5        0.0000 
     39 CA         -1.5360   66.0430    7.9110 C.3       8 GLP5        0.0000 
     40 CA         -1.9590   64.8295   11.5930 C.3       4 GLC5        0.0000 
     41 CA         -3.3120   63.3380   11.5090 C.3       8 GLP5        0.0000 
     42 CA         -2.5575   66.9210   12.5860 C.3       4 GLC5        0.0000 
     43 CA         -4.5090   67.5210   13.4950 C.3       8 GLP5        0.0000 
     44 CA         -1.6790   68.0965   10.9930 C.3       4 GLC5        0.0000 
     45 CA         -2.7520   69.8720   10.3090 C.3       8 GLP5        0.0000 
     46 CA         -0.4500   67.5215   12.9900 C.3       4 GLC5        0.0000 
     47 CA         -0.2940   68.7220   14.3030 C.3       8 GLP5        0.0000 
     48 CA          3.5595   57.0940    9.3060 C.3       4 GLC5        0.0000 
     49 CA          4.9340   58.2130   10.6310 C.3      12 GLL5        0.0000 
     50 CA          2.1850   55.9750    7.9810 C.3       8 GLP5        0.0000 
     51 CA         -3.7985   66.5595   15.2340 C.3       4 GLC5        0.0000 
     52 CA         -3.0880   65.5980   16.9730 C.3      12 GLL5        0.0000 
     53 CA         -2.2410   64.4760   18.4470 C.3       4 GLC5        0.0000 
     54 CA         -1.3940   63.3540   19.9210 C.3       8 GLP5        0.0000 
     55 N          -0.4690   64.6920   18.4750 N.am      2 SEC2        0.0000 
     56 N          -0.8000   65.3360   17.3380 N.am     10 SEL2        0.0000 
     57 N          -0.1380   64.0480   19.6120 N.am      6 SEP2        0.0000 
     58 CA         -3.8705   63.3230   15.0320 C.3       4 GLC5        0.0000 
     59 CA         -4.2220   64.9580   16.5040 C.3      12 GLL5        0.0000 
     60 CA         -3.5190   61.6880   13.5600 C.3       8 GLP5        0.0000 
     61 CA         -0.2980   67.6565   18.2455 C.3       4 GLC5        0.0000 
     62 CA         -2.4390   67.3790   18.6290 C.3      12 GLL5        0.0000 
     63 CA          1.8430   67.9340   17.8620 C.3       8 GLP5        0.0000 
     64 CA         -1.9165   65.3665   19.2750 C.3       4 GLC5        0.0000 
     65 CA         -5.3310   69.3280   18.2160 C.3       4 GLC5        0.0000 
     66 CA         -5.6300   67.2900   18.9250 C.3      12 GLL5        0.0000 
     67 CA         -5.0320   71.3660   17.5070 C.3       8 GLP5        0.0000 
     68 OD1         8.9940   54.1160   12.6540 O.co2     3 ASC3        0.0000 
     69 OD1         7.7880   54.0210   11.5080 O.co2    11 ASL3        0.0000 
     70 OD1        10.2000   54.2110   13.8000 O.co2     7 ASP3        0.0000 
     71 OD1         8.6510   54.9240   11.9790 O.co2     3 ASC3        0.0000 
     72 OD1         9.5140   55.8270   12.4500 O.co2     7 ASP3        0.0000 
     73 O           8.9940   54.1160   12.6540 O.2       1 ALC1        0.0000 
     74 O           7.7880   54.0210   11.5080 O.2       9 ALL1        0.0000 
     75 O          10.2000   54.2110   13.8000 O.2       5 ALP1        0.0000 
     76 O           8.6510   54.9240   11.9790 O.2       1 ALC1        0.0000 
     77 O           9.5140   55.8270   12.4500 O.2       5 ALP1        0.0000 
     78 CA         -8.5420   67.0615   20.4335 C.3       4 GLC5        0.0000 
     79 CA         -7.0120   67.0650   18.8750 C.3      12 GLL5        0.0000 
     80 CA        -10.0720   67.0580   21.9920 C.3       8 GLP5        0.0000 
     81 CA         -8.0800   68.6985   18.6980 C.3       4 GLC5        0.0000 
     82 CA         -9.1480   70.3320   18.5210 C.3       8 GLP5        0.0000 
     83 CA         -8.4245   68.0800   17.5235 C.3       4 GLC5        0.0000 
     84 CA         -7.5110   66.0930   18.0010 C.3      12 GLL5        0.0000 
     85 CA         -9.3380   70.0670   17.0460 C.3       8 GLP5        0.0000 
     86 CA         -6.9955   64.3735   19.1385 C.3       4 GLC5        0.0000 
     87 CA         -6.4800   62.6540   20.2760 C.3       8 GLP5        0.0000 
     88 CA          3.5560   65.5005   10.9250 C.3       4 GLC5        0.0000 
     89 CA          4.7245   64.8255   13.9390 C.3       4 GLC5        0.0000 
     90 CA          4.9950   65.0240   15.6590 C.3       8 GLP5        0.0000 
     91 CA          1.4525   63.0710   11.4977 C.3       4 GLC5        0.0000 
     92 CA          2.0910   63.6290   13.6070 C.3      12 GLL5        0.0000 
     93 CA          3.4730   64.2382   14.9650 C.3       4 GLC5        0.0000 
     94 CA          2.0570   63.6195   16.9315 C.3       4 GLC5        0.0000 
     95 CA          0.6170   63.7220   15.5070 C.3      12 GLL5        0.0000 
     96 CA          2.9000   63.7400   18.6420 C.3       8 GLP5        0.0000 
     97 CA         -0.2297   66.6730   14.2007 C.3       4 GLC5        0.0000 
     98 CA         -0.2970   64.4750   14.7580 C.3      12 GLL5        0.0000 
     99 CA          4.6350   59.3020    8.9413 C.3       4 GLC5        0.0000 
    100 CA          4.6200   59.7010    7.1130 C.3       8 GLP5        0.0000 
    101 CA          7.1670   58.9132   14.3715 C.3       4 GLC5        0.0000 
    102 CA          8.2210   58.7700   15.9390 C.3       8 GLP5        0.0000 
    103 CA         -6.4815   68.1838   20.4860 C.3       4 GLC5        0.0000 
    104 CA         -6.6420   69.1900   22.0720 C.3       8 GLP5        0.0000 
    105 CA         -6.2120   66.3713   20.7985 C.3       4 GLC5        0.0000 
    106 CA         -6.1030   65.5650   22.6970 C.3       8 GLP5        0.0000 
    107 CA         -6.1689   65.1041   15.3276 C.3       4 GLC5        0.0000 
    108 CA         -6.6420   65.3580   17.1740 C.3      12 GLL5        0.0000 
    109 CA         -6.6440   64.8940   13.6290 C.3       8 GLP5        0.0000 
    110 CA         -5.5858   63.9587   18.2603 C.3       4 GLC5        0.0000 
    111 CA         -5.4720   62.2850   19.1860 C.3       8 GLP5        0.0000 
    112 CA         -0.6548   62.8521   14.1629 C.3       4 GLC5        0.0000 
    113 CA         -1.9850   61.6930   13.7380 C.3       8 GLP5        0.0000 
@<TRIPOS>BOND
@<TRIPOS>SUBSTRUCTURE
     1 ALC1       18 GROUP        1 X    ALC  0     ROOT ALC X 1
     2 SEC2       15 GROUP        1 X    SEC  0     **** SEC X 2
     3 ASC3       68 GROUP        1 X    ASC  0     **** ASC X 3
     4 GLC5        1 GROUP        1 X    GLC  0     **** GLC X 6
     5 ALP1       20 GROUP        1 Y    ALP  0     ROOT ALP Y 8
     6 SEP2       17 GROUP        1 Y    SEP  0     **** SEP Y 9
     7 ASP3       70 GROUP        1 Y    ASP  0     **** ASP Y 10
     8 GLP5        3 GROUP        1 Y    GLP  0     **** GLP Y 13
     9 ALL1       19 GROUP        1 Z    ALL  0     ROOT ALL Z 15
    10 SEL2       16 GROUP        1 Z    SEL  0     **** SEL Z 16
    11 ASL3       69 GROUP        1 Z    ASL  0     **** ASL Z 17
    12 GLL5        2 GROUP        1 Z    GLL  0     **** GLL Z 20
@<TRIPOS>SET

