#    Name: 2c0i_L1G_1_ligand
#    Modification time : Mon Mar 24 22:04:37 2014

@<TRIPOS>MOLECULE
2c0i_L1G_1_ligand
   84    90     1     0     0
SMALL
NO_CHARGES


@<TRIPOS>ATOM
      1 C1          3.3210   63.1800   12.9070 C.2       1 L1G1506     0.0000 
      2 C2          4.3210   63.9430   12.2930 C.ar      1 L1G1506     0.0000 
      3 C3          2.0910   63.6290   13.6070 C.ar      1 L1G1506     0.0000 
      4 N1          3.5970   61.8670   12.7230 N.2       1 L1G1506     0.0000 
      5 C4          5.2240   63.0320   11.7340 C.ar      1 L1G1506     0.0000 
      6 C5          4.5870   65.3110   12.1450 C.ar      1 L1G1506     0.0000 
      7 C6          1.1750   64.3710   12.8640 C.ar      1 L1G1506     0.0000 
      8 C7          1.8110   63.2760   14.9350 C.ar      1 L1G1506     0.0000 
      9 N2          4.7760   61.8010   11.9920 N.pl3     1 L1G1506     0.0000 
     10 N3          6.3190   63.4300   11.0610 N.ar      1 L1G1506     0.0000 
     11 N4          5.6860   65.6380   11.4690 N.ar      1 L1G1506     0.0000 
     12 N5          3.8090   66.3360   12.6160 N.pl3     1 L1G1506     0.0000 
     13 C8         -0.0340   64.7730   13.4390 C.ar      1 L1G1506     0.0000 
     14 C9          0.6170   63.7220   15.5070 C.ar      1 L1G1506     0.0000 
     15 C10         5.3800   60.4620   11.6560 C.3       1 L1G1506     0.0000 
     16 C11         6.5420   64.7370   10.9400 C.ar      1 L1G1506     0.0000 
     17 C12        -0.2970   64.4750   14.7580 C.ar      1 L1G1506     0.0000 
     18 O1         -0.9720   65.5140   12.7900 O.3       1 L1G1506     0.0000 
     19 C13         4.3660   59.5930   10.9080 C.3       1 L1G1506     0.0000 
     20 C14         5.8450   59.7590   12.9500 C.3       1 L1G1506     0.0000 
     21 N6         -1.5200   64.8930   15.2680 N.am      1 L1G1506     0.0000 
     22 C15        -0.6060   66.3210   11.6770 C.3       1 L1G1506     0.0000 
     23 C16         4.9340   58.2130   10.6310 C.3       1 L1G1506     0.0000 
     24 C17         6.3810   58.3540   12.6580 C.3       1 L1G1506     0.0000 
     25 C18        -1.7110   65.2680   16.5310 C.2       1 L1G1506     0.0000 
     26 C19         5.3250   57.5180   11.9360 C.3       1 L1G1506     0.0000 
     27 C20        -3.0880   65.5980   16.9730 C.2       1 L1G1506     0.0000 
     28 O2         -0.8000   65.3360   17.3380 O.2       1 L1G1506     0.0000 
     29 N7          5.8270   56.1220   11.6570 N.3       1 L1G1506     0.0000 
     30 N8         -3.4210   66.5150   17.9180 N.pl3     1 L1G1506     0.0000 
     31 C21        -4.2220   64.9580   16.5040 C.2       1 L1G1506     0.0000 
     32 C22         6.3590   55.5010   12.8850 C.3       1 L1G1506     0.0000 
     33 C23         6.8600   56.1300   10.6140 C.3       1 L1G1506     0.0000 
     34 C24        -4.7690   66.5430   18.1120 C.ar      1 L1G1506     0.0000 
     35 C25        -2.4390   67.3790   18.6290 C.3       1 L1G1506     0.0000 
     36 C26        -5.2690   65.5830   17.2530 C.ar      1 L1G1506     0.0000 
     37 C27         6.7660   54.0470   12.5920 C.3       1 L1G1506     0.0000 
     38 C28         7.2500   54.6790   10.2840 C.3       1 L1G1506     0.0000 
     39 C29        -5.6300   67.2900   18.9250 C.ar      1 L1G1506     0.0000 
     40 C30        -6.6420   65.3580   17.1740 C.ar      1 L1G1506     0.0000 
     41 N9          7.7880   54.0210   11.5080 N.4       1 L1G1506     0.0000 
     42 C31        -7.0120   67.0650   18.8750 C.ar      1 L1G1506     0.0000 
     43 C32        -7.5110   66.0930   18.0010 C.ar      1 L1G1506     0.0000 
     44 C33         8.1550   52.6150   11.2000 C.3       1 L1G1506     0.0000 
     45 H           1.3870   64.6243   11.8908 H         1 L1G1506     0.0000 
     46 H           2.4633   62.7087   15.4671 H         1 L1G1506     0.0000 
     47 H           4.1343   67.2611   12.4203 H         1 L1G1506     0.0000 
     48 H           2.9840   66.0691   13.1142 H         1 L1G1506     0.0000 
     49 H           0.4046   63.4959   16.4894 H         1 L1G1506     0.0000 
     50 H           6.2427   60.6089   11.0248 H         1 L1G1506     0.0000 
     51 H           7.3926   65.0807   10.4278 H         1 L1G1506     0.0000 
     52 H           4.1095   60.0774    9.9658 H         1 L1G1506     0.0000 
     53 H           3.4631   59.5011   11.5117 H         1 L1G1506     0.0000 
     54 H           5.0022   59.6889   13.6353 H         1 L1G1506     0.0000 
     55 H           6.6289   60.3557   13.4130 H         1 L1G1506     0.0000 
     56 H          -2.3409   64.9059   14.5875 H         1 L1G1506     0.0000 
     57 H           5.8152   58.3022    9.9973 H         1 L1G1506     0.0000 
     58 H           4.1887   57.6090   10.1155 H         1 L1G1506     0.0000 
     59 H           6.6447   57.8701   13.5947 H         1 L1G1506     0.0000 
     60 H           7.2672   58.4320   12.0337 H         1 L1G1506     0.0000 
     61 H           4.4452   57.4623   12.5640 H         1 L1G1506     0.0000 
     62 H          -4.3108   64.3054   15.8816 H         1 L1G1506     0.0000 
     63 H           5.6069   55.4933   13.6717 H         1 L1G1506     0.0000 
     64 H           7.2374   56.0367   13.2401 H         1 L1G1506     0.0000 
     65 H           7.7512   56.6532   10.9510 H         1 L1G1506     0.0000 
     66 H           6.4930   56.5985    9.7044 H         1 L1G1506     0.0000 
     67 H           5.8795   53.4941   12.2916 H         1 L1G1506     0.0000 
     68 H           7.1675   53.6105   13.5031 H         1 L1G1506     0.0000 
     69 H           8.0003   54.6930    9.4992 H         1 L1G1506     0.0000 
     70 H           6.3670   54.1564    9.9286 H         1 L1G1506     0.0000 
     71 H          -5.2497   68.0017   19.5570 H         1 L1G1506     0.0000 
     72 H          -7.0198   64.6675   16.5239 H         1 L1G1506     0.0000 
     73 H           8.6680   54.5534   11.8383 H         1 L1G1506     0.0000 
     74 H          -7.6436   67.6018   19.4667 H         1 L1G1506     0.0000 
     75 H          -8.5228   65.9115   17.9602 H         1 L1G1506     0.0000 
     76 H           0.0744   67.0103   11.9258 H         1 L1G1506     0.0000 
     77 H          -0.2136   65.7759   10.9361 H         1 L1G1506     0.0000 
     78 H          -1.3921   66.8088   11.2974 H         1 L1G1506     0.0000 
     79 H          -1.7717   66.8387   19.1416 H         1 L1G1506     0.0000 
     80 H          -1.9241   67.9557   17.9947 H         1 L1G1506     0.0000 
     81 H          -2.8863   67.9893   19.2828 H         1 L1G1506     0.0000 
     82 H           8.8400   52.5606   10.4735 H         1 L1G1506     0.0000 
     83 H           8.5359   52.1473   11.9976 H         1 L1G1506     0.0000 
     84 H           7.3644   52.0825   10.8979 H         1 L1G1506     0.0000 
@<TRIPOS>BOND
     1    2    1 1    
     2    3    1 1    
     3    4    1 2    
     4    5    2 ar   
     5    6    2 ar   
     6    7    3 ar   
     7    8    3 ar   
     8    9    4 1    
     9    9    5 1    
    10   10    5 ar   
    11   11    6 ar   
    12   12    6 1    
    13   13    7 ar   
    14   45    7 1    
    15   14    8 ar   
    16   46    8 1    
    17   15    9 1    
    18   16   10 ar   
    19   16   11 ar   
    20   47   12 1    
    21   48   12 1    
    22   17   13 ar   
    23   18   13 1    
    24   17   14 ar   
    25   49   14 1    
    26   19   15 1    
    27   20   15 1    
    28   50   15 1    
    29   51   16 1    
    30   21   17 1    
    31   22   18 1    
    32   23   19 1    
    33   52   19 1    
    34   53   19 1    
    35   24   20 1    
    36   54   20 1    
    37   55   20 1    
    38   25   21 am   
    39   56   21 1    
    40   76   22 1    
    41   77   22 1    
    42   78   22 1    
    43   26   23 1    
    44   57   23 1    
    45   58   23 1    
    46   26   24 1    
    47   59   24 1    
    48   60   24 1    
    49   27   25 1    
    50   28   25 2    
    51   29   26 1    
    52   61   26 1    
    53   30   27 1    
    54   31   27 2    
    55   32   29 1    
    56   33   29 1    
    57   34   30 1    
    58   35   30 1    
    59   36   31 1    
    60   62   31 1    
    61   37   32 1    
    62   63   32 1    
    63   64   32 1    
    64   38   33 1    
    65   65   33 1    
    66   66   33 1    
    67   36   34 ar   
    68   39   34 ar   
    69   79   35 1    
    70   80   35 1    
    71   81   35 1    
    72   40   36 ar   
    73   41   37 1    
    74   67   37 1    
    75   68   37 1    
    76   41   38 1    
    77   69   38 1    
    78   70   38 1    
    79   42   39 ar   
    80   71   39 1    
    81   43   40 ar   
    82   72   40 1    
    83   44   41 1    
    84   73   41 1    
    85   43   42 ar   
    86   74   42 1    
    87   75   43 1    
    88   82   44 1    
    89   83   44 1    
    90   84   44 1    
@<TRIPOS>SUBSTRUCTURE
     1 L1G1506     1 GROUP   
@<TRIPOS>SET

