#    Name: 3az1_DS2_1_INTS_M
#    Modification time : Mon Mar 24 18:29:05 2014

@<TRIPOS>MOLECULE
3az1_DS2_1_INTS_M
  115     0     6     0     0
SMALL
NO_CHARGES


@<TRIPOS>ATOM
      1 N          18.0885   16.2040   34.6690 N.am      1 SEC2        0.0000 
      2 N          17.2910   17.1260   34.2110 N.am      5 SEL2        0.0000 
      3 N          18.8860   15.2820   35.1270 N.am      3 SEP2        0.0000 
      4 CA         16.2370   21.8215   31.7475 C.3       2 GLC5        0.0000 
      5 CA         14.3080   21.5610   32.6520 C.3       6 GLL5        0.0000 
      6 CA         18.1660   22.0820   30.8430 C.3       4 GLP5        0.0000 
      7 CA         15.1395   24.0685   33.5045 C.3       2 GLC5        0.0000 
      8 CA         12.9540   23.7050   33.3690 C.3       6 GLL5        0.0000 
      9 CA         17.3250   24.4320   33.6400 C.3       4 GLP5        0.0000 
     10 CA         15.1450   25.4885   31.9875 C.3       2 GLC5        0.0000 
     11 CA         13.4850   24.5170   32.1440 C.3       6 GLL5        0.0000 
     12 CA         16.8050   26.4600   31.8310 C.3       4 GLP5        0.0000 
     13 CA         15.3370   24.9030   34.4100 C.3       2 GLC5        0.0000 
     14 CA         13.7440   24.1250   34.6850 C.3       6 GLL5        0.0000 
     15 CA         16.9300   25.6810   34.1350 C.3       4 GLP5        0.0000 
     16 CA         13.6640   26.2530   35.0600 C.3       2 GLC5        0.0000 
     17 CA         13.5840   28.3810   35.4350 C.3       4 GLP5        0.0000 
     18 CA         12.0130   22.2075   36.7910 C.3       2 GLC5        0.0000 
     19 CA         13.2140   23.6110   36.0510 C.3       6 GLL5        0.0000 
     20 CA         10.8120   20.8040   37.5310 C.3       4 GLP5        0.0000 
     21 CA         12.9950   24.2435   37.9200 C.3       2 GLC5        0.0000 
     22 CA         12.7760   24.8760   39.7890 C.3       4 GLP5        0.0000 
     23 CA         11.6930   23.3145   29.5595 C.3       2 GLC5        0.0000 
     24 CA         13.1600   24.1270   30.6900 C.3       6 GLL5        0.0000 
     25 CA         10.2260   22.5020   28.4290 C.3       4 GLP5        0.0000 
     26 CA         15.1965   24.6775   31.0150 C.3       2 GLC5        0.0000 
     27 CA         17.2330   25.2280   31.3400 C.3       4 GLP5        0.0000 
     28 CA         14.2945   23.6195   29.3015 C.3       2 GLC5        0.0000 
     29 CA         15.4290   23.1120   27.9130 C.3       4 GLP5        0.0000 
     30 CA         11.7415   26.5425   32.3475 C.3       2 GLC5        0.0000 
     31 CA         11.0760   25.3320   34.0450 C.3       6 GLL5        0.0000 
     32 CA         12.4070   27.7530   30.6500 C.3       4 GLP5        0.0000 
     33 CA         12.3300   26.8565   34.7400 C.3       2 GLC5        0.0000 
     34 CA          8.4670   23.3695   30.7360 C.3       2 GLC5        0.0000 
     35 CA          9.1860   23.9260   32.5390 C.3       6 GLL5        0.0000 
     36 CA          7.7480   22.8130   28.9330 C.3       4 GLP5        0.0000 
     37 CA         10.3620   22.9715   30.5215 C.3       2 GLC5        0.0000 
     38 CA         10.4980   23.4410   32.6140 C.3       6 GLL5        0.0000 
     39 CA         11.0695   18.5870   32.8720 C.3       2 GLC5        0.0000 
     40 CA         11.5200   18.9440   34.7540 C.3       6 GLL5        0.0000 
     41 CA         10.6190   18.2300   30.9900 C.3       4 GLP5        0.0000 
     42 CA          9.5905   19.9570   34.4645 C.3       2 GLC5        0.0000 
     43 CA          7.6610   20.9700   34.1750 C.3       4 GLP5        0.0000 
     44 CA         10.6625   17.4910   35.4720 C.3       2 GLC5        0.0000 
     45 CA          9.8050   16.0380   36.1900 C.3       4 GLP5        0.0000 
     46 CA          8.0310   28.1005   33.7390 C.3       2 GLC5        0.0000 
     47 CA          9.3400   27.1130   34.8090 C.3       6 GLL5        0.0000 
     48 CA          6.7220   29.0880   32.6690 C.3       4 GLP5        0.0000 
     49 CA          9.0800   28.7330   35.4875 C.3       2 GLC5        0.0000 
     50 CA          8.8200   30.3530   36.1660 C.3       4 GLP5        0.0000 
     51 CA         11.4620   27.7470   35.1220 C.3       2 GLC5        0.0000 
     52 CA          7.8340   27.2920   36.1485 C.3       2 GLC5        0.0000 
     53 CA          6.3280   27.4710   37.4880 C.3       4 GLP5        0.0000 
     54 CA          7.0840   22.8110   33.7445 C.3       2 GLC5        0.0000 
     55 CA          6.5070   24.6520   33.3140 C.3       6 GLL5        0.0000 
     56 N           5.5540   27.3535   34.0290 N.am      1 SEC2        0.0000 
     57 N           5.2190   26.1610   34.4400 N.am      5 SEL2        0.0000 
     58 N           5.8890   28.5460   33.6180 N.am      3 SEP2        0.0000 
     59 N           5.3445   26.3150   35.7655 N.am      1 SEC2        0.0000 
     60 N           5.4700   26.4690   37.0910 N.am      3 SEP2        0.0000 
     61 CA          2.7815   25.0760   31.2730 C.3       2 GLC5        0.0000 
     62 CA          2.7510   25.1080   33.2700 C.3       6 GLL5        0.0000 
     63 CA          2.8120   25.0440   29.2760 C.3       4 GLP5        0.0000 
     64 CA          1.6100   25.7080   34.6470 C.3       2 GLC5        0.0000 
     65 CA          0.4690   26.3080   36.0240 C.3       4 GLP5        0.0000 
     66 CA          2.1025   26.6340   32.4130 C.3       2 GLC5        0.0000 
     67 CA          1.4540   28.1600   31.5560 C.3       4 GLP5        0.0000 
     68 CA          1.3460   24.2990   32.1810 C.3       2 GLC5        0.0000 
     69 CA         -0.0590   23.4900   31.0920 C.3       4 GLP5        0.0000 
     70 CA          4.9025   21.9530   35.3425 C.3       2 GLC5        0.0000 
     71 CA          4.0060   23.7740   35.0580 C.3       6 GLL5        0.0000 
     72 CA          5.7990   20.1320   35.6270 C.3       4 GLP5        0.0000 
     73 CA          2.2375   25.0410   35.5410 C.3       2 GLC5        0.0000 
     74 CA          2.2600   22.5840   34.8635 C.3       2 GLC5        0.0000 
     75 CA          0.5140   21.3940   34.6690 C.3       4 GLP5        0.0000 
     76 CA          3.6150   22.8270   36.6055 C.3       2 GLC5        0.0000 
     77 CA          3.2240   21.8800   38.1530 C.3       4 GLP5        0.0000 
     78 CA          3.3740   24.0925   30.9500 C.3       2 GLC5        0.0000 
     79 CA          3.9360   23.1410   32.6240 C.3       6 GLL5        0.0000 
     80 CA          3.9900   21.7630   31.5205 C.3       2 GLC5        0.0000 
     81 CA          4.0440   20.3850   30.4170 C.3       4 GLP5        0.0000 
     82 CA          5.2260   21.5625   33.4540 C.3       2 GLC5        0.0000 
     83 CA          6.5160   19.9840   34.2840 C.3       4 GLP5        0.0000 
     84 CA          1.9385   23.3155   31.8580 C.3       2 GLC5        0.0000 
     85 CA          2.2250   22.2675   33.6465 C.3       2 GLC5        0.0000 
     86 CA         16.6710   15.8640   32.4420 C.3       2 GLC5        0.0000 
     87 CA         15.1410   17.3710   32.8560 C.3       6 GLL5        0.0000 
     88 CA         18.2010   14.3570   32.0280 C.3       4 GLP5        0.0000 
     89 CA         14.5260   15.9975   31.6930 C.3       2 GLC5        0.0000 
     90 CA         13.9110   14.6240   30.5300 C.3       4 GLP5        0.0000 
     91 CA         13.2595   17.1445   32.0415 C.3       2 GLC5        0.0000 
     92 CA         11.3780   16.9180   31.2270 C.3       4 GLP5        0.0000 
     93 CA         16.2655   17.5650   31.3250 C.3       2 GLC5        0.0000 
     94 CA         17.3900   17.7590   29.7940 C.3       4 GLP5        0.0000 
     95 CA         12.2560   19.4582   32.0405 C.3       2 GLC5        0.0000 
     96 CA         13.5760   19.3370   33.4180 C.3       6 GLL5        0.0000 
     97 CA         11.4770   19.3080   30.3380 C.3       4 GLP5        0.0000 
     98 CA         14.5480   20.2152   34.9450 C.3       2 GLC5        0.0000 
     99 CA         16.0610   20.8220   36.1470 C.3       4 GLP5        0.0000 
    100 CA         12.1120   20.5185   31.9930 C.3       2 GLC5        0.0000 
    101 CA         12.2930   21.2820   33.9790 C.3       6 GLL5        0.0000 
    102 CA         14.4040   21.2755   34.8975 C.3       2 GLC5        0.0000 
    103 CA         12.9342   20.0850   31.5102 C.3       2 GLC5        0.0000 
    104 CA         15.2263   20.8420   34.4147 C.3       2 GLC5        0.0000 
    105 CA         14.4750   20.1630   32.7130 C.3       6 GLL5        0.0000 
    106 CA         12.8648   26.0375   31.0335 C.3       2 GLC5        0.0000 
    107 CA         14.7700   22.3450   35.7575 C.3       2 GLC5        0.0000 
    108 CA         10.0282   27.7555   33.0620 C.3       2 GLC5        0.0000 
    109 CA          9.7510   25.8230   34.0430 C.3       6 GLL5        0.0000 
    110 CA         10.5110   29.0430   31.6980 C.3       4 GLP5        0.0000 
    111 CA          8.7078   22.4733   33.4651 C.3       2 GLC5        0.0000 
    112 CA          8.8360   25.0980   33.2540 C.3       6 GLL5        0.0000 
    113 CA         11.3844   20.2832   35.9599 C.3       2 GLC5        0.0000 
    114 CA         12.4940   19.8800   34.0680 C.3       6 GLL5        0.0000 
    115 CA          6.2807   27.0475   33.0063 C.3       2 GLC5        0.0000 
@<TRIPOS>BOND
@<TRIPOS>SUBSTRUCTURE
     1 SEC2        1 GROUP        1 X    SEC  0     ROOT SEC X 2
     2 GLC5        4 GROUP        1 X    GLC  0     **** GLC X 6
     3 SEP2        3 GROUP        1 Y    SEP  0     ROOT SEP Y 9
     4 GLP5        6 GROUP        1 Y    GLP  0     **** GLP Y 13
     5 SEL2        2 GROUP        1 Z    SEL  0     ROOT SEL Z 16
     6 GLL5        5 GROUP        1 Z    GLL  0     **** GLL Z 20
@<TRIPOS>SET

