#    Name: 3az1_DS2_1_ligand
#    Modification time : Mon Mar 24 18:29:05 2014

@<TRIPOS>MOLECULE
3az1_DS2_1_ligand
   69    70     1     0     0
SMALL
NO_CHARGES


@<TRIPOS>ATOM
      1 C1         13.5760   19.3370   33.4180 C.ar      1 DS21        0.0000 
      2 O1         15.2310   17.4950   35.5770 O.co2     1 DS21        0.0000 
      3 C2         12.4940   19.8800   34.0680 C.ar      1 DS21        0.0000 
      4 O2         17.2910   17.1260   34.2110 O.co2     1 DS21        0.0000 
      5 C3         12.2930   21.2820   33.9790 C.ar      1 DS21        0.0000 
      6 C4         13.2010   22.1760   33.3170 C.ar      1 DS21        0.0000 
      7 C5         14.3080   21.5610   32.6520 C.ar      1 DS21        0.0000 
      8 C6         14.4750   20.1630   32.7130 C.ar      1 DS21        0.0000 
      9 C10        12.9540   23.7050   33.3690 C.3       1 DS21        0.0000 
     10 C11        11.4690   24.1480   33.3770 C.ar      1 DS21        0.0000 
     11 C12        13.4850   24.5170   32.1440 C.3       1 DS21        0.0000 
     12 C13        13.7440   24.1250   34.6850 C.3       1 DS21        0.0000 
     13 C14        13.2140   23.6110   36.0510 C.3       1 DS21        0.0000 
     14 C20        13.1600   24.1270   30.6900 C.3       1 DS21        0.0000 
     15 C26        11.0760   25.3320   34.0450 C.ar      1 DS21        0.0000 
     16 C27         9.7510   25.8230   34.0430 C.ar      1 DS21        0.0000 
     17 C28         8.8360   25.0980   33.2540 C.ar      1 DS21        0.0000 
     18 C29         9.1860   23.9260   32.5390 C.ar      1 DS21        0.0000 
     19 C30        10.4980   23.4410   32.6140 C.ar      1 DS21        0.0000 
     20 C34        11.5200   18.9440   34.7540 C.3       1 DS21        0.0000 
     21 C38         9.3400   27.1130   34.8090 C.3       1 DS21        0.0000 
     22 O42         7.5580   25.6150   33.2280 O.3       1 DS21        0.0000 
     23 C43         6.5070   24.6520   33.3140 C.3       1 DS21        0.0000 
     24 C44         5.1720   25.3620   33.3730 C.3       1 DS21        0.0000 
     25 O47         5.2190   26.1610   34.4400 O.3       1 DS21        0.0000 
     26 C48         4.0160   24.3190   33.6120 C.3       1 DS21        0.0000 
     27 C50         2.7510   25.1080   33.2700 C.3       1 DS21        0.0000 
     28 C54         4.0060   23.7740   35.0580 C.3       1 DS21        0.0000 
     29 C58         3.9360   23.1410   32.6240 C.3       1 DS21        0.0000 
     30 O62        13.9450   18.0020   33.3300 O.3       1 DS21        0.0000 
     31 C63        15.1410   17.3710   32.8560 C.3       1 DS21        0.0000 
     32 C64        15.8830   17.3350   34.2370 C.2       1 DS21        0.0000 
     33 H          11.4403   21.6925   34.4166 H         1 DS21        0.0000 
     34 H          14.9686   22.1400   32.1382 H         1 DS21        0.0000 
     35 H          15.2798   19.7305   32.2268 H         1 DS21        0.0000 
     36 H          14.6161   24.5777   32.2469 H         1 DS21        0.0000 
     37 H          13.1688   25.5989   32.2965 H         1 DS21        0.0000 
     38 H          13.7815   25.2361   34.7092 H         1 DS21        0.0000 
     39 H          14.7976   23.7920   34.5601 H         1 DS21        0.0000 
     40 H          11.8039   25.8705   34.5665 H         1 DS21        0.0000 
     41 H           8.4853   23.4460   31.9780 H         1 DS21        0.0000 
     42 H          10.7658   22.5862   32.1277 H         1 DS21        0.0000 
     43 H           6.6027   24.0300   34.2124 H         1 DS21        0.0000 
     44 H           6.5001   23.9840   32.4440 H         1 DS21        0.0000 
     45 H           4.9871   25.8469   32.4557 H         1 DS21        0.0000 
     46 H          15.6978   17.9754   32.2154 H         1 DS21        0.0000 
     47 H          14.9925   16.3852   32.5528 H         1 DS21        0.0000 
     48 H          13.2004   22.6119   36.0919 H         1 DS21        0.0000 
     49 H          13.7801   23.9278   36.8120 H         1 DS21        0.0000 
     50 H          12.2812   23.9244   36.2292 H         1 DS21        0.0000 
     51 H          13.5790   24.7553   30.0345 H         1 DS21        0.0000 
     52 H          13.4904   23.2094   30.4689 H         1 DS21        0.0000 
     53 H          12.1755   24.1342   30.5148 H         1 DS21        0.0000 
     54 H          11.9668   18.3964   35.4615 H         1 DS21        0.0000 
     55 H          10.7746   19.4427   35.1964 H         1 DS21        0.0000 
     56 H          11.1023   18.3045   34.1086 H         1 DS21        0.0000 
     57 H           9.5150   27.0339   35.7904 H         1 DS21        0.0000 
     58 H           9.8438   27.9137   34.4850 H         1 DS21        0.0000 
     59 H           8.3667   27.3153   34.7002 H         1 DS21        0.0000 
     60 H           2.5730   25.8317   33.9368 H         1 DS21        0.0000 
     61 H           2.8173   25.5456   32.3733 H         1 DS21        0.0000 
     62 H           1.9413   24.5215   33.2508 H         1 DS21        0.0000 
     63 H           4.8621   23.3101   35.2860 H         1 DS21        0.0000 
     64 H           3.8807   24.5045   35.7293 H         1 DS21        0.0000 
     65 H           3.2681   23.1145   35.2012 H         1 DS21        0.0000 
     66 H           4.7710   22.5909   32.6336 H         1 DS21        0.0000 
     67 H           3.1774   22.5262   32.8398 H         1 DS21        0.0000 
     68 H           3.8017   23.4535   31.6836 H         1 DS21        0.0000 
     69 H           4.2979   26.5425   34.5183 H         1 DS21        0.0000 
@<TRIPOS>BOND
     1    3    1 ar   
     2    8    1 ar   
     3   30    1 1    
     4   32    2 ar   
     5    5    3 ar   
     6   20    3 1    
     7   32    4 ar   
     8    6    5 ar   
     9   33    5 1    
    10    7    6 ar   
    11    9    6 1    
    12    8    7 ar   
    13   34    7 1    
    14   35    8 1    
    15   10    9 1    
    16   11    9 1    
    17   12    9 1    
    18   15   10 ar   
    19   19   10 ar   
    20   14   11 1    
    21   36   11 1    
    22   37   11 1    
    23   13   12 1    
    24   38   12 1    
    25   39   12 1    
    26   48   13 1    
    27   49   13 1    
    28   50   13 1    
    29   51   14 1    
    30   52   14 1    
    31   53   14 1    
    32   16   15 ar   
    33   40   15 1    
    34   17   16 ar   
    35   21   16 1    
    36   18   17 ar   
    37   22   17 1    
    38   19   18 ar   
    39   41   18 1    
    40   42   19 1    
    41   54   20 1    
    42   55   20 1    
    43   56   20 1    
    44   57   21 1    
    45   58   21 1    
    46   59   21 1    
    47   23   22 1    
    48   24   23 1    
    49   43   23 1    
    50   44   23 1    
    51   25   24 1    
    52   26   24 1    
    53   45   24 1    
    54   69   25 1    
    55   27   26 1    
    56   28   26 1    
    57   29   26 1    
    58   60   27 1    
    59   61   27 1    
    60   62   27 1    
    61   63   28 1    
    62   64   28 1    
    63   65   28 1    
    64   66   29 1    
    65   67   29 1    
    66   68   29 1    
    67   31   30 1    
    68   32   31 1    
    69   46   31 1    
    70   47   31 1    
@<TRIPOS>SUBSTRUCTURE
     1 DS21        1 GROUP   
@<TRIPOS>SET

