#    Name: 4fki_09K_1_INTS_M
#    Modification time : Mon Mar 24 20:13:07 2014

@<TRIPOS>MOLECULE
4fki_09K_1_INTS_M
   52     0     6     0     0
SMALL
NO_CHARGES


@<TRIPOS>ATOM
      1 O          -4.0640   -5.5525   29.7685 O.2       1 ALC1        0.0000 
      2 O          -3.0180   -6.2510   29.1030 O.2       5 ALL1        0.0000 
      3 O          -5.1100   -4.8540   30.4340 O.2       3 ALP1        0.0000 
      4 CA         -3.7490   -8.8605   36.0705 C.3       2 GLC5        0.0000 
      5 CA         -4.6490  -10.5000   35.2510 C.3       6 GLL5        0.0000 
      6 CA         -2.8490   -7.2210   36.8900 C.3       4 GLP5        0.0000 
      7 CA         -2.4730  -11.5180   31.2590 C.3       2 GLC5        0.0000 
      8 CA         -4.4690  -11.1720   30.9240 C.3       6 GLL5        0.0000 
      9 CA         -0.4770  -11.8640   31.5940 C.3       4 GLP5        0.0000 
     10 CA         -1.8365  -10.2490   33.1375 C.3       2 GLC5        0.0000 
     11 CA         -2.9030  -11.1010   34.1940 C.3       6 GLL5        0.0000 
     12 CA         -0.7700   -9.3970   32.0810 C.3       4 GLP5        0.0000 
     13 CA         -1.7680   -9.5445   35.0735 C.3       2 GLC5        0.0000 
     14 CA         -0.6330   -7.9880   35.9530 C.3       4 GLP5        0.0000 
     15 CA         -6.2525   -6.7825   31.3695 C.3       2 GLC5        0.0000 
     16 CA         -4.8890   -8.4160   31.3050 C.3       6 GLL5        0.0000 
     17 CA         -7.6160   -5.1490   31.4340 C.3       4 GLP5        0.0000 
     18 CA         -6.5830   -7.5155   28.5565 C.3       2 GLC5        0.0000 
     19 CA         -4.7230   -8.0060   28.8670 C.3       6 GLL5        0.0000 
     20 CA         -8.4430   -7.0250   28.2460 C.3       4 GLP5        0.0000 
     21 CA         -4.2305   -6.8365   27.0780 C.3       2 GLC5        0.0000 
     22 CA         -3.7380   -5.6670   25.2890 C.3       4 GLP5        0.0000 
     23 CA          0.8450   -2.2910   27.0120 C.3       2 GLC5        0.0000 
     24 CA          1.4010   -4.3130   27.6200 C.3       6 GLL5        0.0000 
     25 CA          0.2890   -0.2690   26.4040 C.3       4 GLP5        0.0000 
     26 CA          2.4180   -2.8745   28.2795 C.3       2 GLC5        0.0000 
     27 CA          3.4350   -1.4360   28.9390 C.3       4 GLP5        0.0000 
     28 CA          2.7215   -6.8675   28.5760 C.3       2 GLC5        0.0000 
     29 CA          2.4380   -5.3830   27.4090 C.3       6 GLL5        0.0000 
     30 CA          3.0050   -8.3520   29.7430 C.3       4 GLP5        0.0000 
     31 CA          0.9860   -4.1500   24.6120 C.3       2 GLC5        0.0000 
     32 CA          1.7900   -4.7080   26.2190 C.3       6 GLL5        0.0000 
     33 CA          0.1820   -3.5920   23.0050 C.3       4 GLP5        0.0000 
     34 CA         -2.9954  -11.3669   36.0576 C.3       2 GLC5        0.0000 
     35 CA         -4.1620  -11.4270   34.4450 C.3       6 GLL5        0.0000 
     36 CA         -2.3330  -11.5560   37.5130 C.3       4 GLP5        0.0000 
     37 CA         -2.5927   -9.8840   29.7782 C.3       2 GLC5        0.0000 
     38 CA         -4.4620  -10.3010   29.8200 C.3       6 GLL5        0.0000 
     39 CA         -0.6130  -10.1640   29.6350 C.3       4 GLP5        0.0000 
     40 CA         -2.8104   -9.2898   31.9472 C.3       2 GLC5        0.0000 
     41 CA         -0.7533   -6.8453   30.2395 C.3       2 GLC5        0.0000 
     42 CA         -1.8560   -5.5280   28.9240 C.3       6 GLL5        0.0000 
     43 CA         -0.2460   -7.9950   31.9350 C.3       4 GLP5        0.0000 
     44 CA          0.2397   -5.1397   29.8700 C.3       2 GLC5        0.0000 
     45 CA          1.7400   -4.5840   31.1960 C.3       4 GLP5        0.0000 
     46 CA         -1.8422   -4.7038   27.2615 C.3       2 GLC5        0.0000 
     47 CA         -0.6650   -5.8630   28.1640 C.3       6 GLL5        0.0000 
     48 CA         -2.4240   -3.7120   25.9790 C.3       4 GLP5        0.0000 
     49 CA          1.8297   -4.7160   29.3553 C.3       2 GLC5        0.0000 
     50 CA         -0.4142   -4.1113   26.4492 C.3       2 GLC5        0.0000 
     51 CA          3.6545   -3.8883   27.2700 C.3       2 GLC5        0.0000 
     52 CA          5.1950   -2.7310   27.7260 C.3       4 GLP5        0.0000 
@<TRIPOS>BOND
@<TRIPOS>SUBSTRUCTURE
     1 ALC1        1 GROUP        1 X    ALC  0     ROOT ALC X 1
     2 GLC5        4 GROUP        1 X    GLC  0     **** GLC X 6
     3 ALP1        3 GROUP        1 Y    ALP  0     ROOT ALP Y 8
     4 GLP5        6 GROUP        1 Y    GLP  0     **** GLP Y 13
     5 ALL1        2 GROUP        1 Z    ALL  0     ROOT ALL Z 15
     6 GLL5        5 GROUP        1 Z    GLL  0     **** GLL Z 20
@<TRIPOS>SET

