#    Name: 4fki_09K_1_ligand
#    Modification time : Mon Mar 24 20:13:07 2014

@<TRIPOS>MOLECULE
4fki_09K_1_ligand
   37    39     1     0     0
SMALL
NO_CHARGES


@<TRIPOS>ATOM
      1 C1         -4.1620  -11.4270   34.4450 C.3       1 09K301      0.0000 
      2 F1         -4.1900  -12.5920   35.0950 F         1 09K301      0.0000 
      3 N1         -3.0180   -6.2510   29.1030 N.am      1 09K301      0.0000 
      4 O1         -4.8750  -11.5340   33.2650 O.3       1 09K301      0.0000 
      5 C2         -4.7130  -10.6410   32.2080 C.ar      1 09K301      0.0000 
      6 F2         -4.6490  -10.5000   35.2510 F         1 09K301      0.0000 
      7 N2         -1.7720   -4.2310   29.3790 N.pl3     1 09K301      0.0000 
      8 O2         -2.5250   -8.1050   27.8500 O.2       1 09K301      0.0000 
      9 C3         -4.4690  -11.1720   30.9240 C.ar      1 09K301      0.0000 
     10 F3         -2.9030  -11.1010   34.1940 F         1 09K301      0.0000 
     11 N3         -0.6180   -3.7430   28.9410 N.2       1 09K301      0.0000 
     12 C4         -4.4620  -10.3010   29.8200 C.ar      1 09K301      0.0000 
     13 C5         -4.6830   -8.9070   30.0230 C.ar      1 09K301      0.0000 
     14 C6         -4.8890   -8.4160   31.3050 C.ar      1 09K301      0.0000 
     15 C7         -4.9120   -9.2570   32.4360 C.ar      1 09K301      0.0000 
     16 C8         -4.7230   -8.0060   28.8670 C.3       1 09K301      0.0000 
     17 C9         -3.3080   -7.4840   28.5430 C.2       1 09K301      0.0000 
     18 C10        -1.8560   -5.5280   28.9240 C.2       1 09K301      0.0000 
     19 C11         0.1020   -4.6760   28.1930 C.2       1 09K301      0.0000 
     20 C12        -0.6650   -5.8630   28.1640 C.2       1 09K301      0.0000 
     21 C13         1.4010   -4.3130   27.6200 C.3       1 09K301      0.0000 
     22 C14         2.4380   -5.3830   27.4090 C.3       1 09K301      0.0000 
     23 C15         1.7900   -4.7080   26.2190 C.3       1 09K301      0.0000 
     24 H          -3.7700   -5.8177   29.7366 H         1 09K301      0.0000 
     25 H          -2.4352   -3.7925   29.9082 H         1 09K301      0.0000 
     26 H          -4.3018  -12.1646   30.8014 H         1 09K301      0.0000 
     27 H          -4.3013  -10.6540   28.8804 H         1 09K301      0.0000 
     28 H          -5.0321   -7.3946   31.4452 H         1 09K301      0.0000 
     29 H          -5.0612   -8.8977   33.3555 H         1 09K301      0.0000 
     30 H          -5.3633   -7.1430   29.0646 H         1 09K301      0.0000 
     31 H          -5.1029   -8.5211   27.9815 H         1 09K301      0.0000 
     32 H          -0.4791   -6.6554   27.7719 H         1 09K301      0.0000 
     33 H           1.9265   -3.4878   27.8121 H         1 09K301      0.0000 
     34 H           2.0214   -6.2270   27.5273 H         1 09K301      0.0000 
     35 H           3.2944   -4.9944   27.5333 H         1 09K301      0.0000 
     36 H           2.3964   -4.0590   25.8870 H         1 09K301      0.0000 
     37 H           1.1233   -5.2916   25.8810 H         1 09K301      0.0000 
@<TRIPOS>BOND
     1    2    1 1    
     2    4    1 1    
     3    6    1 1    
     4   10    1 1    
     5   17    3 am   
     6   18    3 1    
     7   24    3 1    
     8    5    4 1    
     9    9    5 ar   
    10   15    5 ar   
    11   11    7 1    
    12   18    7 1    
    13   25    7 1    
    14   17    8 2    
    15   12    9 ar   
    16   26    9 1    
    17   19   11 2    
    18   13   12 ar   
    19   27   12 1    
    20   14   13 ar   
    21   16   13 1    
    22   15   14 ar   
    23   28   14 1    
    24   29   15 1    
    25   17   16 1    
    26   30   16 1    
    27   31   16 1    
    28   20   18 2    
    29   20   19 1    
    30   21   19 1    
    31   32   20 1    
    32   22   21 1    
    33   23   21 1    
    34   33   21 1    
    35   23   22 1    
    36   34   22 1    
    37   35   22 1    
    38   36   23 1    
    39   37   23 1    
@<TRIPOS>SUBSTRUCTURE
     1 09K301      1 GROUP   
@<TRIPOS>SET

