#    Name: 3tsu_ADP_1_INTS_M
#    Modification time : Mon Mar 24 20:53:45 2014

@<TRIPOS>MOLECULE
3tsu_ADP_1_INTS_M
   62     0    15     0     0
SMALL
NO_CHARGES


@<TRIPOS>ATOM
      1 N          19.9170   11.4715   27.2055 N.am      2 SEC2        0.0000 
      2 N          19.3980   12.1540   26.1160 N.am     12 SEL2        0.0000 
      3 N          20.4360   10.7890   28.2950 N.am      7 SEP2        0.0000 
      4 N          19.0945   10.5870   26.3725 N.am      2 SEC2        0.0000 
      5 N          18.7910    9.0200   26.6290 N.am      7 SEP2        0.0000 
      6 Zn         21.3755   12.1100   23.5370 Zn        4 ZIC7        0.0000 
      7 Zn         20.1890   11.9500   23.6250 Zn       14 ZIL7        0.0000 
      8 Zn         22.5620   12.2700   23.4490 Zn        9 ZIP7        0.0000 
      9 NZ         20.1990   16.8430   24.7795 N.4       3 LYC4        0.0000 
     10 NZ         21.5730   16.3580   25.0660 N.4      13 LYL4        0.0000 
     11 NZ         18.8250   17.3280   24.4930 N.4       8 LYP4        0.0000 
     12 N          20.1990   16.8430   24.7795 N.am      2 SEC2        0.0000 
     13 N          21.5730   16.3580   25.0660 N.am     12 SEL2        0.0000 
     14 N          18.8250   17.3280   24.4930 N.am      7 SEP2        0.0000 
     15 N          22.3880   16.6495   23.8985 N.am      2 SEC2        0.0000 
     16 N          23.2030   16.9410   22.7310 N.am      7 SEP2        0.0000 
     17 Zn         22.6550   13.0940   24.2965 Zn        4 ZIC7        0.0000 
     18 Zn         22.7480   13.9180   25.1440 Zn       14 ZIL7        0.0000 
     19 N          23.7840   14.2165   26.1580 N.am      2 SEC2        0.0000 
     20 N          22.7480   13.9180   25.1440 N.am     12 SEL2        0.0000 
     21 N          24.8200   14.5150   27.1720 N.am      7 SEP2        0.0000 
     22 N          19.4700   15.7810   24.6625 N.am      2 SEC2        0.0000 
     23 N          20.1150   14.2340   24.8320 N.am     12 SEL2        0.0000 
     24 CA         19.7115   17.0565   26.3770 C.3       5 GLC5        0.0000 
     25 CA         20.2940   15.3960   27.6690 C.3      15 GLL5        0.0000 
     26 CA         19.1290   18.7170   25.0850 C.3      10 GLP5        0.0000 
     27 CA         22.2440   15.5175   27.7995 C.3       5 GLC5        0.0000 
     28 CA         24.1940   15.6390   27.9300 C.3      10 GLP5        0.0000 
     29 CA         19.4870   12.4615   28.7700 C.3       5 GLC5        0.0000 
     30 CA         19.8770   14.5910   28.8970 C.3      15 GLL5        0.0000 
     31 CA         19.0970   10.3320   28.6430 C.3      10 GLP5        0.0000 
     32 N          17.1915   12.5065   31.4050 N.am      2 SEC2        0.0000 
     33 N          18.5160   13.4200   31.1140 N.am     12 SEL2        0.0000 
     34 N          15.8670   11.5930   31.6960 N.am      7 SEP2        0.0000 
     35 N          17.9980   13.3040   32.5700 N.am      2 SEC2        0.0000 
     36 N          17.4800   13.1880   34.0260 N.am      7 SEP2        0.0000 
     37 CA         21.8920   13.6085   31.5120 C.3       5 GLC5        0.0000 
     38 CA         20.5130   14.7590   31.2010 C.3      15 GLL5        0.0000 
     39 CA         23.2710   12.4580   31.8230 C.3      10 GLP5        0.0000 
     40 CA         24.5740   17.2130   35.2320 C.3       5 GLC5        0.0000 
     41 CA         22.7910   17.3780   34.8100 C.3      15 GLL5        0.0000 
     42 CA         26.3570   17.0480   35.6540 C.3      10 GLP5        0.0000 
     43 O          23.7840   19.1840   36.0385 O.2       1 ALC1        0.0000 
     44 O          23.1970   18.5850   35.2580 O.2      11 ALL1        0.0000 
     45 O          24.3710   19.7830   36.8190 O.2       6 ALP1        0.0000 
     46 N          23.9960   16.4170   36.5800 N.am      2 SEC2        0.0000 
     47 N          23.0230   16.2550   35.5400 N.am     12 SEL2        0.0000 
     48 N          24.9690   16.5790   37.6200 N.am      7 SEP2        0.0000 
     49 CA         20.9115   15.2970   35.4450 C.3       5 GLC5        0.0000 
     50 CA         22.6370   15.0260   35.1060 C.3      15 GLL5        0.0000 
     51 CA         19.1860   15.5680   35.7840 C.3      10 GLP5        0.0000 
     52 CA         23.9230   13.9135   34.3170 C.3       5 GLC5        0.0000 
     53 CA         25.2090   12.8010   33.5280 C.3      10 GLP5        0.0000 
     54 CA         24.4970   16.0370   35.3800 C.3       5 GLC5        0.0000 
     55 CA         17.6367   16.1590   31.3480 C.3       5 GLC5        0.0000 
     56 CA         18.9780   14.7810   31.1070 C.3      15 GLL5        0.0000 
     57 CA         16.4090   17.2960   32.3040 C.3      10 GLP5        0.0000 
     58 CA         23.4000   15.4900   32.4070 C.3       5 GLC5        0.0000 
     59 CA         22.0900   17.2220   33.5050 C.3      15 GLL5        0.0000 
     60 CA         24.9130   14.4470   31.5030 C.3      10 GLP5        0.0000 
     61 CA         20.6241   16.0700   34.7106 C.3       5 GLC5        0.0000 
     62 CA         21.6840   15.8440   33.1170 C.3      15 GLL5        0.0000 
@<TRIPOS>BOND
@<TRIPOS>SUBSTRUCTURE
     1 ALC1       43 GROUP        1 X    ALC  0     ROOT ALC X 1
     2 SEC2        1 GROUP        1 X    SEC  0     **** SEC X 2
     3 LYC4        9 GROUP        1 X    LYC  0     **** LYC X 4
     4 ZIC7        6 GROUP        1 X    ZIC  0     **** ZIC X 5
     5 GLC5       24 GROUP        1 X    GLC  0     **** GLC X 6
     6 ALP1       45 GROUP        1 Y    ALP  0     ROOT ALP Y 8
     7 SEP2        3 GROUP        1 Y    SEP  0     **** SEP Y 9
     8 LYP4       11 GROUP        1 Y    LYP  0     **** LYP Y 11
     9 ZIP7        8 GROUP        1 Y    ZIP  0     **** ZIP Y 12
    10 GLP5       26 GROUP        1 Y    GLP  0     **** GLP Y 13
    11 ALL1       44 GROUP        1 Z    ALL  0     ROOT ALL Z 15
    12 SEL2        2 GROUP        1 Z    SEL  0     **** SEL Z 16
    13 LYL4       10 GROUP        1 Z    LYL  0     **** LYL Z 18
    14 ZIL7        7 GROUP        1 Z    ZIL  0     **** ZIL Z 19
    15 GLL5       25 GROUP        1 Z    GLL  0     **** GLL Z 20
@<TRIPOS>SET

