#    Name: 3tsu_ADP_1_ligand
#    Modification time : Mon Mar 24 20:53:45 2014

@<TRIPOS>MOLECULE
3tsu_ADP_1_ligand
   39    41     1     0     0
SMALL
NO_CHARGES


@<TRIPOS>ATOM
      1 PB         19.4480   12.7480   24.7530 P.3       1 ADP747      0.0000 
      2 O1B        18.0490   13.2070   24.2670 O.co2     1 ADP747      0.0000 
      3 O2B        19.3980   12.1540   26.1160 O.co2     1 ADP747      0.0000 
      4 O3B        20.1890   11.9500   23.6250 O.co2     1 ADP747      0.0000 
      5 PA         21.5270   14.8120   25.3860 P.3       1 ADP747      0.0000 
      6 O1A        21.5730   16.3580   25.0660 O.co2     1 ADP747      0.0000 
      7 O2A        22.7480   13.9180   25.1440 O.co2     1 ADP747      0.0000 
      8 O3A        20.1150   14.2340   24.8320 O.3       1 ADP747      0.0000 
      9 O5'        21.3110   14.6510   27.0210 O.3       1 ADP747      0.0000 
     10 C5'        20.2940   15.3960   27.6690 C.3       1 ADP747      0.0000 
     11 C4'        19.8770   14.5910   28.8970 C.3       1 ADP747      0.0000 
     12 O4'        21.0000   14.6110   29.8210 O.3       1 ADP747      0.0000 
     13 C3'        18.7510   15.2630   29.6770 C.3       1 ADP747      0.0000 
     14 O3'        17.4410   14.9230   29.2510 O.3       1 ADP747      0.0000 
     15 C2'        18.9780   14.7810   31.1070 C.3       1 ADP747      0.0000 
     16 O2'        18.5160   13.4200   31.1140 O.3       1 ADP747      0.0000 
     17 C1'        20.5130   14.7590   31.2010 C.3       1 ADP747      0.0000 
     18 N9         21.0760   15.9380   31.9360 N.pl3     1 ADP747      0.0000 
     19 C8         21.0660   17.2590   31.5750 C.2       1 ADP747      0.0000 
     20 N7         21.6750   18.0290   32.5240 N.2       1 ADP747      0.0000 
     21 C5         22.0900   17.2220   33.5050 C.ar      1 ADP747      0.0000 
     22 C6         22.7910   17.3780   34.8100 C.ar      1 ADP747      0.0000 
     23 N6         23.1970   18.5850   35.2580 N.pl3     1 ADP747      0.0000 
     24 N1         23.0230   16.2550   35.5400 N.ar      1 ADP747      0.0000 
     25 C2         22.6370   15.0260   35.1060 C.ar      1 ADP747      0.0000 
     26 N3         21.9880   14.7890   33.9300 N.ar      1 ADP747      0.0000 
     27 C4         21.6840   15.8440   33.1170 C.ar      1 ADP747      0.0000 
     28 H          19.4172   15.5283   27.0434 H         1 ADP747      0.0000 
     29 H          20.6452   16.3649   28.0088 H         1 ADP747      0.0000 
     30 H          19.6131   13.6174   28.6415 H         1 ADP747      0.0000 
     31 H          18.9384   16.3240   29.6772 H         1 ADP747      0.0000 
     32 H          18.5704   15.4001   31.7727 H         1 ADP747      0.0000 
     33 H          20.7655   13.8347   31.7525 H         1 ADP747      0.0000 
     34 H          20.6755   17.6017   30.7499 H         1 ADP747      0.0000 
     35 H          23.0289   19.3599   34.6486 H         1 ADP747      0.0000 
     36 H          23.6298   18.5970   36.1594 H         1 ADP747      0.0000 
     37 H          22.8567   14.1847   35.7290 H         1 ADP747      0.0000 
     38 H          17.5597   14.5269   28.3405 H         1 ADP747      0.0000 
     39 H          17.7839   13.3918   30.4334 H         1 ADP747      0.0000 
@<TRIPOS>BOND
     1    2    1 ar   
     2    3    1 ar   
     3    4    1 ar   
     4    8    1 1    
     5    6    5 ar   
     6    7    5 ar   
     7    8    5 1    
     8    9    5 1    
     9   10    9 1    
    10   11   10 1    
    11   28   10 1    
    12   29   10 1    
    13   12   11 1    
    14   13   11 1    
    15   30   11 1    
    16   17   12 1    
    17   14   13 1    
    18   15   13 1    
    19   31   13 1    
    20   38   14 1    
    21   16   15 1    
    22   17   15 1    
    23   32   15 1    
    24   39   16 1    
    25   18   17 1    
    26   33   17 1    
    27   19   18 1    
    28   27   18 1    
    29   20   19 2    
    30   34   19 1    
    31   21   20 1    
    32   22   21 ar   
    33   27   21 ar   
    34   23   22 1    
    35   24   22 ar   
    36   35   23 1    
    37   36   23 1    
    38   25   24 ar   
    39   26   25 ar   
    40   37   25 1    
    41   27   26 ar   
@<TRIPOS>SUBSTRUCTURE
     1 ADP747      1 GROUP   
@<TRIPOS>SET

