#    Name: 4H2G_1_CAVITY_N1_ALL.mol2
#    Modification time : Tue Mar 11 01:23:22 2014

@<TRIPOS>MOLECULE
4H2G_1_CAVITY_N1_ALL.mol2
  106     0     5     0     0
SMALL
NO_CHARGES


@<TRIPOS>ATOM
      1 NZ         10.2044   14.4250   39.6133 N.2       2 LYS4        0.0000 
      2 NZ         11.1267   15.0837   38.6307 N.2       2 LYS4        0.0000 
      3 CA         12.0304   13.8874   38.6771 C.3       4 GLY6        0.0000 
      4 O          10.3634   14.4632   37.4983 O.2       1 ALA2        0.0000 
      5 N          11.2672   13.2669   37.5447 N.2       1 ALA2        0.0000 
      6 NZ         11.1452   16.9387   37.6018 N.2       2 LYS4        0.0000 
      7 NZ         12.0489   15.7424   37.6481 N.2       2 LYS4        0.0000 
      8 NZ         12.9527   14.5461   37.6945 N.2       2 LYS4        0.0000 
      9 DU         10.3819   16.3181   36.4693 H         5 CUB7        0.0000 
     10 N          11.2857   15.1219   36.5157 N.2       1 ALA2        0.0000 
     11 O          10.5224   14.5013   35.3833 O.2       1 ALA2        0.0000 
     12 CZ         12.9712   16.4011   36.6655 C.ar      3 PHE5        0.0000 
     13 CZ         11.3042   16.9768   35.4867 C.ar      3 PHE5        0.0000 
     14 CZ         12.2079   15.7806   35.5331 C.ar      3 PHE5        0.0000 
     15 N          13.1117   14.5843   35.5795 N.2       1 ALA2        0.0000 
     16 CZ         11.4447   15.1600   34.4007 C.ar      3 PHE5        0.0000 
     17 CZ         12.2265   17.6355   34.5041 C.ar      3 PHE5        0.0000 
     18 CZ         13.1302   16.4393   34.5505 C.ar      3 PHE5        0.0000 
     19 CA         14.0340   15.2430   34.5969 C.3       4 GLY6        0.0000 
     20 CZ         11.4632   17.0150   33.3717 C.ar      3 PHE5        0.0000 
     21 CZ         12.2450   19.4905   33.4752 C.ar      3 PHE5        0.0000 
     22 CZ         13.1487   18.2943   33.5216 C.ar      3 PHE5        0.0000 
     23 CZ         14.0525   17.0980   33.5679 C.ar      3 PHE5        0.0000 
     24 CZ         14.9563   15.9017   33.6143 C.ar      3 PHE5        0.0000 
     25 CA         15.8601   14.7055   33.6606 C.3       4 GLY6        0.0000 
     26 CZ         11.4817   18.8700   32.3428 C.ar      3 PHE5        0.0000 
     27 CZ         12.3855   17.6737   32.3891 C.ar      3 PHE5        0.0000 
     28 CA         15.0968   14.0849   32.5282 C.3       4 GLY6        0.0000 
     29 N          17.5456   15.9847   33.8104 N.2       1 ALA2        0.0000 
     30 CZ         12.2635   21.3455   32.4462 C.ar      3 PHE5        0.0000 
     31 CZ         13.1672   20.1492   32.4926 C.ar      3 PHE5        0.0000 
     32 CZ         14.0710   18.9530   32.5390 C.ar      3 PHE5        0.0000 
     33 CA         14.9748   17.7567   32.5853 C.3       4 GLY6        0.0000 
     34 CA         15.8786   16.5604   32.6317 C.3       4 GLY6        0.0000 
     35 CA         16.7824   15.3642   32.6780 C.3       4 GLY6        0.0000 
     36 CA         17.6861   14.1679   32.7244 C.3       4 GLY6        0.0000 
     37 DU         11.5002   20.7249   31.3138 H         5 CUB7        0.0000 
     38 CA         12.4040   19.5287   31.3602 C.3       4 GLY6        0.0000 
     39 CA         13.3077   18.3324   31.4065 C.3       4 GLY6        0.0000 
     40 CA         14.2115   17.1362   31.4529 C.3       4 GLY6        0.0000 
     41 CZ         15.1153   15.9399   31.4993 C.ar      3 PHE5        0.0000 
     42 CZ         16.0191   14.7437   31.5456 C.ar      3 PHE5        0.0000 
     43 N          16.9229   13.5474   31.5920 N.2       1 ALA2        0.0000 
     44 CA         17.8266   12.3511   31.6383 C.3       4 GLY6        0.0000 
     45 NZ         10.7369   20.1044   30.1814 N.2       2 LYS4        0.0000 
     46 CA         11.6407   18.9081   30.2278 C.3       4 GLY6        0.0000 
     47 CZ         15.2558   14.1231   30.4132 C.ar      3 PHE5        0.0000 
     48 N          16.1596   12.9269   30.4596 N.2       1 ALA2        0.0000 
     49 CA         10.8774   18.2876   29.0954 C.3       4 GLY6        0.0000 
     50 CZ         13.9490   22.6247   32.5960 C.ar      3 PHE5        0.0000 
     51 CZ         14.8528   21.4285   32.6424 C.ar      3 PHE5        0.0000 
     52 DU         12.2820   23.2004   31.4173 H         5 CUB7        0.0000 
     53 DU         13.1857   22.0042   31.4636 H         5 CUB7        0.0000 
     54 CZ         14.0895   20.8079   31.5100 C.ar      3 PHE5        0.0000 
     55 CA         14.9933   19.6117   31.5564 C.3       4 GLY6        0.0000 
     56 CA         15.8971   18.4154   31.6027 C.3       4 GLY6        0.0000 
     57 CA         16.8009   17.2192   31.6491 C.3       4 GLY6        0.0000 
     58 CA         17.7046   16.0229   31.6954 C.3       4 GLY6        0.0000 
     59 CA         18.6084   14.8266   31.7418 C.3       4 GLY6        0.0000 
     60 CZ         19.5122   13.6304   31.7882 C.ar      3 PHE5        0.0000 
     61 NZ         11.5187   22.5799   30.2849 N.2       2 LYS4        0.0000 
     62 DU         12.4225   21.3837   30.3312 H         5 CUB7        0.0000 
     63 N          13.3262   20.1874   30.3776 N.2       1 ALA2        0.0000 
     64 CA         14.2300   18.9911   30.4239 C.3       4 GLY6        0.0000 
     65 CA         15.1338   17.7949   30.4703 C.3       4 GLY6        0.0000 
     66 CA         16.0376   16.5986   30.5167 C.3       4 GLY6        0.0000 
     67 NZ         16.9414   15.4024   30.5630 N.2       2 LYS4        0.0000 
     68 NZ         17.8451   14.2061   30.6094 N.2       2 LYS4        0.0000 
     69 CA         18.7489   13.0098   30.6557 C.3       4 GLY6        0.0000 
     70 NZ         11.6592   20.7631   29.1988 N.2       2 LYS4        0.0000 
     71 N          12.5630   19.5669   29.2452 N.2       1 ALA2        0.0000 
     72 CA         15.2743   15.9781   29.3843 C.3       4 GLY6        0.0000 
     73 NZ         16.1781   14.7818   29.4306 N.2       2 LYS4        0.0000 
     74 NZ         17.0819   13.5856   29.4770 N.2       2 LYS4        0.0000 
     75 DU         14.8713   23.2834   31.6135 H         5 CUB7        0.0000 
     76 DU         13.2042   23.8592   30.4347 H         5 CUB7        0.0000 
     77 DU         14.1080   22.6629   30.4810 H         5 CUB7        0.0000 
     78 O          15.0118   21.4666   30.5274 O.2       1 ALA2        0.0000 
     79 O          15.9156   20.2704   30.5738 O.2       1 ALA2        0.0000 
     80 N          17.7231   17.8779   30.6665 N.2       1 ALA2        0.0000 
     81 CA         18.6269   16.6816   30.7128 C.3       4 GLY6        0.0000 
     82 CA         19.5307   15.4854   30.7592 C.3       4 GLY6        0.0000 
     83 CA         12.4410   23.2386   29.3023 C.3       4 GLY6        0.0000 
     84 DU         13.3448   22.0424   29.3486 H         5 CUB7        0.0000 
     85 N          14.2485   20.8461   29.3950 N.2       1 ALA2        0.0000 
     86 N          15.1523   19.6498   29.4413 N.2       1 ALA2        0.0000 
     87 CA         16.0561   18.4536   29.4877 C.3       4 GLY6        0.0000 
     88 NZ         17.8636   16.0611   29.5804 N.2       2 LYS4        0.0000 
     89 NZ         18.7674   14.8648   29.6268 N.2       2 LYS4        0.0000 
     90 CA         11.6777   22.6181   28.1699 C.3       4 GLY6        0.0000 
     91 N          12.5815   21.4218   28.2162 N.2       1 ALA2        0.0000 
     92 O          15.7936   23.9421   30.6309 O.2       1 ALA2        0.0000 
     93 DU         14.1265   24.5179   29.4521 H         5 CUB7        0.0000 
     94 O          15.0303   23.3216   29.4984 O.2       1 ALA2        0.0000 
     95 N          14.2670   22.7011   28.3660 N.2       1 ALA2        0.0000 
     96 O          15.1708   21.5048   28.4124 O.2       1 ALA2        0.0000 
     97 O          16.0746   20.3086   28.4588 O.2       1 ALA2        0.0000 
     98 N          13.5038   22.0805   27.2336 N.2       1 ALA2        0.0000 
     99 N          14.4075   20.8843   27.2800 N.2       1 ALA2        0.0000 
    100 O          16.7159   24.6009   29.6483 O.2       1 ALA2        0.0000 
    101 DU         15.0488   25.1766   28.4695 H         5 CUB7        0.0000 
    102 O          15.9526   23.9803   28.5158 O.2       1 ALA2        0.0000 
    103 N          14.2855   24.5560   27.3371 N.2       1 ALA2        0.0000 
    104 N          15.1893   23.3598   27.3834 N.2       1 ALA2        0.0000 
    105 O          16.0931   22.1635   27.4298 O.2       1 ALA2        0.0000 
    106 N          14.4260   22.7392   26.2510 N.2       1 ALA2        0.0000 
@<TRIPOS>BOND
@<TRIPOS>SUBSTRUCTURE
     1 ALA2        4 GROUP   
     2 LYS4        1 GROUP   
     3 PHE5       12 GROUP   
     4 GLY6        3 GROUP   
     5 CUB7        9 GROUP   
@<TRIPOS>SET

