#    Name: 4h2g_ADN_1_INTS_M
#    Modification time : Tue Mar 25 00:08:09 2014

@<TRIPOS>MOLECULE
4h2g_ADN_1_INTS_M
   46     0     9     0     0
SMALL
NO_CHARGES


@<TRIPOS>ATOM
      1 N           9.3445   11.6110   37.8505 N.am      2 SEC2        0.0000 
      2 N           8.5410   13.0560   37.3760 N.am      8 SEL2        0.0000 
      3 N          10.1480   10.1660   38.3250 N.am      5 SEP2        0.0000 
      4 N           9.2390   12.3825   36.4115 N.am      2 SEC2        0.0000 
      5 N           9.9370   11.7090   35.4470 N.am      5 SEP2        0.0000 
      6 CA         12.1320   12.8665   37.8190 C.3       3 GLC5        0.0000 
      7 CA         10.5320   14.2510   37.7840 C.3       9 GLL5        0.0000 
      8 CA         13.7320   11.4820   37.8540 C.3       6 GLP5        0.0000 
      9 CA         12.2990   14.0655   39.7945 C.3       3 GLC5        0.0000 
     10 CA         11.2530   15.4060   38.3710 C.3       9 GLL5        0.0000 
     11 CA         13.3450   12.7250   41.2180 C.3       6 GLP5        0.0000 
     12 O          12.2555   16.0205   40.0360 O.2       1 ALC1        0.0000 
     13 O          11.4260   15.0750   39.7460 O.2       7 ALL1        0.0000 
     14 O          13.0850   16.9660   40.3260 O.2       4 ALP1        0.0000 
     15 O          13.0750   15.4270   39.7175 O.2       1 ALC1        0.0000 
     16 O          14.7240   15.7790   39.6890 O.2       4 ALP1        0.0000 
     17 CA         13.7720   16.8745   37.3050 C.3       3 GLC5        0.0000 
     18 CA         12.5590   15.4370   37.5710 C.3       9 GLL5        0.0000 
     19 CA         14.9850   18.3120   37.0390 C.3       6 GLP5        0.0000 
     20 N          14.7850   14.6625   37.6305 N.am      2 SEC2        0.0000 
     21 N          13.4020   14.5000   38.1830 N.am      8 SEL2        0.0000 
     22 N          16.1680   14.8250   37.0780 N.am      5 SEP2        0.0000 
     23 O          13.2435   15.7330   39.2545 O.2       1 ALC1        0.0000 
     24 O          13.4020   14.5000   38.1830 O.2       7 ALL1        0.0000 
     25 O          14.0630   15.1395   38.9360 O.2       1 ALC1        0.0000 
     26 CA         13.7550   13.5935   35.3410 C.3       3 GLC5        0.0000 
     27 CA         12.1900   14.9100   36.2230 C.3       9 GLL5        0.0000 
     28 CA         15.3200   12.2770   34.4590 C.3       6 GLP5        0.0000 
     29 CA         12.0295   14.4590   34.0705 C.3       3 GLC5        0.0000 
     30 CA         11.8690   14.0080   31.9180 C.3       6 GLP5        0.0000 
     31 CA         12.9900   16.9620   36.5735 C.3       3 GLC5        0.0000 
     32 CA         13.7900   19.0140   36.9240 C.3       6 GLP5        0.0000 
     33 CA         15.2550   18.4870   33.1630 C.3       3 GLC5        0.0000 
     34 CA         13.6670   17.6540   32.4370 C.3       9 GLL5        0.0000 
     35 CA         16.8430   19.3200   33.8890 C.3       6 GLP5        0.0000 
     36 CA         15.2730   14.1370   33.8300 C.3       3 GLC5        0.0000 
     37 CA         15.2260   15.9970   33.2010 C.3       9 GLL5        0.0000 
     38 CA         16.0345   17.6585   33.5450 C.3       3 GLC5        0.0000 
     39 N          15.2800   15.2185   35.6290 N.am      2 SEC2        0.0000 
     40 N          14.3920   15.6120   34.1800 N.am      8 SEL2        0.0000 
     41 CA         14.2435   14.2130   34.3965 C.3       3 GLC5        0.0000 
     42 CA         13.1670   16.1490   34.3340 C.3       9 GLL5        0.0000 
     43 CA         13.0532   13.3277   37.3755 C.3       3 GLC5        0.0000 
     44 CA         12.9863   16.8870   31.0068 C.3       3 GLC5        0.0000 
     45 CA         12.7200   17.2380   33.4640 C.3       9 GLL5        0.0000 
     46 CA         12.7790   16.3280   29.0630 C.3       6 GLP5        0.0000 
@<TRIPOS>BOND
@<TRIPOS>SUBSTRUCTURE
     1 ALC1       12 GROUP        1 X    ALC  0     ROOT ALC X 1
     2 SEC2        1 GROUP        1 X    SEC  0     **** SEC X 2
     3 GLC5        6 GROUP        1 X    GLC  0     **** GLC X 6
     4 ALP1       14 GROUP        1 Y    ALP  0     ROOT ALP Y 8
     5 SEP2        3 GROUP        1 Y    SEP  0     **** SEP Y 9
     6 GLP5        8 GROUP        1 Y    GLP  0     **** GLP Y 13
     7 ALL1       13 GROUP        1 Z    ALL  0     ROOT ALL Z 15
     8 SEL2        2 GROUP        1 Z    SEL  0     **** SEL Z 16
     9 GLL5        7 GROUP        1 Z    GLL  0     **** GLL Z 20
@<TRIPOS>SET

