#    Name: 4h2g_ADN_1_ligand
#    Modification time : Tue Mar 25 00:08:09 2014

@<TRIPOS>MOLECULE
4h2g_ADN_1_ligand
   32    34     1     0     0
SMALL
NO_CHARGES


@<TRIPOS>ATOM
      1 O5'         8.5410   13.0560   37.3760 O.3       1 ADN603      0.0000 
      2 C5'         9.0120   14.2870   37.9450 C.3       1 ADN603      0.0000 
      3 C4'        10.5320   14.2510   37.7840 C.3       1 ADN603      0.0000 
      4 O4'        10.9030   14.3000   36.4170 O.3       1 ADN603      0.0000 
      5 C3'        11.2530   15.4060   38.3710 C.3       1 ADN603      0.0000 
      6 O3'        11.4260   15.0750   39.7460 O.3       1 ADN603      0.0000 
      7 C2'        12.5590   15.4370   37.5710 C.3       1 ADN603      0.0000 
      8 O2'        13.4020   14.5000   38.1830 O.3       1 ADN603      0.0000 
      9 C1'        12.1900   14.9100   36.2230 C.3       1 ADN603      0.0000 
     10 N9         12.1520   15.9380   35.1710 N.pl3     1 ADN603      0.0000 
     11 C8         11.1500   16.7930   34.8840 C.2       1 ADN603      0.0000 
     12 N7         11.4900   17.5820   33.8360 N.2       1 ADN603      0.0000 
     13 C5         12.7200   17.2380   33.4640 C.ar      1 ADN603      0.0000 
     14 C6         13.6670   17.6540   32.4370 C.ar      1 ADN603      0.0000 
     15 N6         13.3030   18.6370   31.6280 N.pl3     1 ADN603      0.0000 
     16 N1         14.8660   17.0090   32.3780 N.ar      1 ADN603      0.0000 
     17 C2         15.2260   15.9970   33.2010 C.ar      1 ADN603      0.0000 
     18 N3         14.3920   15.6120   34.1800 N.ar      1 ADN603      0.0000 
     19 C4         13.1670   16.1490   34.3340 C.ar      1 ADN603      0.0000 
     20 H           8.7859   14.3596   38.9958 H         1 ADN603      0.0000 
     21 H           8.6372   15.1470   37.4154 H         1 ADN603      0.0000 
     22 H          10.9160   13.3411   38.2316 H         1 ADN603      0.0000 
     23 H          10.7079   16.2767   38.1992 H         1 ADN603      0.0000 
     24 H          12.9169   16.3928   37.5226 H         1 ADN603      0.0000 
     25 H          12.9104   14.1330   35.9647 H         1 ADN603      0.0000 
     26 H          10.2986   16.8402   35.3611 H         1 ADN603      0.0000 
     27 H          13.9671   18.8995   30.9280 H         1 ADN603      0.0000 
     28 H          12.3970   19.0278   31.7903 H         1 ADN603      0.0000 
     29 H          16.1426   15.5243   33.0721 H         1 ADN603      0.0000 
     30 H           8.1360   12.5556   38.1412 H         1 ADN603      0.0000 
     31 H          12.3384   15.4107   39.9801 H         1 ADN603      0.0000 
     32 H          13.5715   14.8639   39.0989 H         1 ADN603      0.0000 
@<TRIPOS>BOND
     1    2    1 1    
     2   30    1 1    
     3    3    2 1    
     4   20    2 1    
     5   21    2 1    
     6    4    3 1    
     7    5    3 1    
     8   22    3 1    
     9    9    4 1    
    10    6    5 1    
    11    7    5 1    
    12   23    5 1    
    13   31    6 1    
    14    8    7 1    
    15    9    7 1    
    16   24    7 1    
    17   32    8 1    
    18   10    9 1    
    19   25    9 1    
    20   11   10 1    
    21   19   10 1    
    22   12   11 2    
    23   26   11 1    
    24   13   12 1    
    25   14   13 ar   
    26   19   13 ar   
    27   15   14 1    
    28   16   14 ar   
    29   27   15 1    
    30   28   15 1    
    31   17   16 ar   
    32   18   17 ar   
    33   29   17 1    
    34   19   18 ar   
@<TRIPOS>SUBSTRUCTURE
     1 ADN603      1 GROUP   
@<TRIPOS>SET

