#    Name: 1bk0_ACV_1_INTS_M
#    Modification time : Mon Mar 24 19:36:50 2014

@<TRIPOS>MOLECULE
1bk0_ACV_1_INTS_M
   63     0     9     0     0
SMALL
NO_CHARGES


@<TRIPOS>ATOM
      1 CA         16.2635   34.7425    6.8475 C.3       3 GLC5        0.0000 
      2 CA         15.8250   36.5800    6.1520 C.3       9 GLL5        0.0000 
      3 CA         16.7020   32.9050    7.5430 C.3       6 GLP5        0.0000 
      4 CA         14.3850   35.0875    5.9895 C.3       3 GLC5        0.0000 
      5 CA         12.9450   33.5950    5.8270 C.3       6 GLP5        0.0000 
      6 CA         16.2460   39.3460    4.8320 C.3       3 GLC5        0.0000 
      7 CA         15.2150   37.8070    5.4750 C.3       9 GLL5        0.0000 
      8 CA         17.2770   40.8850    4.1890 C.3       6 GLP5        0.0000 
      9 CA         15.3005   40.1245    4.6815 C.3       3 GLC5        0.0000 
     10 CA         13.3240   39.3640    5.1740 C.3       9 GLL5        0.0000 
     11 CA         12.9730   41.2840    4.8645 C.3       3 GLC5        0.0000 
     12 CA         12.6220   43.2040    4.5550 C.3       6 GLP5        0.0000 
     13 CA         10.5520   38.2955    3.5285 C.3       3 GLC5        0.0000 
     14 CA          9.5070   39.7250    4.8630 C.3       9 GLL5        0.0000 
     15 CA         11.5970   36.8660    2.1940 C.3       6 GLP5        0.0000 
     16 CA         10.8685   41.9575    4.1555 C.3       3 GLC5        0.0000 
     17 CA          9.1150   40.7110    3.7560 C.3       9 GLL5        0.0000 
     18 CA         10.6510   38.6915    1.4960 C.3       3 GLC5        0.0000 
     19 CA          9.5200   40.0700    2.0960 C.3       9 GLL5        0.0000 
     20 CA         11.7820   37.3130    0.8960 C.3       6 GLP5        0.0000 
     21 NZ         19.4935   36.3175    6.0700 N.4       2 LYC4        0.0000 
     22 NZ         18.1630   36.4560    6.5370 N.4       8 LYL4        0.0000 
     23 NZ         21.0400   35.6830    4.3920 N.4       5 LYP4        0.0000 
     24 N          19.4935   36.3175    6.0700 N.am      1 SEC2        0.0000 
     25 N          18.1630   36.4560    6.5370 N.am      7 SEL2        0.0000 
     26 N          20.8240   36.1790    5.6030 N.am      4 SEP2        0.0000 
     27 NZ         18.7105   35.7665    4.0200 N.4       2 LYC4        0.0000 
     28 NZ         17.3990   36.0650    4.4840 N.4       8 LYL4        0.0000 
     29 N          18.7105   35.7665    4.0200 N.am      1 SEC2        0.0000 
     30 N          17.3990   36.0650    4.4840 N.am      7 SEL2        0.0000 
     31 N          20.0220   35.4680    3.5560 N.am      4 SEP2        0.0000 
     32 N          16.9540   35.0070    3.7715 N.am      1 SEC2        0.0000 
     33 N          16.5090   33.9490    3.0590 N.am      4 SEP2        0.0000 
     34 CA          7.0495   36.0300    5.5440 C.3       3 GLC5        0.0000 
     35 CA          6.5430   37.3430    4.4020 C.3       9 GLL5        0.0000 
     36 CA          7.5560   34.7170    6.6860 C.3       6 GLP5        0.0000 
     37 CA          5.3600   36.0555    1.1660 C.3       3 GLC5        0.0000 
     38 CA          6.1090   37.1560    2.9150 C.3       9 GLL5        0.0000 
     39 CA          4.6110   34.9550   -0.5830 C.3       6 GLP5        0.0000 
     40 CA          6.6615   35.0870    1.3935 C.3       3 GLC5        0.0000 
     41 CA          7.3480   36.8750    2.0460 C.3       9 GLL5        0.0000 
     42 CA          5.9750   33.2990    0.7410 C.3       6 GLP5        0.0000 
     43 CA          8.4805   35.3495    1.8350 C.3       3 GLC5        0.0000 
     44 CA          9.6130   33.8240    1.6240 C.3       6 GLP5        0.0000 
     45 CA          9.4725   36.8705    2.1200 C.3       3 GLC5        0.0000 
     46 CA          3.6530   38.8315    1.8270 C.3       3 GLC5        0.0000 
     47 CA          5.5590   38.5400    2.4920 C.3       9 GLL5        0.0000 
     48 CA          1.7470   39.1230    1.1620 C.3       6 GLP5        0.0000 
     49 CA          4.0835   39.4650    3.5220 C.3       3 GLC5        0.0000 
     50 CA          2.6080   40.3900    4.5520 C.3       6 GLP5        0.0000 
     51 N           4.4895   38.2970    7.2970 N.am      1 SEC2        0.0000 
     52 N           5.2410   38.2960    6.2040 N.am      7 SEL2        0.0000 
     53 N           3.7380   38.2980    8.3900 N.am      4 SEP2        0.0000 
     54 N           4.4725   35.3565    4.5845 N.am      1 SEC2        0.0000 
     55 N           4.4260   36.5720    5.1470 N.am      7 SEL2        0.0000 
     56 N           4.5190   34.1410    4.0220 N.am      4 SEP2        0.0000 
     57 CA         13.2203   37.3389    4.1030 C.3       3 GLC5        0.0000 
     58 CA         13.7670   38.0880    5.9050 C.3       9 GLL5        0.0000 
     59 CA         12.5330   36.0220    2.7740 C.3       6 GLP5        0.0000 
     60 CA          8.4820   41.7335    5.0192 C.3       3 GLC5        0.0000 
     61 CA          7.6530   43.2490    5.7290 C.3       6 GLP5        0.0000 
     62 CA          8.9178   42.0782    2.3065 C.3       3 GLC5        0.0000 
     63 CA          8.5180   43.7660    1.6870 C.3       6 GLP5        0.0000 
@<TRIPOS>BOND
@<TRIPOS>SUBSTRUCTURE
     1 SEC2       24 GROUP        1 X    SEC  0     ROOT SEC X 2
     2 LYC4       21 GROUP        1 X    LYC  0     **** LYC X 4
     3 GLC5        1 GROUP        1 X    GLC  0     **** GLC X 6
     4 SEP2       26 GROUP        1 Y    SEP  0     ROOT SEP Y 9
     5 LYP4       23 GROUP        1 Y    LYP  0     **** LYP Y 11
     6 GLP5        3 GROUP        1 Y    GLP  0     **** GLP Y 13
     7 SEL2       25 GROUP        1 Z    SEL  0     ROOT SEL Z 16
     8 LYL4       22 GROUP        1 Z    LYL  0     **** LYL Z 18
     9 GLL5        2 GROUP        1 Z    GLL  0     **** GLL Z 20
@<TRIPOS>SET

