#    Name: 1bk0_ACV_1_ligand
#    Modification time : Mon Mar 24 19:36:50 2014

@<TRIPOS>MOLECULE
1bk0_ACV_1_ligand
   47    46     1     0     0
SMALL
NO_CHARGES


@<TRIPOS>ATOM
      1 C1         17.2560   36.3230    5.6780 C.2       1 ACV351      0.0000 
      2 C2         15.8250   36.5800    6.1520 C.3       1 ACV351      0.0000 
      3 C3         15.2150   37.8070    5.4750 C.3       1 ACV351      0.0000 
      4 C4         13.7670   38.0880    5.9050 C.3       1 ACV351      0.0000 
      5 C7         13.3240   39.3640    5.1740 C.3       1 ACV351      0.0000 
      6 C10        11.8960   39.6640    5.5960 C.2       1 ACV351      0.0000 
      7 N11        10.9350   39.4240    4.7170 N.am      1 ACV351      0.0000 
      8 C12         9.5070   39.7250    4.8630 C.3       1 ACV351      0.0000 
      9 C13         8.7610   38.3940    4.6920 C.2       1 ACV351      0.0000 
     10 N14        15.7760   36.7420    7.7520 N.4       1 ACV351      0.0000 
     11 O15        11.5580   40.0390    6.7060 O.2       1 ACV351      0.0000 
     12 C16         9.1150   40.7110    3.7560 C.3       1 ACV351      0.0000 
     13 S17         9.5200   40.0700    2.0960 S.3       1 ACV351      0.0000 
     14 O18         9.2810   37.2980    4.6860 O.2       1 ACV351      0.0000 
     15 O19        18.1630   36.4560    6.5370 O.co2     1 ACV351      0.0000 
     16 O20        17.3990   36.0650    4.4840 O.co2     1 ACV351      0.0000 
     17 N29         7.4160   38.4960    4.6170 N.am      1 ACV351      0.0000 
     18 C30         6.5430   37.3430    4.4020 C.3       1 ACV351      0.0000 
     19 C31         5.3180   37.4190    5.3300 C.2       1 ACV351      0.0000 
     20 C32         6.1090   37.1560    2.9150 C.3       1 ACV351      0.0000 
     21 C33         7.3480   36.8750    2.0460 C.3       1 ACV351      0.0000 
     22 C37         5.5590   38.5400    2.4920 C.3       1 ACV351      0.0000 
     23 O42         5.2410   38.2960    6.2040 O.co2     1 ACV351      0.0000 
     24 O43         4.4260   36.5720    5.1470 O.co2     1 ACV351      0.0000 
     25 H          15.2151   35.7109    5.9179 H         1 ACV351      0.0000 
     26 H          15.2394   37.6658    4.3850 H         1 ACV351      0.0000 
     27 H          15.8302   38.6884    5.7061 H         1 ACV351      0.0000 
     28 H          13.7331   38.2510    6.9626 H         1 ACV351      0.0000 
     29 H          13.1413   37.2708    5.6102 H         1 ACV351      0.0000 
     30 H          13.3643   39.1958    4.1124 H         1 ACV351      0.0000 
     31 H          13.9682   40.1769    5.4588 H         1 ACV351      0.0000 
     32 H          11.1745   38.9575    3.7738 H         1 ACV351      0.0000 
     33 H           9.2965   40.1329    5.8061 H         1 ACV351      0.0000 
     34 H           9.6643   41.6266    3.7844 H         1 ACV351      0.0000 
     35 H           8.0622   40.8762    3.6833 H         1 ACV351      0.0000 
     36 H           6.9344   39.4184    4.7110 H         1 ACV351      0.0000 
     37 H           7.0878   36.4181    4.6865 H         1 ACV351      0.0000 
     38 H           5.3940   36.4385    2.8268 H         1 ACV351      0.0000 
     39 H          14.8462   36.9088    8.0801 H         1 ACV351      0.0000 
     40 H          16.1089   35.9226    8.2187 H         1 ACV351      0.0000 
     41 H          16.3390   37.5068    8.0653 H         1 ACV351      0.0000 
     42 H           8.0102   37.6230    2.0905 H         1 ACV351      0.0000 
     43 H           7.8240   36.0445    2.3354 H         1 ACV351      0.0000 
     44 H           7.1066   36.7541    1.0831 H         1 ACV351      0.0000 
     45 H           6.2534   39.2553    2.5703 H         1 ACV351      0.0000 
     46 H           5.2438   38.5401    1.5430 H         1 ACV351      0.0000 
     47 H           4.7840   38.8206    3.0583 H         1 ACV351      0.0000 
@<TRIPOS>BOND
     1    2    1 1    
     2   15    1 ar   
     3   16    1 ar   
     4    3    2 1    
     5   10    2 1    
     6   25    2 1    
     7    4    3 1    
     8   26    3 1    
     9   27    3 1    
    10    5    4 1    
    11   28    4 1    
    12   29    4 1    
    13    6    5 1    
    14   30    5 1    
    15   31    5 1    
    16    7    6 am   
    17   11    6 2    
    18    8    7 1    
    19   32    7 1    
    20    9    8 1    
    21   12    8 1    
    22   33    8 1    
    23   14    9 2    
    24   17    9 am   
    25   39   10 1    
    26   40   10 1    
    27   41   10 1    
    28   13   12 1    
    29   34   12 1    
    30   35   12 1    
    31   18   17 1    
    32   36   17 1    
    33   19   18 1    
    34   20   18 1    
    35   37   18 1    
    36   23   19 ar   
    37   24   19 ar   
    38   21   20 1    
    39   22   20 1    
    40   38   20 1    
    41   42   21 1    
    42   43   21 1    
    43   44   21 1    
    44   45   22 1    
    45   46   22 1    
    46   47   22 1    
@<TRIPOS>SUBSTRUCTURE
     1 ACV351      1 GROUP   
@<TRIPOS>SET

