#    Name: 3pqc_GDP_1_INTS_M
#    Modification time : Tue Mar 25 08:19:02 2014

@<TRIPOS>MOLECULE
3pqc_GDP_1_INTS_M
   47     0     9     0     0
SMALL
NO_CHARGES


@<TRIPOS>ATOM
      1 N         -11.4035    7.1690   -9.8185 N.am      2 SEC2        0.0000 
      2 N         -12.2510    7.3510  -10.9580 N.am      8 SEL2        0.0000 
      3 N         -10.5560    6.9870   -8.6790 N.am      5 SEP2        0.0000 
      4 N          -9.4050    8.4120  -13.0265 N.am      2 SEC2        0.0000 
      5 N         -10.0380    7.7360  -11.9790 N.am      8 SEL2        0.0000 
      6 N          -8.7720    9.0880  -14.0740 N.am      5 SEP2        0.0000 
      7 N          -9.2370    8.9395  -11.7650 N.am      2 SEC2        0.0000 
      8 N          -8.4360   10.1430  -11.5510 N.am      5 SEP2        0.0000 
      9 N         -11.4665    8.2025  -14.7215 N.am      2 SEC2        0.0000 
     10 N         -12.0300    7.7420  -13.4160 N.am      8 SEL2        0.0000 
     11 N         -10.9030    8.6630  -16.0270 N.am      5 SEP2        0.0000 
     12 N          -9.9755    9.9030  -11.6540 N.am      2 SEC2        0.0000 
     13 N         -11.5150    9.6630  -11.7570 N.am      8 SEL2        0.0000 
     14 N         -11.6965   11.2650  -15.1755 N.am      2 SEC2        0.0000 
     15 N         -12.0420   11.1400  -13.7940 N.am      8 SEL2        0.0000 
     16 N         -11.3510   11.3900  -16.5570 N.am      5 SEP2        0.0000 
     17 N         -12.0135   12.3865  -14.3220 N.am      2 SEC2        0.0000 
     18 N         -11.9850   13.6330  -14.8500 N.am      5 SEP2        0.0000 
     19 N         -15.3680   10.6860  -12.2645 N.am      2 SEC2        0.0000 
     20 N         -13.9490   10.2580  -12.4210 N.am      8 SEL2        0.0000 
     21 N         -16.7870   11.1140  -12.1080 N.am      5 SEP2        0.0000 
     22 CA        -11.4855   10.1775   -9.2435 C.3       3 GLC5        0.0000 
     23 CA        -12.3230   11.9430  -10.1340 C.3       9 GLL5        0.0000 
     24 CA        -10.6480    8.4120   -8.3530 C.3       6 GLP5        0.0000 
     25 CA        -10.5190   11.4950  -11.3950 C.3       3 GLC5        0.0000 
     26 CA         -8.7150   11.0470  -12.6560 C.3       6 GLP5        0.0000 
     27 CA        -14.9990   13.1045   -8.7925 C.3       3 GLC5        0.0000 
     28 CA        -13.5190   13.9750  -10.2270 C.3       9 GLL5        0.0000 
     29 CA        -16.4790   12.2340   -7.3580 C.3       6 GLP5        0.0000 
     30 CA         -9.7435   14.3945   -9.7835 C.3       3 GLC5        0.0000 
     31 CA        -11.5870   15.0650  -10.5200 C.3       9 GLL5        0.0000 
     32 CA         -7.9000   13.7240   -9.0470 C.3       6 GLP5        0.0000 
     33 N          -6.4260   17.2570  -14.9760 N.am      2 SEC2        0.0000 
     34 N          -6.7050   17.0210  -13.6030 N.am      8 SEL2        0.0000 
     35 N          -6.1470   17.4930  -16.3490 N.am      5 SEP2        0.0000 
     36 O          -6.7065   19.1675  -12.0160 O.2       1 ALC1        0.0000 
     37 O          -7.7760   18.3070  -11.8780 O.2       7 ALL1        0.0000 
     38 O          -5.6370   20.0280  -12.1540 O.2       4 ALP1        0.0000 
     39 O          -7.7565   20.6315  -10.6725 O.2       1 ALC1        0.0000 
     40 O          -8.7310   19.6680  -10.1980 O.2       7 ALL1        0.0000 
     41 O          -6.7820   21.5950  -11.1470 O.2       4 ALP1        0.0000 
     42 CA        -14.1758   13.8020  -12.3140 C.3       3 GLC5        0.0000 
     43 CA        -12.8380   14.7530  -11.1950 C.3       9 GLL5        0.0000 
     44 CA        -15.1730   13.2400  -13.9170 C.3       6 GLP5        0.0000 
     45 CA         -7.6630   15.7523  -10.9697 C.3       3 GLC5        0.0000 
     46 CA         -9.6670   16.3860  -11.4220 C.3       9 GLL5        0.0000 
     47 CA         -6.1530   15.2210  -10.0290 C.3       6 GLP5        0.0000 
@<TRIPOS>BOND
@<TRIPOS>SUBSTRUCTURE
     1 ALC1       36 GROUP        1 X    ALC  0     ROOT ALC X 1
     2 SEC2        1 GROUP        1 X    SEC  0     **** SEC X 2
     3 GLC5       22 GROUP        1 X    GLC  0     **** GLC X 6
     4 ALP1       38 GROUP        1 Y    ALP  0     ROOT ALP Y 8
     5 SEP2        3 GROUP        1 Y    SEP  0     **** SEP Y 9
     6 GLP5       24 GROUP        1 Y    GLP  0     **** GLP Y 13
     7 ALL1       37 GROUP        1 Z    ALL  0     ROOT ALL Z 15
     8 SEL2        2 GROUP        1 Z    SEL  0     **** SEL Z 16
     9 GLL5       23 GROUP        1 Z    GLL  0     **** GLL Z 20
@<TRIPOS>SET

