#    Name: 3pqc_GDP_1_ligand
#    Modification time : Tue Mar 25 08:19:02 2014

@<TRIPOS>MOLECULE
3pqc_GDP_1_ligand
   40    42     1     0     0
SMALL
NO_CHARGES


@<TRIPOS>ATOM
      1 PB        -11.4770    8.0930  -12.0580 P.3       1 GDP801      0.0000 
      2 O1B       -12.2510    7.3510  -10.9580 O.co2     1 GDP801      0.0000 
      3 O2B       -10.0380    7.7360  -11.9790 O.co2     1 GDP801      0.0000 
      4 O3B       -12.0300    7.7420  -13.4160 O.co2     1 GDP801      0.0000 
      5 O3A       -11.5150    9.6630  -11.7570 O.3       1 GDP801      0.0000 
      6 PA        -12.4620   10.7570  -12.4380 P.3       1 GDP801      0.0000 
      7 O1A       -12.0420   11.1400  -13.7940 O.co2     1 GDP801      0.0000 
      8 O2A       -13.9490   10.2580  -12.4210 O.co2     1 GDP801      0.0000 
      9 O5'       -12.2950   12.0190  -11.5390 O.3       1 GDP801      0.0000 
     10 C5'       -12.3230   11.9430  -10.1340 C.3       1 GDP801      0.0000 
     11 C4'       -12.4890   13.2780   -9.4870 C.3       1 GDP801      0.0000 
     12 O4'       -11.3200   13.9930   -9.6630 O.3       1 GDP801      0.0000 
     13 C3'       -13.5190   13.9750  -10.2270 C.3       1 GDP801      0.0000 
     14 O3'       -14.2600   14.7950   -9.3510 O.3       1 GDP801      0.0000 
     15 C2'       -12.8380   14.7530  -11.1950 C.3       1 GDP801      0.0000 
     16 O2'       -13.5550   15.9610  -11.4930 O.3       1 GDP801      0.0000 
     17 C1'       -11.5870   15.0650  -10.5200 C.3       1 GDP801      0.0000 
     18 N9        -10.4520   15.2920  -11.4090 N.pl3     1 GDP801      0.0000 
     19 C8         -9.9760   14.4310  -12.3330 C.2       1 GDP801      0.0000 
     20 N7         -8.9050   14.9640  -12.9420 N.2       1 GDP801      0.0000 
     21 C5         -8.6790   16.1810  -12.3990 C.2       1 GDP801      0.0000 
     22 C6         -7.7260   17.1760  -12.6050 C.2       1 GDP801      0.0000 
     23 O6         -6.7050   17.0210  -13.6030 O.2       1 GDP801      0.0000 
     24 N1         -7.7760   18.3070  -11.8780 N.am      1 GDP801      0.0000 
     25 C2         -8.7320   18.4750  -10.9550 C.2       1 GDP801      0.0000 
     26 N2         -8.7310   19.6680  -10.1980 N.pl3     1 GDP801      0.0000 
     27 N3         -9.6620   17.5390  -10.7220 N.2       1 GDP801      0.0000 
     28 C4         -9.6670   16.3860  -11.4220 C.2       1 GDP801      0.0000 
     29 H         -11.3900   11.4820   -9.7343 H         1 GDP801      0.0000 
     30 H         -13.1505   11.2852   -9.7801 H         1 GDP801      0.0000 
     31 H         -12.7644   13.1557   -8.4819 H         1 GDP801      0.0000 
     32 H         -14.1505   13.2473  -10.7131 H         1 GDP801      0.0000 
     33 H         -12.6331   14.1791  -12.0658 H         1 GDP801      0.0000 
     34 H         -11.7465   15.9724   -9.9087 H         1 GDP801      0.0000 
     35 H         -10.3564   13.5534  -12.5263 H         1 GDP801      0.0000 
     36 H          -7.0638   19.0569  -12.0363 H         1 GDP801      0.0000 
     37 H          -8.0320   20.3413  -10.4388 H         1 GDP801      0.0000 
     38 H          -9.4294   19.7377   -9.4857 H         1 GDP801      0.0000 
     39 H         -14.3230   15.6786   -9.8150 H         1 GDP801      0.0000 
     40 H         -12.9694   16.6988  -11.1573 H         1 GDP801      0.0000 
@<TRIPOS>BOND
     1    2    1 ar   
     2    3    1 ar   
     3    4    1 ar   
     4    5    1 1    
     5    6    5 1    
     6    7    6 ar   
     7    8    6 ar   
     8    9    6 1    
     9   10    9 1    
    10   11   10 1    
    11   29   10 1    
    12   30   10 1    
    13   12   11 1    
    14   13   11 1    
    15   31   11 1    
    16   17   12 1    
    17   14   13 1    
    18   15   13 1    
    19   32   13 1    
    20   39   14 1    
    21   16   15 1    
    22   17   15 1    
    23   33   15 1    
    24   40   16 1    
    25   18   17 1    
    26   34   17 1    
    27   19   18 1    
    28   28   18 1    
    29   20   19 2    
    30   35   19 1    
    31   21   20 1    
    32   22   21 1    
    33   28   21 2    
    34   23   22 2    
    35   24   22 am   
    36   25   24 1    
    37   36   24 1    
    38   26   25 1    
    39   27   25 2    
    40   37   26 1    
    41   38   26 1    
    42   28   27 1    
@<TRIPOS>SUBSTRUCTURE
     1 GDP801      1 GROUP   
@<TRIPOS>SET

