#    Name: 4lue_VSE_2_INTS_M
#    Modification time : Tue Apr  8 00:10:29 2014

@<TRIPOS>MOLECULE
4lue_VSE_2_INTS_M
   88     0     9     0     0
SMALL
NO_CHARGES


@<TRIPOS>ATOM
      1 O          35.8350   -0.7460  -81.1105 O.2       1 ALC1        0.0000 
      2 O          34.3450   -0.2630  -81.0410 O.2       7 ALL1        0.0000 
      3 O          37.3250   -1.2290  -81.1800 O.2       4 ALP1        0.0000 
      4 CA         30.3055    2.2250  -81.6865 C.3       3 GLC5        0.0000 
      5 CA         31.8860    1.7600  -80.2190 C.3       9 GLL5        0.0000 
      6 CA         28.7250    2.6900  -83.1540 C.3       6 GLP5        0.0000 
      7 CA         31.3965    1.6425  -82.5935 C.3       3 GLC5        0.0000 
      8 CA         32.7530    2.4790  -81.0610 C.3       9 GLL5        0.0000 
      9 CA         30.0400    0.8060  -84.1260 C.3       6 GLP5        0.0000 
     10 CA         34.0095    3.7995  -74.8765 C.3       3 GLC5        0.0000 
     11 CA         35.1820    5.4030  -75.7710 C.3       9 GLL5        0.0000 
     12 CA         32.8370    2.1960  -73.9820 C.3       6 GLP5        0.0000 
     13 CA         33.9830    6.8485  -73.3285 C.3       3 GLC5        0.0000 
     14 CA         34.8460    6.6540  -75.2780 C.3       9 GLL5        0.0000 
     15 CA         33.1200    7.0430  -71.3790 C.3       6 GLP5        0.0000 
     16 CA         32.4380    8.6100  -75.7130 C.3       3 GLC5        0.0000 
     17 CA         34.1390    7.5180  -76.0960 C.3       9 GLL5        0.0000 
     18 CA         30.7370    9.7020  -75.3300 C.3       6 GLP5        0.0000 
     19 CA         31.9450    7.9770  -77.4840 C.3       3 GLC5        0.0000 
     20 CA         33.7690    7.1510  -77.3840 C.3       9 GLL5        0.0000 
     21 CA         30.1210    8.8030  -77.5840 C.3       6 GLP5        0.0000 
     22 CA         30.4005   -1.1425  -79.1355 C.3       3 GLC5        0.0000 
     23 CA         29.8850    0.1070  -80.6830 C.3       9 GLL5        0.0000 
     24 CA         30.9160   -2.3920  -77.5880 C.3       6 GLP5        0.0000 
     25 CA         30.9780   -2.1640  -83.5230 C.3       3 GLC5        0.0000 
     26 CA         31.0380   -1.6960  -81.3700 C.3       9 GLL5        0.0000 
     27 CA         30.9180   -2.6320  -85.6760 C.3       6 GLP5        0.0000 
     28 CA         30.9770   -2.0440  -79.4790 C.3       3 GLC5        0.0000 
     29 CA         31.7675   -2.9185  -83.8260 C.3       3 GLC5        0.0000 
     30 CA         32.6170   -3.2050  -81.9760 C.3       9 GLL5        0.0000 
     31 CA         33.8270   -1.7970  -83.1475 C.3       3 GLC5        0.0000 
     32 CA         35.0370   -0.3890  -84.3190 C.3       6 GLP5        0.0000 
     33 CA         33.7130   -4.0670  -80.5235 C.3       3 GLC5        0.0000 
     34 CA         34.8090   -4.9290  -79.0710 C.3       6 GLP5        0.0000 
     35 N          34.8175   -3.4270  -81.4560 N.am      2 SEC2        0.0000 
     36 N          33.6650   -2.3730  -81.7400 N.am      8 SEL2        0.0000 
     37 N          35.9700   -4.4810  -81.1720 N.am      5 SEP2        0.0000 
     38 CA         28.9480   -4.9720  -80.1375 C.3       3 GLC5        0.0000 
     39 CA         27.9370   -3.3000  -80.4970 C.3       9 GLL5        0.0000 
     40 CA         29.9590   -6.6440  -79.7780 C.3       6 GLP5        0.0000 
     41 CA         25.5525   -0.8755  -84.1460 C.3       3 GLC5        0.0000 
     42 CA         26.4910   -1.6160  -82.5160 C.3       9 GLL5        0.0000 
     43 CA         24.6140   -0.1350  -85.7760 C.3       6 GLP5        0.0000 
     44 CA         27.6615    0.0480  -83.4145 C.3       3 GLC5        0.0000 
     45 CA         28.8320    1.7120  -84.3130 C.3       6 GLP5        0.0000 
     46 N          22.6155   -5.2800  -80.6060 N.am      2 SEC2        0.0000 
     47 N          21.9670   -4.1890  -81.2430 N.am      8 SEL2        0.0000 
     48 N          23.2640   -6.3710  -79.9690 N.am      5 SEP2        0.0000 
     49 CA         33.8392   -0.6413  -82.7458 C.3       3 GLC5        0.0000 
     50 CA         31.9700   -0.6860  -81.0650 C.3       9 GLL5        0.0000 
     51 CA         32.9008   -1.0933  -79.3067 C.3       3 GLC5        0.0000 
     52 CA         33.3130   -1.1010  -81.2800 C.3       9 GLL5        0.0000 
     53 CA         33.1600   -1.2930  -77.4410 C.3       6 GLP5        0.0000 
     54 CA         30.6337    3.5842  -80.0600 C.3       3 GLC5        0.0000 
     55 CA         29.4890    5.0960  -80.5230 C.3       6 GLP5        0.0000 
     56 CA         32.2837    4.4810  -81.9183 C.3       3 GLC5        0.0000 
     57 CA         31.5110    5.8840  -82.9510 C.3       6 GLP5        0.0000 
     58 CA         31.0950    4.5143  -79.7773 C.3       3 GLC5        0.0000 
     59 CA         33.1370    4.2760  -79.4590 C.3       9 GLL5        0.0000 
     60 CA         34.9839    3.9360  -80.3366 C.3       3 GLC5        0.0000 
     61 CA         36.8710    4.1950  -80.5010 C.3       6 GLP5        0.0000 
     62 CA         34.9177    7.1375  -79.3942 C.3       3 GLC5        0.0000 
     63 CA         34.1040    5.8850  -77.8890 C.3       9 GLL5        0.0000 
     64 CA         35.8990    7.7570  -81.1520 C.3       6 GLP5        0.0000 
     65 CA         35.6683    4.8220  -78.9865 C.3       3 GLC5        0.0000 
     66 CA         32.9718    5.5825  -76.0095 C.3       3 GLC5        0.0000 
     67 CA         34.8270    5.0130  -77.0550 C.3       9 GLL5        0.0000 
     68 CA         31.4780    5.7160  -74.5470 C.3       6 GLP5        0.0000 
     69 CA         35.5722    3.6065  -76.0370 C.3       3 GLC5        0.0000 
     70 CA         36.1400    2.0050  -75.6610 C.3       6 GLP5        0.0000 
     71 CA         33.2460    5.8723  -75.0357 C.3       3 GLC5        0.0000 
     72 CA         35.2652    8.9595  -75.4400 C.3       3 GLC5        0.0000 
     73 CA         36.0380   10.8330  -75.1930 C.3       6 GLP5        0.0000 
     74 CA         32.7160    6.5252  -75.6435 C.3       3 GLC5        0.0000 
     75 CA         32.1075    2.2105  -76.9727 C.3       3 GLC5        0.0000 
     76 CA         32.2650    3.5890  -78.6040 C.3       9 GLL5        0.0000 
     77 CA         32.2470    1.4340  -75.1560 C.3       6 GLP5        0.0000 
     78 CA         32.3870    0.2305  -78.5679 C.3       3 GLC5        0.0000 
     79 CA         31.6710    2.3850  -78.9750 C.3       9 GLL5        0.0000 
     80 CA         30.4650   -0.0201  -82.5956 C.3       3 GLC5        0.0000 
     81 CA         29.1962   -0.6392  -83.1208 C.3       3 GLC5        0.0000 
     82 CA         27.9600   -1.8070  -82.7480 C.3       9 GLL5        0.0000 
     83 CA         29.6285   -2.6115  -79.2890 C.3       3 GLC5        0.0000 
     84 CA         28.7450   -2.3620  -81.4830 C.3       9 GLL5        0.0000 
     85 CA         26.9907   -3.7408  -78.7510 C.3       3 GLC5        0.0000 
     86 CA         26.8090   -4.3120  -76.9670 C.3       6 GLP5        0.0000 
     87 CA         27.8562   -2.0278  -84.4160 C.3       3 GLC5        0.0000 
     88 CA         28.4870   -2.3440  -86.2000 C.3       6 GLP5        0.0000 
@<TRIPOS>BOND
@<TRIPOS>SUBSTRUCTURE
     1 ALC1        1 GROUP        1 X    ALC  0     ROOT ALC X 1
     2 SEC2       35 GROUP        1 X    SEC  0     **** SEC X 2
     3 GLC5        4 GROUP        1 X    GLC  0     **** GLC X 6
     4 ALP1        3 GROUP        1 Y    ALP  0     ROOT ALP Y 8
     5 SEP2       37 GROUP        1 Y    SEP  0     **** SEP Y 9
     6 GLP5        6 GROUP        1 Y    GLP  0     **** GLP Y 13
     7 ALL1        2 GROUP        1 Z    ALL  0     ROOT ALL Z 15
     8 SEL2       36 GROUP        1 Z    SEL  0     **** SEL Z 16
     9 GLL5        5 GROUP        1 Z    GLL  0     **** GLL Z 20
@<TRIPOS>SET

