#    Name: 4lue_VSE_2_ligand
#    Modification time : Tue Apr  8 00:10:30 2014

@<TRIPOS>MOLECULE
4lue_VSE_2_ligand
   71    76     1     0     0
SMALL
NO_CHARGES


@<TRIPOS>ATOM
      1 NAK        34.3450   -0.2630  -81.0410 N.pl3     1 VSE603      0.0000 
      2 C6         33.3130   -1.1010  -81.2800 C.ar      1 VSE603      0.0000 
      3 C5         31.9700   -0.6860  -81.0650 C.ar      1 VSE603      0.0000 
      4 CAI        31.2280    0.4860  -80.6100 C.2       1 VSE603      0.0000 
      5 CAJ        31.8860    1.7600  -80.2190 C.ar      1 VSE603      0.0000 
      6 CAL        32.7530    2.4790  -81.0610 C.ar      1 VSE603      0.0000 
      7 CAM        33.3600    3.6770  -80.7100 C.ar      1 VSE603      0.0000 
      8 CAN        33.1370    4.2760  -79.4590 C.ar      1 VSE603      0.0000 
      9 OBD        33.7640    5.4790  -79.1690 O.3       1 VSE603      0.0000 
     10 CBE        34.1040    5.8850  -77.8890 C.ar      1 VSE603      0.0000 
     11 CBF        34.8270    5.0130  -77.0550 C.ar      1 VSE603      0.0000 
     12 CBG        35.1820    5.4030  -75.7710 C.ar      1 VSE603      0.0000 
     13 CBH        34.8460    6.6540  -75.2780 C.ar      1 VSE603      0.0000 
     14 CBI        34.1390    7.5180  -76.0960 C.ar      1 VSE603      0.0000 
     15 CBJ        33.7690    7.1510  -77.3840 C.ar      1 VSE603      0.0000 
     16 CAO        32.2650    3.5890  -78.6040 C.ar      1 VSE603      0.0000 
     17 CAP        31.6710    2.3850  -78.9750 C.ar      1 VSE603      0.0000 
     18 CAH        29.8850    0.1070  -80.6830 C.2       1 VSE603      0.0000 
     19 NAG        29.7300   -1.2280  -81.1320 N.pl3     1 VSE603      0.0000 
     20 C4         31.0380   -1.6960  -81.3700 C.ar      1 VSE603      0.0000 
     21 N3         31.3190   -2.9830  -81.8330 N.ar      1 VSE603      0.0000 
     22 C2         32.6170   -3.2050  -81.9760 C.ar      1 VSE603      0.0000 
     23 N1         33.6650   -2.3730  -81.7400 N.ar      1 VSE603      0.0000 
     24 CAQ        28.7450   -2.3620  -81.4830 C.3       1 VSE603      0.0000 
     25 CAV        27.9370   -3.3000  -80.4970 C.3       1 VSE603      0.0000 
     26 CAU        26.4080   -3.0390  -80.5730 C.3       1 VSE603      0.0000 
     27 CAT        25.9440   -2.8950  -82.0040 C.3       1 VSE603      0.0000 
     28 CAS        26.4910   -1.6160  -82.5160 C.3       1 VSE603      0.0000 
     29 CAR        27.9600   -1.8070  -82.7480 C.3       1 VSE603      0.0000 
     30 NAW        24.4310   -2.9420  -82.1240 N.4       1 VSE603      0.0000 
     31 CAX        23.7860   -2.5490  -80.8340 C.3       1 VSE603      0.0000 
     32 CAY        22.2740   -2.7650  -80.9010 C.3       1 VSE603      0.0000 
     33 NAZ        21.9670   -4.1890  -81.2430 N.3       1 VSE603      0.0000 
     34 CBC        20.4970   -4.3330  -81.3730 C.3       1 VSE603      0.0000 
     35 CBA        22.5850   -4.5380  -82.5440 C.3       1 VSE603      0.0000 
     36 CBB        24.0790   -4.3620  -82.4370 C.3       1 VSE603      0.0000 
     37 H          35.2602   -0.6400  -81.1837 H         1 VSE603      0.0000 
     38 H          34.1022    0.6600  -80.7426 H         1 VSE603      0.0000 
     39 H          32.9494    2.0773  -82.0162 H         1 VSE603      0.0000 
     40 H          33.9949    4.1470  -81.3827 H         1 VSE603      0.0000 
     41 H          35.0903    4.0827  -77.4063 H         1 VSE603      0.0000 
     42 H          35.7107    4.7426  -75.1675 H         1 VSE603      0.0000 
     43 H          35.1140    6.9307  -74.3339 H         1 VSE603      0.0000 
     44 H          33.8789    8.4592  -75.7425 H         1 VSE603      0.0000 
     45 H          33.2444    7.8091  -77.9781 H         1 VSE603      0.0000 
     46 H          32.0582    3.9914  -77.6690 H         1 VSE603      0.0000 
     47 H          31.0260    1.9118  -78.2939 H         1 VSE603      0.0000 
     48 H          29.1397    0.6819  -80.4556 H         1 VSE603      0.0000 
     49 H          32.9024   -4.2132  -82.3409 H         1 VSE603      0.0000 
     50 H          29.4816   -3.1386  -82.0753 H         1 VSE603      0.0000 
     51 H          28.2854   -3.1120  -79.4872 H         1 VSE603      0.0000 
     52 H          28.1409   -4.3309  -80.7653 H         1 VSE603      0.0000 
     53 H          26.1873   -2.1281  -80.0159 H         1 VSE603      0.0000 
     54 H          25.8934   -3.8737  -80.0962 H         1 VSE603      0.0000 
     55 H          26.3699   -3.7124  -82.5797 H         1 VSE603      0.0000 
     56 H          26.3388   -0.8258  -81.7893 H         1 VSE603      0.0000 
     57 H          26.0085   -1.3492  -83.4497 H         1 VSE603      0.0000 
     58 H          28.1321   -2.5157  -83.5704 H         1 VSE603      0.0000 
     59 H          28.4334   -0.8556  -83.0291 H         1 VSE603      0.0000 
     60 H          24.1192   -2.3124  -82.9141 H         1 VSE603      0.0000 
     61 H          23.9806   -1.4960  -80.6230 H         1 VSE603      0.0000 
     62 H          24.1896   -3.1474  -80.0154 H         1 VSE603      0.0000 
     63 H          21.8577   -2.1001  -81.6579 H         1 VSE603      0.0000 
     64 H          21.8399   -2.5103  -79.9341 H         1 VSE603      0.0000 
     65 H          22.2036   -3.8880  -83.3285 H         1 VSE603      0.0000 
     66 H          22.3641   -5.5719  -82.8005 H         1 VSE603      0.0000 
     67 H          24.4637   -5.0195  -81.6501 H         1 VSE603      0.0000 
     68 H          24.5452   -4.6578  -83.3829 H         1 VSE603      0.0000 
     69 H          20.2343   -5.2710  -81.5991 H         1 VSE603      0.0000 
     70 H          20.0239   -4.0923  -80.5255 H         1 VSE603      0.0000 
     71 H          20.1283   -3.7439  -82.0920 H         1 VSE603      0.0000 
@<TRIPOS>BOND
     1    2    1 1    
     2   37    1 1    
     3   38    1 1    
     4    3    2 ar   
     5   23    2 ar   
     6    4    3 1    
     7   20    3 ar   
     8    5    4 1    
     9   18    4 2    
    10    6    5 ar   
    11   17    5 ar   
    12    7    6 ar   
    13   39    6 1    
    14    8    7 ar   
    15   40    7 1    
    16    9    8 1    
    17   16    8 ar   
    18   10    9 1    
    19   11   10 ar   
    20   15   10 ar   
    21   12   11 ar   
    22   41   11 1    
    23   13   12 ar   
    24   42   12 1    
    25   14   13 ar   
    26   43   13 1    
    27   15   14 ar   
    28   44   14 1    
    29   45   15 1    
    30   17   16 ar   
    31   46   16 1    
    32   47   17 1    
    33   19   18 1    
    34   48   18 1    
    35   20   19 1    
    36   24   19 1    
    37   21   20 ar   
    38   22   21 ar   
    39   23   22 ar   
    40   49   22 1    
    41   25   24 1    
    42   29   24 1    
    43   50   24 1    
    44   26   25 1    
    45   51   25 1    
    46   52   25 1    
    47   27   26 1    
    48   53   26 1    
    49   54   26 1    
    50   28   27 1    
    51   30   27 1    
    52   55   27 1    
    53   29   28 1    
    54   56   28 1    
    55   57   28 1    
    56   58   29 1    
    57   59   29 1    
    58   31   30 1    
    59   36   30 1    
    60   60   30 1    
    61   32   31 1    
    62   61   31 1    
    63   62   31 1    
    64   33   32 1    
    65   63   32 1    
    66   64   32 1    
    67   34   33 1    
    68   35   33 1    
    69   69   34 1    
    70   70   34 1    
    71   71   34 1    
    72   36   35 1    
    73   65   35 1    
    74   66   35 1    
    75   67   36 1    
    76   68   36 1    
@<TRIPOS>SUBSTRUCTURE
     1 VSE603      1 GROUP   
@<TRIPOS>SET

