#    Name: 2acw_UPG_1_INTS_M
#    Modification time : Mon Mar 24 19:01:17 2014

@<TRIPOS>MOLECULE
2acw_UPG_1_INTS_M
   84     0     9     0     0
SMALL
NO_CHARGES


@<TRIPOS>ATOM
      1 O          34.7030   32.7765   34.5135 O.2       1 ALC1        0.0000 
      2 O          34.3230   31.6050   34.0710 O.2       7 ALL1        0.0000 
      3 O          35.0830   33.9480   34.9560 O.2       4 ALP1        0.0000 
      4 CA         31.8160   30.8820   32.0305 C.3       3 GLC5        0.0000 
      5 CA         33.2370   29.9480   32.6700 C.3       9 GLL5        0.0000 
      6 CA         30.3950   31.8160   31.3910 C.3       6 GLP5        0.0000 
      7 CA         33.7685   28.1505   31.5775 C.3       3 GLC5        0.0000 
      8 CA         34.3000   26.3530   30.4850 C.3       6 GLP5        0.0000 
      9 CA         34.9040   29.4780   32.1930 C.3       3 GLC5        0.0000 
     10 CA         36.5710   29.0080   31.7160 C.3       6 GLP5        0.0000 
     11 CA         34.1045   27.5650   32.7605 C.3       3 GLC5        0.0000 
     12 CA         33.1530   29.1580   33.7680 C.3       9 GLL5        0.0000 
     13 CA         35.0560   25.9720   31.7530 C.3       6 GLP5        0.0000 
     14 CA         34.9420   28.9650   33.4315 C.3       3 GLC5        0.0000 
     15 CA         36.7310   28.7720   33.0950 C.3       6 GLP5        0.0000 
     16 N          34.6525   33.2800   31.9715 N.am      2 SEC2        0.0000 
     17 N          33.9690   32.0570   31.8380 N.am      8 SEL2        0.0000 
     18 N          35.3360   34.5030   32.1050 N.am      5 SEP2        0.0000 
     19 CA         35.1115   27.6570   36.6365 C.3       3 GLC5        0.0000 
     20 CA         33.4990   28.6220   36.2160 C.3       9 GLL5        0.0000 
     21 CA         36.7240   26.6920   37.0570 C.3       6 GLP5        0.0000 
     22 CA         35.3450   29.1860   35.0765 C.3       3 GLC5        0.0000 
     23 CA         37.1910   29.7500   33.9370 C.3       6 GLP5        0.0000 
     24 CA         31.8725   30.7335   36.8015 C.3       3 GLC5        0.0000 
     25 CA         32.1780   28.7740   36.9790 C.3       9 GLL5        0.0000 
     26 CA         31.5670   32.6930   36.6240 C.3       6 GLP5        0.0000 
     27 O          31.0080   29.4675   38.5905 O.2       1 ALC1        0.0000 
     28 O          32.1490   29.7950   37.9580 O.2       7 ALL1        0.0000 
     29 O          29.8670   29.1400   39.2230 O.2       4 ALP1        0.0000 
     30 O          31.7500   29.3420   39.3920 O.2       1 ALC1        0.0000 
     31 O          31.3510   28.8890   40.8260 O.2       4 ALP1        0.0000 
     32 CA         34.6785   26.5625   36.7545 C.3       3 GLC5        0.0000 
     33 CA         32.6330   26.4330   36.4520 C.3       9 GLL5        0.0000 
     34 O          31.2265   28.1705   38.9880 O.2       1 ALC1        0.0000 
     35 O          32.5860   27.2010   38.7530 O.2       7 ALL1        0.0000 
     36 O          31.9685   28.0450   39.7895 O.2       1 ALC1        0.0000 
     37 N          28.8755   23.0025   37.5065 N.am      2 SEC2        0.0000 
     38 N          29.6910   22.7480   36.1850 N.am      8 SEL2        0.0000 
     39 N          28.0600   23.2570   38.8280 N.am      5 SEP2        0.0000 
     40 N          30.5850   22.5505   37.5030 N.am      2 SEC2        0.0000 
     41 N          31.4790   22.3530   38.8210 N.am      5 SEP2        0.0000 
     42 N          28.3155   25.4415   36.7655 N.am      2 SEC2        0.0000 
     43 N          28.8560   24.9480   35.4240 N.am      8 SEL2        0.0000 
     44 N          27.7750   25.9350   38.1070 N.am      5 SEP2        0.0000 
     45 N          28.4980   26.1460   35.4915 N.am      2 SEC2        0.0000 
     46 N          28.1400   27.3440   35.5590 N.am      5 SEP2        0.0000 
     47 N          29.2205   23.9905   32.5785 N.am      2 SEC2        0.0000 
     48 N          30.2000   23.6180   33.8900 N.am      8 SEL2        0.0000 
     49 N          28.2410   24.3630   31.2670 N.am      5 SEP2        0.0000 
     50 N          32.1565   24.7690   31.2585 N.am      2 SEC2        0.0000 
     51 N          31.4480   23.3440   31.8110 N.am      8 SEL2        0.0000 
     52 N          32.8650   26.1940   30.7060 N.am      5 SEP2        0.0000 
     53 N          29.8445   23.8535   31.5390 N.am      2 SEC2        0.0000 
     54 CA         29.4085   19.8900   30.6465 C.3       3 GLC5        0.0000 
     55 CA         29.2600   19.2260   32.6250 C.3       9 GLL5        0.0000 
     56 CA         29.5570   20.5540   28.6680 C.3       6 GLP5        0.0000 
     57 CA         26.3685   20.3785   32.3685 C.3       3 GLC5        0.0000 
     58 CA         28.0550   19.6020   33.5450 C.3       9 GLL5        0.0000 
     59 CA         24.6820   21.1550   31.1920 C.3       6 GLP5        0.0000 
     60 CA         30.9030   18.2845   38.5150 C.3       3 GLC5        0.0000 
     61 CA         30.1920   19.3940   36.8010 C.3       9 GLL5        0.0000 
     62 CA         31.6140   17.1750   40.2290 C.3       6 GLP5        0.0000 
     63 CA         28.2895   19.9685   37.8050 C.3       3 GLC5        0.0000 
     64 CA         26.3870   20.5430   38.8090 C.3       6 GLP5        0.0000 
     65 O          27.9365   20.2735   30.7610 O.2       1 ALC1        0.0000 
     66 O          29.0000   19.6080   31.2850 O.2       7 ALL1        0.0000 
     67 O          26.8730   20.9390   30.2370 O.2       4 ALP1        0.0000 
     68 O          26.4545   17.9120   33.5625 O.2       1 ALC1        0.0000 
     69 O          26.8640   18.9390   33.1110 O.2       7 ALL1        0.0000 
     70 O          26.0450   16.8850   34.0140 O.2       4 ALP1        0.0000 
     71 N          26.9080   20.6885   36.3470 N.am      2 SEC2        0.0000 
     72 N          27.3930   19.4150   35.9000 N.am      8 SEL2        0.0000 
     73 N          26.4230   21.9620   36.7940 N.am      5 SEP2        0.0000 
     74 N          26.4455   18.5150   35.9570 N.am      2 SEC2        0.0000 
     75 N          25.4980   17.6150   36.0140 N.am      5 SEP2        0.0000 
     76 O          30.7745   17.1230   37.9895 O.2       1 ALC1        0.0000 
     77 O          29.9590   17.9720   36.8600 O.2       7 ALL1        0.0000 
     78 O          31.5900   16.2740   39.1190 O.2       4 ALP1        0.0000 
     79 CA         31.1160   25.3626   37.6914 C.3       3 GLC5        0.0000 
     80 CA         30.2240   24.3750   39.2090 C.3       6 GLP5        0.0000 
     81 CA         27.8867   18.1210   31.7690 C.3       3 GLC5        0.0000 
     82 CA         27.1160   16.8280   30.4530 C.3       6 GLP5        0.0000 
     83 CA         27.2935   21.1715   34.4108 C.3       3 GLC5        0.0000 
     84 CA         26.3410   22.9850   34.5740 C.3       6 GLP5        0.0000 
@<TRIPOS>BOND
@<TRIPOS>SUBSTRUCTURE
     1 ALC1        1 GROUP        1 X    ALC  0     ROOT ALC X 1
     2 SEC2       16 GROUP        1 X    SEC  0     **** SEC X 2
     3 GLC5        4 GROUP        1 X    GLC  0     **** GLC X 6
     4 ALP1        3 GROUP        1 Y    ALP  0     ROOT ALP Y 8
     5 SEP2       18 GROUP        1 Y    SEP  0     **** SEP Y 9
     6 GLP5        6 GROUP        1 Y    GLP  0     **** GLP Y 13
     7 ALL1        2 GROUP        1 Z    ALL  0     ROOT ALL Z 15
     8 SEL2       17 GROUP        1 Z    SEL  0     **** SEL Z 16
     9 GLL5        5 GROUP        1 Z    GLL  0     **** GLL Z 20
@<TRIPOS>SET

