#    Name: 2acw_UPG_1_ligand
#    Modification time : Mon Mar 24 19:01:18 2014

@<TRIPOS>MOLECULE
2acw_UPG_1_ligand
   58    60     1     0     0
SMALL
NO_CHARGES


@<TRIPOS>ATOM
      1 N1         33.6390   29.5470   35.0430 N.am      1 UPG900      0.0000 
      2 C2         34.2670   30.8440   35.2290 C.2       1 UPG900      0.0000 
      3 N3         34.3230   31.6050   34.0710 N.am      1 UPG900      0.0000 
      4 C4         33.8630   31.2880   32.7870 C.2       1 UPG900      0.0000 
      5 C5         33.2370   29.9480   32.6700 C.2       1 UPG900      0.0000 
      6 C6         33.1530   29.1580   33.7680 C.2       1 UPG900      0.0000 
      7 O2         34.7050   31.2300   36.3230 O.2       1 UPG900      0.0000 
      8 O4         33.9690   32.0570   31.8380 O.2       1 UPG900      0.0000 
      9 C1C        33.4990   28.6220   36.2160 C.3       1 UPG900      0.0000 
     10 C2C        32.1780   28.7740   36.9790 C.3       1 UPG900      0.0000 
     11 O2C        32.1490   29.7950   37.9580 O.3       1 UPG900      0.0000 
     12 C3C        31.9770   27.3500   37.4570 C.3       1 UPG900      0.0000 
     13 C4C        32.6330   26.4330   36.4520 C.3       1 UPG900      0.0000 
     14 O4C        33.5610   27.2760   35.7270 O.3       1 UPG900      0.0000 
     15 O3C        32.5860   27.2010   38.7530 O.3       1 UPG900      0.0000 
     16 C5C        31.7110   25.8090   35.3930 C.3       1 UPG900      0.0000 
     17 O5C        31.2270   24.5890   35.9600 O.3       1 UPG900      0.0000 
     18 PA         29.9160   23.9490   35.4240 P.3       1 UPG900      0.0000 
     19 O1A        29.6910   22.7480   36.1850 O.co2     1 UPG900      0.0000 
     20 O2A        28.8560   24.9480   35.4240 O.co2     1 UPG900      0.0000 
     21 O3A        30.2000   23.6180   33.8900 O.3       1 UPG900      0.0000 
     22 PB         31.1930   22.6560   33.0740 P.3       1 UPG900      0.0000 
     23 O1B        32.3740   22.2650   33.8090 O.co2     1 UPG900      0.0000 
     24 O2B        31.4480   23.3440   31.8110 O.co2     1 UPG900      0.0000 
     25 O3B        30.3000   21.3340   32.8600 O.3       1 UPG900      0.0000 
     26 C1'        30.5530   19.9430   33.0760 C.3       1 UPG900      0.0000 
     27 C2'        29.2600   19.2260   32.6250 C.3       1 UPG900      0.0000 
     28 C3'        28.0550   19.6020   33.5450 C.3       1 UPG900      0.0000 
     29 C4'        28.4370   19.1140   34.9500 C.3       1 UPG900      0.0000 
     30 C5'        29.7170   19.8380   35.4020 C.3       1 UPG900      0.0000 
     31 C6'        30.1920   19.3940   36.8010 C.3       1 UPG900      0.0000 
     32 O2'        29.0000   19.6080   31.2850 O.3       1 UPG900      0.0000 
     33 O3'        26.8640   18.9390   33.1110 O.3       1 UPG900      0.0000 
     34 O4'        27.3930   19.4150   35.9000 O.3       1 UPG900      0.0000 
     35 O5'        30.8450   19.5900   34.4780 O.3       1 UPG900      0.0000 
     36 O6'        29.9590   17.9720   36.8600 O.3       1 UPG900      0.0000 
     37 H          34.7889   32.5869   34.1689 H         1 UPG900      0.0000 
     38 H          32.8934   29.6794   31.7535 H         1 UPG900      0.0000 
     39 H          32.7108   28.2059   33.6989 H         1 UPG900      0.0000 
     40 H          34.3112   28.7955   36.9088 H         1 UPG900      0.0000 
     41 H          31.4165   28.9231   36.1832 H         1 UPG900      0.0000 
     42 H          30.9291   27.1463   37.4843 H         1 UPG900      0.0000 
     43 H          33.1744   25.6630   36.9542 H         1 UPG900      0.0000 
     44 H          32.2961   25.6416   34.5006 H         1 UPG900      0.0000 
     45 H          30.9148   26.5105   35.1912 H         1 UPG900      0.0000 
     46 H          31.3352   19.5874   32.4222 H         1 UPG900      0.0000 
     47 H          29.4256   18.1656   32.7109 H         1 UPG900      0.0000 
     48 H          27.9730   20.6553   33.5635 H         1 UPG900      0.0000 
     49 H          28.6445   18.0672   34.9090 H         1 UPG900      0.0000 
     50 H          29.5232   20.9035   35.4477 H         1 UPG900      0.0000 
     51 H          29.6128   19.9296   37.5338 H         1 UPG900      0.0000 
     52 H          31.2373   19.6367   36.8893 H         1 UPG900      0.0000 
     53 H          31.3399   29.5992   38.5121 H         1 UPG900      0.0000 
     54 H          32.0934   27.8388   39.3451 H         1 UPG900      0.0000 
     55 H          28.0332   19.8630   31.2717 H         1 UPG900      0.0000 
     56 H          27.0560   17.9638   33.2214 H         1 UPG900      0.0000 
     57 H          27.8505   19.4366   36.7889 H         1 UPG900      0.0000 
     58 H          30.5611   17.6411   37.5866 H         1 UPG900      0.0000 
@<TRIPOS>BOND
     1    2    1 1    
     2    6    1 1    
     3    9    1 1    
     4    3    2 1    
     5    7    2 2    
     6    4    3 1    
     7   37    3 1    
     8    5    4 1    
     9    8    4 2    
    10    6    5 2    
    11   38    5 1    
    12   39    6 1    
    13   10    9 1    
    14   14    9 1    
    15   40    9 1    
    16   11   10 1    
    17   12   10 1    
    18   41   10 1    
    19   53   11 1    
    20   13   12 1    
    21   15   12 1    
    22   42   12 1    
    23   14   13 1    
    24   16   13 1    
    25   43   13 1    
    26   54   15 1    
    27   17   16 1    
    28   44   16 1    
    29   45   16 1    
    30   18   17 1    
    31   19   18 ar   
    32   20   18 ar   
    33   21   18 1    
    34   22   21 1    
    35   23   22 ar   
    36   24   22 ar   
    37   25   22 1    
    38   26   25 1    
    39   27   26 1    
    40   35   26 1    
    41   46   26 1    
    42   28   27 1    
    43   32   27 1    
    44   47   27 1    
    45   29   28 1    
    46   33   28 1    
    47   48   28 1    
    48   30   29 1    
    49   34   29 1    
    50   49   29 1    
    51   31   30 1    
    52   35   30 1    
    53   50   30 1    
    54   36   31 1    
    55   51   31 1    
    56   52   31 1    
    57   55   32 1    
    58   56   33 1    
    59   57   34 1    
    60   58   36 1    
@<TRIPOS>SUBSTRUCTURE
     1 UPG900      1 GROUP   
@<TRIPOS>SET

