#    Name: 4e8z_IHC_1_INTS_M
#    Modification time : Tue Mar 25 10:45:27 2014

@<TRIPOS>MOLECULE
4e8z_IHC_1_INTS_M
   61     0     9     0     0
SMALL
NO_CHARGES


@<TRIPOS>ATOM
      1 CA        -15.5520    3.4710   19.7380 C.3       3 GLC5        0.0000 
      2 CA        -14.0570    3.0480   21.2320 C.3       9 GLL5        0.0000 
      3 CA        -17.0470    3.8940   18.2440 C.3       6 GLP5        0.0000 
      4 CA        -14.9385    1.4545   20.7700 C.3       3 GLC5        0.0000 
      5 CA        -15.8200   -0.1390   20.3080 C.3       6 GLP5        0.0000 
      6 CA         -8.9090    6.7065   23.6470 C.3       3 GLC5        0.0000 
      7 CA        -10.5330    7.1430   22.4250 C.3       9 GLL5        0.0000 
      8 CA         -7.2850    6.2700   24.8690 C.3       6 GLP5        0.0000 
      9 O         -10.9325    1.5920   26.5170 O.2       1 ALC1        0.0000 
     10 O         -11.6760    2.3050   25.5540 O.2       7 ALL1        0.0000 
     11 O         -10.1890    0.8790   27.4800 O.2       4 ALP1        0.0000 
     12 N         -15.1815    5.1290   25.6725 N.am      2 SEC2        0.0000 
     13 N         -15.0800    3.7090   25.4300 N.am      8 SEL2        0.0000 
     14 N         -15.2830    6.5490   25.9150 N.am      5 SEP2        0.0000 
     15 CA        -12.2250    4.2155   27.4135 C.3       3 GLC5        0.0000 
     16 CA        -12.7450    2.8740   26.3650 C.3       9 GLL5        0.0000 
     17 CA        -11.7050    5.5570   28.4620 C.3       6 GLP5        0.0000 
     18 CA        -13.2860    1.4535   27.7525 C.3       3 GLC5        0.0000 
     19 CA        -13.8270    0.0330   29.1400 C.3       6 GLP5        0.0000 
     20 CA        -11.8355    0.7415   24.1835 C.3       3 GLC5        0.0000 
     21 CA        -11.2420    2.8480   24.3840 C.3       9 GLL5        0.0000 
     22 CA        -12.4290   -1.3650   23.9830 C.3       6 GLP5        0.0000 
     23 CA         -9.5095    1.8260   22.0260 C.3       3 GLC5        0.0000 
     24 CA        -10.3050    3.8830   22.0160 C.3       9 GLL5        0.0000 
     25 CA         -8.7140   -0.2310   22.0360 C.3       6 GLP5        0.0000 
     26 CA        -15.6975    4.7775   19.3180 C.3       3 GLC5        0.0000 
     27 CA        -14.3480    5.6610   20.3920 C.3       9 GLL5        0.0000 
     28 CA        -12.7760    6.9850   18.4065 C.3       3 GLC5        0.0000 
     29 CA        -13.9790    6.9950   20.2890 C.3       9 GLL5        0.0000 
     30 CA        -11.5730    6.9750   16.5240 C.3       6 GLP5        0.0000 
     31 CA        -14.8140    6.1055   18.4665 C.3       3 GLC5        0.0000 
     32 CA        -15.6490    5.2160   16.6440 C.3       6 GLP5        0.0000 
     33 CA        -14.9470   -0.4325   25.1250 C.3       3 GLC5        0.0000 
     34 CA        -14.3540    1.3940   24.7940 C.3       9 GLL5        0.0000 
     35 CA        -15.5400   -2.2590   25.4560 C.3       6 GLP5        0.0000 
     36 CA        -13.3915    0.0145   24.3885 C.3       3 GLC5        0.0000 
     37 CA        -12.7602    2.5857   20.1707 C.3       3 GLC5        0.0000 
     38 CA        -11.7120    1.2630   19.1690 C.3       6 GLP5        0.0000 
     39 CA        -11.5765    8.1280   23.4447 C.3       3 GLC5        0.0000 
     40 CA        -12.0270    6.5410   21.6300 C.3       9 GLL5        0.0000 
     41 CA        -11.8730    9.4140   24.8620 C.3       6 GLP5        0.0000 
     42 CA        -17.8440    3.0440   25.6382 C.3       3 GLC5        0.0000 
     43 CA        -17.2870    3.7760   24.1960 C.3       9 GLL5        0.0000 
     44 CA        -17.9730    2.6810   27.4890 C.3       6 GLP5        0.0000 
     45 CA        -18.1472   -0.1267   23.0637 C.3       3 GLC5        0.0000 
     46 CA        -16.6140    1.1830   23.4140 C.3       9 GLL5        0.0000 
     47 CA        -19.0830   -1.7180   22.9280 C.3       6 GLP5        0.0000 
     48 CA        -15.8665   -0.3512   24.6382 C.3       3 GLC5        0.0000 
     49 CA        -16.9507    2.6285   25.9590 C.3       3 GLC5        0.0000 
     50 CA        -15.7720    1.9300   24.2270 C.3       9 GLL5        0.0000 
     51 CA        -16.1559    0.7791   22.0106 C.3       3 GLC5        0.0000 
     52 CA        -11.3205    2.6647   20.7153 C.3       3 GLC5        0.0000 
     53 CA        -11.5530    4.2500   22.5070 C.3       9 GLL5        0.0000 
     54 CA        -14.6425    6.3615   22.1673 C.3       3 GLC5        0.0000 
     55 CA        -13.5600    4.7690   21.1130 C.3       9 GLL5        0.0000 
     56 CA        -15.3310    7.5080   23.5820 C.3       6 GLP5        0.0000 
     57 CA        -14.3645    7.3608   22.0913 C.3       3 GLC5        0.0000 
     58 CA        -13.2825    6.1775   23.2623 C.3       3 GLC5        0.0000 
     59 CA        -14.5630    6.7200   24.6480 C.3       6 GLP5        0.0000 
     60 CA        -15.6245    5.1095   24.5307 C.3       3 GLC5        0.0000 
     61 CA        -16.0850    3.2220   24.6310 C.3       9 GLL5        0.0000 
@<TRIPOS>BOND
@<TRIPOS>SUBSTRUCTURE
     1 ALC1        9 GROUP        1 X    ALC  0     ROOT ALC X 1
     2 SEC2       12 GROUP        1 X    SEC  0     **** SEC X 2
     3 GLC5        1 GROUP        1 X    GLC  0     **** GLC X 6
     4 ALP1       11 GROUP        1 Y    ALP  0     ROOT ALP Y 8
     5 SEP2       14 GROUP        1 Y    SEP  0     **** SEP Y 9
     6 GLP5        3 GROUP        1 Y    GLP  0     **** GLP Y 13
     7 ALL1       10 GROUP        1 Z    ALL  0     ROOT ALL Z 15
     8 SEL2       13 GROUP        1 Z    SEL  0     **** SEL Z 16
     9 GLL5        2 GROUP        1 Z    GLL  0     **** GLL Z 20
@<TRIPOS>SET

