#    Name: 4e8z_IHC_1_ligand
#    Modification time : Tue Mar 25 10:45:27 2014

@<TRIPOS>MOLECULE
4e8z_IHC_1_ligand
   42    45     1     0     0
SMALL
NO_CHARGES


@<TRIPOS>ATOM
      1 CL1       -14.0570    3.0480   21.2320 Cl        1 IHC501      0.0000 
      2 CL2       -10.5330    7.1430   22.4250 Cl        1 IHC501      0.0000 
      3 C1        -20.9930    3.9970   21.3160 C.2       1 IHC501      0.0000 
      4 N1        -11.6760    2.3050   25.5540 N.pl3     1 IHC501      0.0000 
      5 O1        -20.7160    5.1800   21.4200 O.co2     1 IHC501      0.0000 
      6 C2        -20.0690    2.9590   21.9050 C.3       1 IHC501      0.0000 
      7 N2        -10.0280    2.4890   23.9110 N.ar      1 IHC501      0.0000 
      8 O2        -22.1070    3.6450   20.6790 O.co2     1 IHC501      0.0000 
      9 C3        -18.1430    3.0380   23.3790 C.ar      1 IHC501      0.0000 
     10 N3         -9.5520    3.0210   22.7060 N.ar      1 IHC501      0.0000 
     11 O3        -19.3230    3.5830   22.9480 O.3       1 IHC501      0.0000 
     12 C4        -17.8090    1.7460   22.9850 C.ar      1 IHC501      0.0000 
     13 N4        -12.0000    3.7190   23.6710 N.ar      1 IHC501      0.0000 
     14 C5        -16.6140    1.1830   23.4140 C.ar      1 IHC501      0.0000 
     15 N5        -15.0800    3.7090   25.4300 N.2       1 IHC501      0.0000 
     16 C6        -15.7720    1.9300   24.2270 C.ar      1 IHC501      0.0000 
     17 C7        -14.0550    2.8250   25.6090 C.2       1 IHC501      0.0000 
     18 C8        -12.7450    2.8740   26.3650 C.3       1 IHC501      0.0000 
     19 C9        -11.2420    2.8480   24.3840 C.ar      1 IHC501      0.0000 
     20 C10       -10.3050    3.8830   22.0160 C.ar      1 IHC501      0.0000 
     21 C11       -11.5530    4.2500   22.5070 C.ar      1 IHC501      0.0000 
     22 C12       -12.4010    5.2080   21.7390 C.ar      1 IHC501      0.0000 
     23 C13       -13.5600    4.7690   21.1130 C.ar      1 IHC501      0.0000 
     24 C14       -14.3480    5.6610   20.3920 C.ar      1 IHC501      0.0000 
     25 C15       -13.9790    6.9950   20.2890 C.ar      1 IHC501      0.0000 
     26 C16       -12.8170    7.4320   20.9120 C.ar      1 IHC501      0.0000 
     27 C17       -12.0270    6.5410   21.6300 C.ar      1 IHC501      0.0000 
     28 C18       -16.0850    3.2220   24.6310 C.ar      1 IHC501      0.0000 
     29 C19       -17.2870    3.7760   24.1960 C.ar      1 IHC501      0.0000 
     30 S         -14.3540    1.3940   24.7940 S.3       1 IHC501      0.0000 
     31 H         -11.2405    1.4253   25.9274 H         1 IHC501      0.0000 
     32 H         -19.4207    2.5865   21.1118 H         1 IHC501      0.0000 
     33 H         -20.6742    2.1333   22.2795 H         1 IHC501      0.0000 
     34 H         -18.4436    1.2124   22.3801 H         1 IHC501      0.0000 
     35 H         -16.3585    0.2337   23.1355 H         1 IHC501      0.0000 
     36 H         -12.5277    3.9175   26.6183 H         1 IHC501      0.0000 
     37 H         -12.8618    2.3167   27.3010 H         1 IHC501      0.0000 
     38 H          -9.9834    4.2883   21.1199 H         1 IHC501      0.0000 
     39 H         -15.2086    5.3282   19.9333 H         1 IHC501      0.0000 
     40 H         -14.5588    7.6526   19.7578 H         1 IHC501      0.0000 
     41 H         -12.5382    8.4221   20.8421 H         1 IHC501      0.0000 
     42 H         -17.5441    4.7308   24.4775 H         1 IHC501      0.0000 
@<TRIPOS>BOND
     1   23    1 1    
     2   27    2 1    
     3    5    3 ar   
     4    6    3 1    
     5    8    3 ar   
     6   18    4 1    
     7   19    4 1    
     8   31    4 1    
     9   11    6 1    
    10   32    6 1    
    11   33    6 1    
    12   10    7 ar   
    13   19    7 ar   
    14   11    9 1    
    15   12    9 ar   
    16   29    9 ar   
    17   20   10 ar   
    18   14   12 ar   
    19   34   12 1    
    20   19   13 ar   
    21   21   13 ar   
    22   16   14 ar   
    23   35   14 1    
    24   17   15 2    
    25   28   15 1    
    26   28   16 ar   
    27   30   16 1    
    28   18   17 1    
    29   30   17 1    
    30   36   18 1    
    31   37   18 1    
    32   21   20 ar   
    33   38   20 1    
    34   22   21 1    
    35   23   22 ar   
    36   27   22 ar   
    37   24   23 ar   
    38   25   24 ar   
    39   39   24 1    
    40   26   25 ar   
    41   40   25 1    
    42   27   26 ar   
    43   41   26 1    
    44   29   28 ar   
    45   42   29 1    
@<TRIPOS>SUBSTRUCTURE
     1 IHC501      1 GROUP   
@<TRIPOS>SET

