#    Name: 4GS9_1_CAVITY_N1_6.mol2
#    Modification time : Tue Mar 11 00:28:43 2014

@<TRIPOS>MOLECULE
4GS9_1_CAVITY_N1_6.mol2
   46     0     5     0     0
SMALL
NO_CHARGES


@<TRIPOS>ATOM
      1 OD1         8.5077  -39.1305    8.9108 O.3       3 ASP3        0.0000 
      2 CA          8.1981  -40.0304   10.0703 C.3       5 GLY6        0.0000 
      3 CA          7.7978  -40.0758    7.9876 C.3       5 GLY6        0.0000 
      4 CA          7.4881  -40.9757    9.1470 C.3       5 GLY6        0.0000 
      5 CA          9.8829  -40.7244   11.9223 C.3       5 GLY6        0.0000 
      6 CA          9.7923  -39.8699    8.6801 C.3       5 GLY6        0.0000 
      7 CA          9.4826  -40.7698    9.8395 C.3       5 GLY6        0.0000 
      8 CA          9.1730  -41.6696   10.9990 C.3       5 GLY6        0.0000 
      9 CA          9.3920  -39.9153    6.5974 C.3       5 GLY6        0.0000 
     10 CA          9.0824  -40.8152    7.7568 C.3       5 GLY6        0.0000 
     11 CA          8.7727  -41.7151    8.9163 C.3       5 GLY6        0.0000 
     12 CA          8.4630  -42.6149   10.0757 C.3       5 GLY6        0.0000 
     13 CA          8.3724  -41.7605    6.8336 C.3       5 GLY6        0.0000 
     14 OG         11.4771  -40.5638   10.5321 O.2       1 SER1        0.0000 
     15 CA         11.1675  -41.4637   11.6915 C.3       5 GLY6        0.0000 
     16 CA         11.3865  -39.7094    7.2899 C.3       5 GLY6        0.0000 
     17 OG         11.0769  -40.6093    8.4493 O.2       1 SER1        0.0000 
     18 OG         10.7672  -41.5091    9.6088 O.2       1 SER1        0.0000 
     19 CA         10.4575  -42.4090   10.7682 C.3       5 GLY6        0.0000 
     20 CA         10.6766  -40.6547    6.3666 C.3       5 GLY6        0.0000 
     21 CA         10.3669  -41.5545    7.5261 C.3       5 GLY6        0.0000 
     22 CA         10.0573  -42.4544    8.6855 C.3       5 GLY6        0.0000 
     23 CA          9.7476  -43.3543    9.8450 C.3       5 GLY6        0.0000 
     24 CA          9.3473  -43.3997    7.7623 C.3       5 GLY6        0.0000 
     25 OG         12.7617  -41.3032   10.3013 O.2       1 SER1        0.0000 
     26 CA         12.4520  -42.2031   11.4608 C.3       5 GLY6        0.0000 
     27 OG         12.3614  -41.3486    8.2186 O.2       1 SER1        0.0000 
     28 CA         12.0518  -42.2485    9.3780 C.3       5 GLY6        0.0000 
     29 CA         11.6515  -42.2939    7.2953 C.3       5 GLY6        0.0000 
     30 CA         14.7562  -41.0973   10.9938 C.3       5 GLY6        0.0000 
     31 N          14.4465  -41.9971   12.1533 N.2       2 ALA2        0.0000 
     32 OG         14.0463  -42.0426   10.0705 O.2       1 SER1        0.0000 
     33 N          13.7366  -42.9424   11.2300 N.2       2 ALA2        0.0000 
     34 OG         13.3363  -42.9878    9.1473 O.2       1 SER1        0.0000 
     35 CA         17.0604  -39.9915   10.5269 C.3       5 GLY6        0.0000 
     36 CA         16.7507  -40.8913   11.6863 C.3       5 GLY6        0.0000 
     37 OG         16.3504  -40.9368    9.6036 O.2       1 SER1        0.0000 
     38 OG         16.0408  -41.8366   10.7631 O.2       1 SER1        0.0000 
     39 N          15.7311  -42.7365   11.9225 N.2       2 ALA2        0.0000 
     40 OG         15.3308  -42.7819    9.8398 O.2       1 SER1        0.0000 
     41 N          15.0212  -43.6818   10.9992 N.2       2 ALA2        0.0000 
     42 CA         18.3449  -40.7308   10.2961 C.3       5 GLY6        0.0000 
     43 CZ         18.0353  -41.6307   11.4556 C.ar      4 PHE5        0.0000 
     44 CA         17.6350  -41.6761    9.3729 C.3       5 GLY6        0.0000 
     45 CA         17.3253  -42.5760   10.5323 C.3       5 GLY6        0.0000 
     46 N          16.6154  -43.5213    9.6090 N.2       2 ALA2        0.0000 
@<TRIPOS>BOND
@<TRIPOS>SUBSTRUCTURE
     1 SER1       14 GROUP   
     2 ALA2       31 GROUP   
     3 ASP3        1 GROUP   
     4 PHE5       43 GROUP   
     5 GLY6        2 GROUP   
@<TRIPOS>SET

