#    Name: 4gs9_0XB_1_INTS_M
#    Modification time : Mon Mar 24 23:36:39 2014

@<TRIPOS>MOLECULE
4gs9_0XB_1_INTS_M
   32     0     3     0     0
SMALL
NO_CHARGES


@<TRIPOS>ATOM
      1 CA         16.3790  -45.4375    9.7635 C.3       1 GLC5        0.0000 
      2 CA         16.5630  -43.5160   10.8670 C.3       3 GLL5        0.0000 
      3 CA         16.1950  -47.3590    8.6600 C.3       2 GLP5        0.0000 
      4 CA         18.9455  -38.9095    9.8335 C.3       1 GLC5        0.0000 
      5 CA         17.6050  -40.5150    9.1890 C.3       3 GLL5        0.0000 
      6 CA         20.2860  -37.3040   10.4780 C.3       2 GLP5        0.0000 
      7 CA         16.3280  -39.3365    8.8045 C.3       1 GLC5        0.0000 
      8 CA         15.0510  -38.1580    8.4200 C.3       2 GLP5        0.0000 
      9 CA         16.7580  -40.5510    7.5535 C.3       1 GLC5        0.0000 
     10 CA         15.9110  -40.5870    5.9180 C.3       2 GLP5        0.0000 
     11 CA         13.8030  -39.9825   11.6435 C.3       1 GLC5        0.0000 
     12 CA         12.4620  -41.3320   10.5160 C.3       3 GLL5        0.0000 
     13 CA         15.1440  -38.6330   12.7710 C.3       2 GLP5        0.0000 
     14 CA         11.7810  -39.9760    6.5910 C.3       1 GLC5        0.0000 
     15 CA         11.7370  -41.4510    8.1610 C.3       3 GLL5        0.0000 
     16 CA         11.8250  -38.5010    5.0210 C.3       2 GLP5        0.0000 
     17 CA         10.9330  -41.9135    6.3485 C.3       1 GLC5        0.0000 
     18 CA         10.1290  -42.3760    4.5360 C.3       2 GLP5        0.0000 
     19 CA         11.9900  -43.1640    7.6415 C.3       1 GLC5        0.0000 
     20 CA         12.2430  -44.8770    7.1220 C.3       2 GLP5        0.0000 
     21 CA         18.9361  -41.5498    9.3094 C.3       1 GLC5        0.0000 
     22 CA         16.8640  -41.3780    9.8650 C.3       3 GLL5        0.0000 
     23 CA         20.5100  -41.8370    9.0190 C.3       2 GLP5        0.0000 
     24 CA         17.8551  -42.5473    8.0159 C.3       1 GLC5        0.0000 
     25 CA         18.3480  -43.8320    6.4320 C.3       2 GLP5        0.0000 
     26 CA         15.3266  -40.0877   11.6415 C.3       1 GLC5        0.0000 
     27 CA         11.0723  -39.4025   10.8298 C.3       1 GLC5        0.0000 
     28 CA         10.3110  -37.6730   10.9400 C.3       2 GLP5        0.0000 
     29 CA         12.0795  -43.3238    9.1425 C.3       1 GLC5        0.0000 
     30 CA         11.5780  -45.1970    8.4700 C.3       2 GLP5        0.0000 
     31 CA         11.4443  -42.9180   11.4887 C.3       1 GLC5        0.0000 
     32 CA         11.0550  -44.7040   12.2580 C.3       2 GLP5        0.0000 
@<TRIPOS>BOND
@<TRIPOS>SUBSTRUCTURE
     1 GLC5        1 GROUP        1 X    GLC  0     ROOT GLC X 6
     2 GLP5        3 GROUP        1 Y    GLP  0     ROOT GLP Y 13
     3 GLL5        2 GROUP        1 Z    GLL  0     ROOT GLL Z 20
@<TRIPOS>SET

