#    Name: 4gs9_0XB_1_ligand
#    Modification time : Mon Mar 24 23:36:39 2014

@<TRIPOS>MOLECULE
4gs9_0XB_1_ligand
   27    29     1     0     0
SMALL
NO_CHARGES


@<TRIPOS>ATOM
      1 CAH        16.5630  -43.5160   10.8670 C.ar      1 0XB401      0.0000 
      2 CAG        15.2770  -43.1510   11.2620 C.ar      1 0XB401      0.0000 
      3 CAI        17.3750  -42.6420   10.1560 C.ar      1 0XB401      0.0000 
      4 CAQ        16.8640  -41.3780    9.8650 C.ar      1 0XB401      0.0000 
      5 FAR        17.6050  -40.5150    9.1890 F         1 0XB401      0.0000 
      6 CAP        15.5890  -40.9980   10.2670 C.ar      1 0XB401      0.0000 
      7 CAO        14.7920  -41.8970   10.9580 C.ar      1 0XB401      0.0000 
      8 NAN        13.5230  -41.5070   11.3700 N.pl3     1 0XB401      0.0000 
      9 CAM        12.4620  -41.3320   10.5160 C.ar      1 0XB401      0.0000 
     10 CAL        11.2050  -40.9320   10.9230 C.ar      1 0XB401      0.0000 
     11 NAT        10.9060  -40.6540   12.3570 N.pl3     1 0XB401      0.0000 
     12 OAS         9.7950  -40.3090   12.6800 O.2       1 0XB401      0.0000 
     13 OAU        11.7950  -40.7810   13.1520 O.2       1 0XB401      0.0000 
     14 CAF        12.7000  -41.5690    9.1140 C.ar      1 0XB401      0.0000 
     15 CAE        11.7370  -41.4510    8.1610 C.ar      1 0XB401      0.0000 
     16 CAD        10.4210  -41.0370    8.5550 C.ar      1 0XB401      0.0000 
     17 CAK        10.1480  -40.7740    9.9580 C.ar      1 0XB401      0.0000 
     18 NAC         9.2670  -40.8000    7.8710 N.2       1 0XB401      0.0000 
     19 OAB         8.3660  -40.4320    8.7800 O.3       1 0XB401      0.0000 
     20 NAJ         8.8440  -40.3890   10.0250 N.2       1 0XB401      0.0000 
     21 H          16.9185  -44.4596   11.1100 H         1 0XB401      0.0000 
     22 H          14.6944  -43.8234   11.7809 H         1 0XB401      0.0000 
     23 H          18.3036  -42.9103    9.8590 H         1 0XB401      0.0000 
     24 H          15.2411  -40.0563   10.0525 H         1 0XB401      0.0000 
     25 H          13.3727  -41.3366   12.4036 H         1 0XB401      0.0000 
     26 H          13.6774  -41.8451    8.8492 H         1 0XB401      0.0000 
     27 H          11.9124  -41.6450    7.1768 H         1 0XB401      0.0000 
@<TRIPOS>BOND
     1    2    1 ar   
     2    3    1 ar   
     3   21    1 1    
     4    7    2 ar   
     5   22    2 1    
     6    4    3 ar   
     7   23    3 1    
     8    5    4 1    
     9    6    4 ar   
    10    7    6 ar   
    11   24    6 1    
    12    8    7 1    
    13    9    8 1    
    14   25    8 1    
    15   10    9 ar   
    16   14    9 ar   
    17   11   10 1    
    18   17   10 ar   
    19   12   11 2    
    20   13   11 2    
    21   15   14 ar   
    22   26   14 1    
    23   16   15 ar   
    24   27   15 1    
    25   17   16 ar   
    26   18   16 2    
    27   20   17 2    
    28   19   18 1    
    29   20   19 1    
@<TRIPOS>SUBSTRUCTURE
     1 0XB401      1 GROUP   
@<TRIPOS>SET

