#    Name: 2hmp_211_1_INTS_M
#    Modification time : Tue Mar 25 16:48:32 2014

@<TRIPOS>MOLECULE
2hmp_211_1_INTS_M
   19     0     6     0     0
SMALL
NO_CHARGES


@<TRIPOS>ATOM
      1 O          -2.6565   -9.5345    9.3725 O.2       1 ALC1        0.0000 
      2 O          -1.1690  -10.1770    8.7510 O.2       5 ALL1        0.0000 
      3 O          -4.1440   -8.8920    9.9940 O.2       3 ALP1        0.0000 
      4 CA         -0.1110   -7.9395    6.9745 C.3       2 GLC5        0.0000 
      5 CA         -1.1590   -9.6700    6.3520 C.3       6 GLL5        0.0000 
      6 CA          0.9370   -6.2090    7.5970 C.3       4 GLP5        0.0000 
      7 CA         -2.3465   -8.2090    6.2035 C.3       2 GLC5        0.0000 
      8 CA         -3.5340   -6.7480    6.0550 C.3       4 GLP5        0.0000 
      9 O          -4.3890   -7.8435    3.6010 O.2       1 ALC1        0.0000 
     10 O          -3.6670   -9.1590    2.9920 O.2       5 ALL1        0.0000 
     11 O          -5.1110   -6.5280    4.2100 O.2       3 ALP1        0.0000 
     12 CA          0.0135   -7.7345    3.5595 C.3       2 GLC5        0.0000 
     13 CA          0.2920   -9.7700    4.3990 C.3       6 GLL5        0.0000 
     14 CA         -0.2650   -5.6990    2.7200 C.3       4 GLP5        0.0000 
     15 CA         -2.7505   -7.6715    1.8930 C.3       2 GLC5        0.0000 
     16 CA         -2.3080   -9.1670    3.4500 C.3       6 GLL5        0.0000 
     17 CA         -3.1930   -6.1760    0.3360 C.3       4 GLP5        0.0000 
     18 CA         -1.2865   -7.4330    3.0850 C.3       2 GLC5        0.0000 
     19 CA         -2.8552   -8.2850    4.9377 C.3       2 GLC5        0.0000 
@<TRIPOS>BOND
@<TRIPOS>SUBSTRUCTURE
     1 ALC1        1 GROUP        1 X    ALC  0     ROOT ALC X 1
     2 GLC5        4 GROUP        1 X    GLC  0     **** GLC X 6
     3 ALP1        3 GROUP        1 Y    ALP  0     ROOT ALP Y 8
     4 GLP5        6 GROUP        1 Y    GLP  0     **** GLP Y 13
     5 ALL1        2 GROUP        1 Z    ALL  0     ROOT ALL Z 15
     6 GLL5        5 GROUP        1 Z    GLL  0     **** GLL Z 20
@<TRIPOS>SET

