#    Name: 2hmp_211_1_ligand
#    Modification time : Tue Mar 25 16:48:32 2014

@<TRIPOS>MOLECULE
2hmp_211_1_ligand
   26    25     1     0     0
SMALL
NO_CHARGES


@<TRIPOS>ATOM
      1 O1         -1.1690  -10.1770    8.7510 O.3       1 2116601     0.0000 
      2 O2          2.5060  -10.6540    4.0410 O.3       1 2116601     0.0000 
      3 C1         -1.1590   -9.6700    6.3520 C.3       1 2116601     0.0000 
      4 C2         -1.0740  -10.7460    7.4360 C.3       1 2116601     0.0000 
      5 O3         -3.6670   -9.1590    2.9920 O.3       1 2116601     0.0000 
      6 C3          0.2920   -9.7700    4.3990 C.3       1 2116601     0.0000 
      7 C4          1.1130  -10.9650    3.9230 C.3       1 2116601     0.0000 
      8 C5         -2.0450  -10.4770    4.1910 C.3       1 2116601     0.0000 
      9 C6         -2.3080   -9.1670    3.4500 C.3       1 2116601     0.0000 
     10 N1         -0.8740  -10.3360    5.0750 N.4       1 2116601     0.0000 
     11 H          -0.4267   -8.9077    6.5650 H         1 2116601     0.0000 
     12 H          -2.1528   -9.2515    6.3591 H         1 2116601     0.0000 
     13 H          -1.8837  -11.4708    7.2518 H         1 2116601     0.0000 
     14 H          -0.1222  -11.2846    7.2985 H         1 2116601     0.0000 
     15 H           0.0028   -9.1871    3.5425 H         1 2116601     0.0000 
     16 H           0.8916   -9.1871    5.0755 H         1 2116601     0.0000 
     17 H           0.8378  -11.8277    4.5354 H         1 2116601     0.0000 
     18 H           0.8317  -11.1756    2.8878 H         1 2116601     0.0000 
     19 H          -1.8770  -11.2643    3.4526 H         1 2116601     0.0000 
     20 H          -2.9356  -10.7316    4.7700 H         1 2116601     0.0000 
     21 H          -2.1090   -8.3447    4.1398 H         1 2116601     0.0000 
     22 H          -1.6015   -9.1022    2.6204 H         1 2116601     0.0000 
     23 H          -0.5695  -11.4151    5.3542 H         1 2116601     0.0000 
     24 H          -2.1283   -9.9124    8.8497 H         1 2116601     0.0000 
     25 H           3.0834  -10.0766    4.6184 H         1 2116601     0.0000 
     26 H          -4.0820   -8.3602    3.4275 H         1 2116601     0.0000 
@<TRIPOS>BOND
     1    4    1 1    
     2   24    1 1    
     3    7    2 1    
     4   25    2 1    
     5    4    3 1    
     6   10    3 1    
     7   11    3 1    
     8   12    3 1    
     9   13    4 1    
    10   14    4 1    
    11    9    5 1    
    12   26    5 1    
    13    7    6 1    
    14   10    6 1    
    15   15    6 1    
    16   16    6 1    
    17   17    7 1    
    18   18    7 1    
    19    9    8 1    
    20   10    8 1    
    21   19    8 1    
    22   20    8 1    
    23   21    9 1    
    24   22    9 1    
    25   23   10 1    
@<TRIPOS>SUBSTRUCTURE
     1 2116601     1 GROUP   
@<TRIPOS>SET

