#    Name: 2g1r_3IG_2_INTS_M
#    Modification time : Tue Mar 25 13:24:44 2014

@<TRIPOS>MOLECULE
2g1r_3IG_2_INTS_M
   65     0     9     0     0
SMALL
NO_CHARGES


@<TRIPOS>ATOM
      1 CA        126.8965   15.6245   36.1030 C.3       3 GLC5        0.0000 
      2 CA        128.6590   16.9120   36.0240 C.3       9 GLL5        0.0000 
      3 CA        125.1340   14.3370   36.1820 C.3       6 GLP5        0.0000 
      4 O         127.0685   21.4845   37.0115 O.2       1 ALC1        0.0000 
      5 O         127.4160   20.1860   36.2430 O.2       7 ALL1        0.0000 
      6 O         126.7210   22.7830   37.7800 O.2       4 ALP1        0.0000 
      7 O         129.3150   15.1265   36.3500 O.2       1 ALC1        0.0000 
      8 O         129.1170   16.0670   35.1010 O.2       7 ALL1        0.0000 
      9 O         129.5130   14.1860   37.5990 O.2       4 ALP1        0.0000 
     10 O         128.3790   15.9970   33.7730 O.2       1 ALC1        0.0000 
     11 O         127.6410   15.9270   32.4450 O.2       4 ALP1        0.0000 
     12 CA        130.0375   16.7640   39.4485 C.3       3 GLC5        0.0000 
     13 CA        128.1160   16.6280   39.6540 C.3       9 GLL5        0.0000 
     14 CA        131.9590   16.9000   39.2430 C.3       6 GLP5        0.0000 
     15 CA        128.4585   15.9295   41.3690 C.3       3 GLC5        0.0000 
     16 CA        128.8010   15.2310   43.0840 C.3       6 GLP5        0.0000 
     17 CA        125.5220   14.5365   40.0260 C.3       3 GLC5        0.0000 
     18 CA        126.8810   15.7560   39.8430 C.3       9 GLL5        0.0000 
     19 CA        124.1630   13.3170   40.2090 C.3       6 GLP5        0.0000 
     20 CA        127.5420   14.0445   39.0150 C.3       3 GLC5        0.0000 
     21 CA        128.2030   12.3330   38.1870 C.3       6 GLP5        0.0000 
     22 CA        128.0565   14.5445   40.6880 C.3       3 GLC5        0.0000 
     23 CA        129.2320   13.3330   41.5330 C.3       6 GLP5        0.0000 
     24 CA        126.0075   15.0465   38.0125 C.3       3 GLC5        0.0000 
     25 CA        126.9885   22.6650   39.1585 C.3       3 GLC5        0.0000 
     26 CA        127.0660   21.1510   40.8060 C.3       9 GLL5        0.0000 
     27 CA        126.9110   24.1790   37.5110 C.3       6 GLP5        0.0000 
     28 CA        124.1305   20.2355   42.5985 C.3       3 GLC5        0.0000 
     29 CA        123.5400   22.0670   41.6180 C.3       9 GLL5        0.0000 
     30 CA        124.7210   18.4040   43.5790 C.3       6 GLP5        0.0000 
     31 CA        123.1930   16.0710   41.0480 C.3       3 GLC5        0.0000 
     32 CA        122.8700   17.6640   39.7690 C.3       9 GLL5        0.0000 
     33 CA        123.5160   14.4780   42.3270 C.3       6 GLP5        0.0000 
     34 CA        123.1150   17.9450   41.7025 C.3       3 GLC5        0.0000 
     35 CA        123.3600   18.2260   43.6360 C.3       6 GLP5        0.0000 
     36 O         123.5045   16.6380   37.7050 O.2       1 ALC1        0.0000 
     37 O         122.5350   16.6990   38.7250 O.2       7 ALL1        0.0000 
     38 O         124.4740   16.5770   36.6850 O.2       4 ALP1        0.0000 
     39 CA        119.4140   14.2635   37.9165 C.3       3 GLC5        0.0000 
     40 CA        121.5070   14.7820   37.6990 C.3       9 GLL5        0.0000 
     41 CA        117.3210   13.7450   38.1340 C.3       6 GLP5        0.0000 
     42 CA        122.8350   14.0495   38.9540 C.3       3 GLC5        0.0000 
     43 CA        120.4515   13.2215   36.6870 C.3       3 GLC5        0.0000 
     44 CA        119.3960   11.6610   35.6750 C.3       6 GLP5        0.0000 
     45 CA        123.3205   14.5595   36.9405 C.3       3 GLC5        0.0000 
     46 CA        121.9915   23.7155   43.9810 C.3       3 GLC5        0.0000 
     47 CA        122.9590   22.1130   43.0400 C.3       9 GLL5        0.0000 
     48 CA        121.0240   25.3180   44.9220 C.3       6 GLP5        0.0000 
     49 CA        122.6385   21.5915   44.6260 C.3       3 GLC5        0.0000 
     50 CA        122.3180   21.0700   46.2120 C.3       6 GLP5        0.0000 
     51 CA        123.1595   20.1695   43.3380 C.3       3 GLC5        0.0000 
     52 N         120.0160   14.8755   40.4110 N.am      2 SEC2        0.0000 
     53 N         121.1870   15.3700   40.0030 N.am      8 SEL2        0.0000 
     54 N         118.8450   14.3810   40.8190 N.am      5 SEP2        0.0000 
     55 CA        129.5173   19.1800   37.8639 C.3       3 GLC5        0.0000 
     56 CA        127.7030   18.5600   37.9910 C.3       9 GLL5        0.0000 
     57 CA        131.0840   20.3560   37.9330 C.3       6 GLP5        0.0000 
     58 CA        129.2715   20.1355   38.6923 C.3       3 GLC5        0.0000 
     59 CA        127.1120   19.4780   39.0210 C.3       9 GLL5        0.0000 
     60 CA        126.3190   23.1630   41.4802 C.3       3 GLC5        0.0000 
     61 CA        126.2880   25.2130   42.1290 C.3       6 GLP5        0.0000 
     62 CA        124.8585   23.9803   41.7055 C.3       3 GLC5        0.0000 
     63 CA        121.1045   18.6515   40.7198 C.3       3 GLC5        0.0000 
     64 CA        122.7840   19.0940   39.1940 C.3       9 GLL5        0.0000 
     65 CA        119.3820   18.9240   41.9580 C.3       6 GLP5        0.0000 
@<TRIPOS>BOND
@<TRIPOS>SUBSTRUCTURE
     1 ALC1        4 GROUP        1 X    ALC  0     ROOT ALC X 1
     2 SEC2       52 GROUP        1 X    SEC  0     **** SEC X 2
     3 GLC5        1 GROUP        1 X    GLC  0     **** GLC X 6
     4 ALP1        6 GROUP        1 Y    ALP  0     ROOT ALP Y 8
     5 SEP2       54 GROUP        1 Y    SEP  0     **** SEP Y 9
     6 GLP5        3 GROUP        1 Y    GLP  0     **** GLP Y 13
     7 ALL1        5 GROUP        1 Z    ALL  0     ROOT ALL Z 15
     8 SEL2       53 GROUP        1 Z    SEL  0     **** SEL Z 16
     9 GLL5        2 GROUP        1 Z    GLL  0     **** GLL Z 20
@<TRIPOS>SET

