#    Name: 2g1r_3IG_2_ligand
#    Modification time : Tue Mar 25 13:24:44 2014

@<TRIPOS>MOLECULE
2g1r_3IG_2_ligand
   55    57     1     0     0
SMALL
NO_CHARGES


@<TRIPOS>ATOM
      1 C1        127.8090   18.9540   36.6340 C.ar      1 3IG886      0.0000 
      2 N1        128.2770   18.1440   35.6470 N.ar      1 3IG886      0.0000 
      3 C2        128.6590   16.9120   36.0240 C.ar      1 3IG886      0.0000 
      4 N2        128.6100   16.4580   37.2770 N.ar      1 3IG886      0.0000 
      5 C3        128.1450   17.2510   38.2770 C.ar      1 3IG886      0.0000 
      6 C4        127.7030   18.5600   37.9910 C.ar      1 3IG886      0.0000 
      7 N3        127.4160   20.1860   36.2430 N.pl3     1 3IG886      0.0000 
      8 N4        129.1170   16.0670   35.1010 N.pl3     1 3IG886      0.0000 
      9 C5        128.1160   16.6280   39.6540 C.3       1 3IG886      0.0000 
     10 C6        126.8810   15.7560   39.8430 C.3       1 3IG886      0.0000 
     11 C7        127.8060   20.3520   39.8820 C.ar      1 3IG886      0.0000 
     12 C8        127.0660   21.1510   40.8060 C.ar      1 3IG886      0.0000 
     13 C9        125.6340   21.0750   40.8570 C.ar      1 3IG886      0.0000 
     14 C10       124.9430   20.1990   39.9790 C.ar      1 3IG886      0.0000 
     15 C11       125.7210   19.4270   39.0960 C.ar      1 3IG886      0.0000 
     16 C12       127.1120   19.4780   39.0210 C.ar      1 3IG886      0.0000 
     17 O3        124.9520   21.8670   41.7870 O.3       1 3IG886      0.0000 
     18 C14       123.5400   22.0670   41.6180 C.3       1 3IG886      0.0000 
     19 C15       122.7700   20.9650   40.7880 C.2       1 3IG886      0.0000 
     20 N5        123.5340   20.0960   40.0170 N.am      1 3IG886      0.0000 
     21 C16       122.7840   19.0940   39.1940 C.3       1 3IG886      0.0000 
     22 C17       122.8700   17.6640   39.7690 C.3       1 3IG886      0.0000 
     23 N6        122.5350   16.6990   38.7250 N.am      1 3IG886      0.0000 
     24 C13       121.7240   15.6460   38.9400 C.2       1 3IG886      0.0000 
     25 C19       121.5070   14.7820   37.6990 C.3       1 3IG886      0.0000 
     26 C21       123.3180   23.4280   40.9460 C.3       1 3IG886      0.0000 
     27 C20       122.9590   22.1130   43.0400 C.3       1 3IG886      0.0000 
     28 O4        121.5390   20.9320   40.8380 O.2       1 3IG886      0.0000 
     29 O1        121.1870   15.3700   40.0030 O.2       1 3IG886      0.0000 
     30 H         127.5281   20.3960   35.2717 H         1 3IG886      0.0000 
     31 H         127.0479   20.7785   36.9596 H         1 3IG886      0.0000 
     32 H         128.7477   16.1805   34.1787 H         1 3IG886      0.0000 
     33 H         129.7887   15.3955   35.4138 H         1 3IG886      0.0000 
     34 H         128.1156   17.4162   40.4117 H         1 3IG886      0.0000 
     35 H         129.0104   16.0157   39.7969 H         1 3IG886      0.0000 
     36 H         128.8161   20.4186   39.8523 H         1 3IG886      0.0000 
     37 H         127.5577   21.7830   41.4373 H         1 3IG886      0.0000 
     38 H         125.2113   18.7659   38.4485 H         1 3IG886      0.0000 
     39 H         123.1807   19.0763   38.1694 H         1 3IG886      0.0000 
     40 H         121.7237   19.3759   39.1325 H         1 3IG886      0.0000 
     41 H         122.1766   17.5970   40.6063 H         1 3IG886      0.0000 
     42 H         123.8834   17.5113   40.1379 H         1 3IG886      0.0000 
     43 H         122.9661   16.8746   37.7898 H         1 3IG886      0.0000 
     44 H         126.8501   15.0073   39.1808 H         1 3IG886      0.0000 
     45 H         126.8535   15.3434   40.7535 H         1 3IG886      0.0000 
     46 H         126.0362   16.2797   39.7329 H         1 3IG886      0.0000 
     47 H         122.3668   14.4065   37.3529 H         1 3IG886      0.0000 
     48 H         120.9033   14.0072   37.8868 H         1 3IG886      0.0000 
     49 H         121.0926   15.3021   36.9522 H         1 3IG886      0.0000 
     50 H         123.6885   24.1778   41.4943 H         1 3IG886      0.0000 
     51 H         123.7578   23.4755   40.0492 H         1 3IG886      0.0000 
     52 H         122.3464   23.6192   40.8065 H         1 3IG886      0.0000 
     53 H         123.1294   21.2630   43.5385 H         1 3IG886      0.0000 
     54 H         123.3572   22.8544   43.5801 H         1 3IG886      0.0000 
     55 H         121.9691   22.2549   43.0324 H         1 3IG886      0.0000 
@<TRIPOS>BOND
     1    2    1 ar   
     2    6    1 ar   
     3    7    1 1    
     4    3    2 ar   
     5    4    3 ar   
     6    8    3 1    
     7    5    4 ar   
     8    6    5 ar   
     9    9    5 1    
    10   16    6 1    
    11   30    7 1    
    12   31    7 1    
    13   32    8 1    
    14   33    8 1    
    15   10    9 1    
    16   34    9 1    
    17   35    9 1    
    18   44   10 1    
    19   45   10 1    
    20   46   10 1    
    21   12   11 ar   
    22   16   11 ar   
    23   36   11 1    
    24   13   12 ar   
    25   37   12 1    
    26   14   13 ar   
    27   17   13 1    
    28   15   14 ar   
    29   20   14 1    
    30   16   15 ar   
    31   38   15 1    
    32   18   17 1    
    33   19   18 1    
    34   26   18 1    
    35   27   18 1    
    36   20   19 am   
    37   28   19 2    
    38   21   20 1    
    39   22   21 1    
    40   39   21 1    
    41   40   21 1    
    42   23   22 1    
    43   41   22 1    
    44   42   22 1    
    45   24   23 am   
    46   43   23 1    
    47   25   24 1    
    48   29   24 2    
    49   47   25 1    
    50   48   25 1    
    51   49   25 1    
    52   50   26 1    
    53   51   26 1    
    54   52   26 1    
    55   53   27 1    
    56   54   27 1    
    57   55   27 1    
@<TRIPOS>SUBSTRUCTURE
     1 3IG886      1 GROUP   
@<TRIPOS>SET

