#    Name: 3pvc_FAD_1_INTS_M
#    Modification time : Tue Mar 25 08:35:31 2014

@<TRIPOS>MOLECULE
3pvc_FAD_1_INTS_M
  115     0     9     0     0
SMALL
NO_CHARGES


@<TRIPOS>ATOM
      1 N           6.4735    4.7680   -0.8170 N.am      2 SEC2        0.0000 
      2 N           6.0830    5.1900    0.4650 N.am      8 SEL2        0.0000 
      3 N           6.8640    4.3460   -2.0990 N.am      5 SEP2        0.0000 
      4 N           7.6830    2.5270   -0.3150 N.am      2 SEC2        0.0000 
      5 N           6.8690    2.8490    0.8040 N.am      8 SEL2        0.0000 
      6 N           8.4970    2.2050   -1.4340 N.am      5 SEP2        0.0000 
      7 N           7.7650    1.9215    1.0470 N.am      2 SEC2        0.0000 
      8 N           8.6610    0.9940    1.2900 N.am      5 SEP2        0.0000 
      9 CA          4.5210    6.2300    2.9635 C.3       3 GLC5        0.0000 
     10 CA          3.6270    4.4380    2.1720 C.3       9 GLL5        0.0000 
     11 CA          5.4150    8.0220    3.7550 C.3       6 GLP5        0.0000 
     12 CA          1.3750    3.0255    3.7515 C.3       3 GLC5        0.0000 
     13 CA          2.3090    3.6280    2.1240 C.3       9 GLL5        0.0000 
     14 CA          0.4410    2.4230    5.3790 C.3       6 GLP5        0.0000 
     15 CA          1.9885    1.5690    2.7185 C.3       3 GLC5        0.0000 
     16 CA          1.6680   -0.4900    3.3130 C.3       6 GLP5        0.0000 
     17 CA          3.2650    3.5195   -1.0700 C.3       3 GLC5        0.0000 
     18 CA          1.8970    3.3240    0.6870 C.3       9 GLL5        0.0000 
     19 CA          4.6330    3.7150   -2.8270 C.3       6 GLP5        0.0000 
     20 O           1.6410    1.1315   -0.3980 O.2       1 ALC1        0.0000 
     21 O           1.9080    1.9130    0.5840 O.2       7 ALL1        0.0000 
     22 O           1.3740    0.3500   -1.3800 O.2       4 ALP1        0.0000 
     23 O          -0.4105    2.6480   -1.2420 O.2       1 ALC1        0.0000 
     24 O          -0.4920    3.1080   -0.0240 O.2       7 ALL1        0.0000 
     25 O          -0.3290    2.1880   -2.4600 O.2       4 ALP1        0.0000 
     26 CA          0.2495    3.3015    3.6640 C.3       3 GLC5        0.0000 
     27 CA          0.0580    4.1800    1.9490 C.3       9 GLL5        0.0000 
     28 CA         -0.2110    5.4555    3.6475 C.3       3 GLC5        0.0000 
     29 CA         -0.4800    6.7310    5.3460 C.3       6 GLP5        0.0000 
     30 CA         -3.6950    5.9985    4.8665 C.3       3 GLC5        0.0000 
     31 CA         -3.8870    6.8720    2.9640 C.3       9 GLL5        0.0000 
     32 CA         -3.5030    5.1250    6.7690 C.3       6 GLP5        0.0000 
     33 CA         -5.2635    7.0775    1.5495 C.3       3 GLC5        0.0000 
     34 CA         -6.6400    7.2830    0.1350 C.3       6 GLP5        0.0000 
     35 CA         -5.5335    6.9175    4.3620 C.3       3 GLC5        0.0000 
     36 CA         -7.1800    6.9630    5.7600 C.3       6 GLP5        0.0000 
     37 O          -5.8420    8.5705    3.2285 O.2       1 ALC1        0.0000 
     38 O          -4.3450    8.1280    3.0690 O.2       7 ALL1        0.0000 
     39 O          -7.3390    9.0130    3.3880 O.2       4 ALP1        0.0000 
     40 N          -6.0580    6.0125    3.4215 N.am      2 SEC2        0.0000 
     41 N          -4.6590    5.8060    3.3840 N.am      8 SEL2        0.0000 
     42 N          -7.4570    6.2190    3.4590 N.am      5 SEP2        0.0000 
     43 CA         -3.8320    4.8215    5.0700 C.3       3 GLC5        0.0000 
     44 CA         -4.1610    4.5180    3.3710 C.3       9 GLL5        0.0000 
     45 CA         -3.8060    2.5155    2.9785 C.3       3 GLC5        0.0000 
     46 CA         -3.4510    0.5130    2.5860 C.3       6 GLP5        0.0000 
     47 CA         -4.2015    4.4315    1.4745 C.3       3 GLC5        0.0000 
     48 CA         -4.2420    4.3450   -0.4220 C.3       6 GLP5        0.0000 
     49 CA         -5.8010    4.8500    2.3215 C.3       3 GLC5        0.0000 
     50 CA         -7.4410    5.1820    1.2720 C.3       6 GLP5        0.0000 
     51 N          -3.4230    3.2710    1.9330 N.am      2 SEC2        0.0000 
     52 N          -2.8850    4.2690    2.9300 N.am      8 SEL2        0.0000 
     53 N          -3.9610    2.2730    0.9360 N.am      5 SEP2        0.0000 
     54 CA         -2.8070    5.2165    4.6590 C.3       3 GLC5        0.0000 
     55 CA         -2.1110    5.3080    2.5490 C.3       9 GLL5        0.0000 
     56 N          16.4750    1.8700    2.8165 N.am      2 SEC2        0.0000 
     57 N          17.2090    2.2750    1.7500 N.am      8 SEL2        0.0000 
     58 N          15.7410    1.4650    3.8830 N.am      5 SEP2        0.0000 
     59 O          19.1770    1.8905    0.1790 O.2       1 ALC1        0.0000 
     60 O          18.0720    2.7110   -0.2610 O.2       7 ALL1        0.0000 
     61 O          20.2820    1.0700    0.6190 O.2       4 ALP1        0.0000 
     62 N          19.4730    1.7610   -2.2245 N.am      2 SEC2        0.0000 
     63 N          18.9310    3.1560   -2.2980 N.am      8 SEL2        0.0000 
     64 N          20.0150    0.3660   -2.1510 N.am      5 SEP2        0.0000 
     65 CA         13.2945    8.5940   -6.9220 C.3       3 GLC5        0.0000 
     66 CA         13.7330    7.0020   -6.2330 C.3       9 GLL5        0.0000 
     67 CA         12.8560   10.1860   -7.6110 C.3       6 GLP5        0.0000 
     68 CA         15.6295    7.5415   -6.9510 C.3       3 GLC5        0.0000 
     69 CA         17.5260    8.0810   -7.6690 C.3       6 GLP5        0.0000 
     70 CA         10.1635    6.2545   -2.8140 C.3       3 GLC5        0.0000 
     71 CA         11.5360    6.9010   -4.2500 C.3       9 GLL5        0.0000 
     72 CA          8.7910    5.6080   -1.3780 C.3       6 GLP5        0.0000 
     73 CA          9.9030    7.0430   -5.2450 C.3       3 GLC5        0.0000 
     74 CA          8.2700    7.1850   -6.2400 C.3       6 GLP5        0.0000 
     75 CA          9.8735    8.3800   -3.9440 C.3       3 GLC5        0.0000 
     76 CA          8.2110    9.8590   -3.6380 C.3       6 GLP5        0.0000 
     77 CA         10.9315    5.6180   -2.0605 C.3       3 GLC5        0.0000 
     78 CA         13.0720    5.6280   -2.7430 C.3       9 GLL5        0.0000 
     79 CA         14.8590    6.3855    0.8675 C.3       3 GLC5        0.0000 
     80 CA         13.3130    5.1160    0.9590 C.3       9 GLL5        0.0000 
     81 CA         16.4050    7.6550    0.7760 C.3       6 GLP5        0.0000 
     82 CA         13.9855    4.3180    2.8475 C.3       3 GLC5        0.0000 
     83 CA         14.6580    3.5200    4.7360 C.3       6 GLP5        0.0000 
     84 N          14.7970    4.4285    3.0185 N.am      2 SEC2        0.0000 
     85 N          14.0360    4.4350    1.9520 N.am      8 SEL2        0.0000 
     86 N          15.5580    4.4220    4.0850 N.am      5 SEP2        0.0000 
     87 CA         12.1115    5.8585    3.4945 C.3       3 GLC5        0.0000 
     88 CA         11.8480    5.3950    1.3230 C.3       9 GLL5        0.0000 
     89 CA         12.3750    6.3220    5.6660 C.3       6 GLP5        0.0000 
     90 O          12.7620    7.3525    1.7305 O.2       1 ALC1        0.0000 
     91 O          11.8630    6.4970    2.1970 O.2       7 ALL1        0.0000 
     92 O          13.6610    8.2080    1.2640 O.2       4 ALP1        0.0000 
     93 CA         10.6675    2.4305    3.0520 C.3       3 GLC5        0.0000 
     94 CA         11.0410    4.2750    2.0030 C.3       9 GLL5        0.0000 
     95 CA         10.2940    0.5860    4.1010 C.3       6 GLP5        0.0000 
     96 O           9.7370    2.0960    1.2210 O.2       1 ALC1        0.0000 
     97 O          10.8130    3.1980    1.1520 O.2       7 ALL1        0.0000 
     98 O           8.6610    0.9940    1.2900 O.2       4 ALP1        0.0000 
     99 N           7.6730    1.3615    5.3855 N.am      2 SEC2        0.0000 
    100 N           7.1380    2.5910    4.4720 N.am      8 SEL2        0.0000 
    101 N           8.2080    0.1320    6.2990 N.am      5 SEP2        0.0000 
    102 CA          2.5045    5.4255    3.5450 C.3       3 GLC5        0.0000 
    103 CA          2.0410    6.8180    4.9420 C.3       6 GLP5        0.0000 
    104 CA         -3.4590    5.1849    1.1139 C.3       3 GLC5        0.0000 
    105 CA         -2.5950    6.6110    2.5370 C.3       9 GLL5        0.0000 
    106 CA         -1.5780    6.3779    3.9979 C.3       3 GLC5        0.0000 
    107 CA         14.6239    5.5516   -6.8486 C.3       3 GLC5        0.0000 
    108 CA         15.1210    4.5890   -8.2070 C.3       6 GLP5        0.0000 
    109 CA         12.6781    7.9184   -2.6014 C.3       3 GLC5        0.0000 
    110 CA         12.8690    6.2780   -3.9630 C.3       9 GLL5        0.0000 
    111 CA         12.7190    9.7280   -1.7780 C.3       6 GLP5        0.0000 
    112 CA         10.7040    4.3793    4.2945 C.3       3 GLC5        0.0000 
    113 CA         11.0660    4.2580    6.3730 C.3       6 GLP5        0.0000 
    114 CA          9.6674    5.1943    0.3340 C.3       3 GLC5        0.0000 
    115 CA          9.6430    4.7260    2.4290 C.3       9 GLL5        0.0000 
@<TRIPOS>BOND
@<TRIPOS>SUBSTRUCTURE
     1 ALC1       20 GROUP        1 X    ALC  0     ROOT ALC X 1
     2 SEC2        1 GROUP        1 X    SEC  0     **** SEC X 2
     3 GLC5        9 GROUP        1 X    GLC  0     **** GLC X 6
     4 ALP1       22 GROUP        1 Y    ALP  0     ROOT ALP Y 8
     5 SEP2        3 GROUP        1 Y    SEP  0     **** SEP Y 9
     6 GLP5       11 GROUP        1 Y    GLP  0     **** GLP Y 13
     7 ALL1       21 GROUP        1 Z    ALL  0     ROOT ALL Z 15
     8 SEL2        2 GROUP        1 Z    SEL  0     **** SEL Z 16
     9 GLL5       10 GROUP        1 Z    GLL  0     **** GLL Z 20
@<TRIPOS>SET

