#    Name: 3pvc_FAD_1_ligand
#    Modification time : Tue Mar 25 08:35:31 2014

@<TRIPOS>MOLECULE
3pvc_FAD_1_ligand
   84    89     1     0     0
SMALL
NO_CHARGES


@<TRIPOS>ATOM
      1 PA          6.1420    4.0300    1.4320 P.3       1 FAD690      0.0000 
      2 O1A         6.0830    5.1900    0.4650 O.co2     1 FAD690      0.0000 
      3 O2A         6.8690    2.8490    0.8040 O.co2     1 FAD690      0.0000 
      4 O5B         4.6470    3.5600    1.7380 O.3       1 FAD690      0.0000 
      5 C5B         3.6270    4.4380    2.1720 C.3       1 FAD690      0.0000 
      6 C4B         2.3090    3.6280    2.1240 C.3       1 FAD690      0.0000 
      7 O4B         1.2240    4.3100    2.7390 O.3       1 FAD690      0.0000 
      8 C3B         1.8970    3.3240    0.6870 C.3       1 FAD690      0.0000 
      9 O3B         1.9080    1.9130    0.5840 O.3       1 FAD690      0.0000 
     10 C2B         0.4980    3.9450    0.5280 C.3       1 FAD690      0.0000 
     11 O2B        -0.4920    3.1080   -0.0240 O.3       1 FAD690      0.0000 
     12 C1B         0.0580    4.1800    1.9490 C.3       1 FAD690      0.0000 
     13 N9A        -0.8190    5.3490    2.0790 N.pl3     1 FAD690      0.0000 
     14 C8A        -0.5210    6.6610    1.7880 C.2       1 FAD690      0.0000 
     15 N7A        -1.6010    7.4230    2.0990 N.2       1 FAD690      0.0000 
     16 C5A        -2.5950    6.6110    2.5370 C.ar      1 FAD690      0.0000 
     17 C6A        -3.8870    6.8720    2.9640 C.ar      1 FAD690      0.0000 
     18 N6A        -4.3450    8.1280    3.0690 N.pl3     1 FAD690      0.0000 
     19 N1A        -4.6590    5.8060    3.3840 N.ar      1 FAD690      0.0000 
     20 C2A        -4.1610    4.5180    3.3710 C.ar      1 FAD690      0.0000 
     21 N3A        -2.8850    4.2690    2.9300 N.ar      1 FAD690      0.0000 
     22 C4A        -2.1110    5.3080    2.5490 C.ar      1 FAD690      0.0000 
     23 N1         15.8520    3.3080    0.2900 N.2       1 FAD690      0.0000 
     24 C2         17.0590    2.7680    0.6390 C.2       1 FAD690      0.0000 
     25 O2         17.2090    2.2750    1.7500 O.2       1 FAD690      0.0000 
     26 N3         18.0720    2.7110   -0.2610 N.am      1 FAD690      0.0000 
     27 C4         17.9640    3.2570   -1.5190 C.2       1 FAD690      0.0000 
     28 O4         18.9310    3.1560   -2.2980 O.2       1 FAD690      0.0000 
     29 C4X        16.7590    3.8740   -1.8690 C.2       1 FAD690      0.0000 
     30 N5         16.5700    4.4590   -3.1080 N.2       1 FAD690      0.0000 
     31 C5X        15.3440    5.0700   -3.3780 C.ar      1 FAD690      0.0000 
     32 C6         15.1410    5.7420   -4.5910 C.ar      1 FAD690      0.0000 
     33 C7         13.9000    6.3110   -4.9040 C.ar      1 FAD690      0.0000 
     34 C7M        13.7330    7.0020   -6.2330 C.3       1 FAD690      0.0000 
     35 C8         12.8690    6.2780   -3.9630 C.ar      1 FAD690      0.0000 
     36 C8M        11.5360    6.9010   -4.2500 C.3       1 FAD690      0.0000 
     37 C9         13.0720    5.6280   -2.7430 C.ar      1 FAD690      0.0000 
     38 C9A        14.2980    5.0000   -2.4610 C.ar      1 FAD690      0.0000 
     39 N10        14.4960    4.3890   -1.2470 N.pl3     1 FAD690      0.0000 
     40 C10        15.7060    3.8560   -0.9560 C.2       1 FAD690      0.0000 
     41 C1'        13.3690    4.2240   -0.2550 C.3       1 FAD690      0.0000 
     42 C2'        13.3130    5.1160    0.9590 C.3       1 FAD690      0.0000 
     43 O2'        14.0360    4.4350    1.9520 O.3       1 FAD690      0.0000 
     44 C3'        11.8480    5.3950    1.3230 C.3       1 FAD690      0.0000 
     45 O3'        11.8630    6.4970    2.1970 O.3       1 FAD690      0.0000 
     46 C4'        11.0410    4.2750    2.0030 C.3       1 FAD690      0.0000 
     47 O4'        10.8130    3.1980    1.1520 O.3       1 FAD690      0.0000 
     48 C5'         9.6430    4.7260    2.4290 C.3       1 FAD690      0.0000 
     49 O5'         9.0120    3.6890    3.1530 O.3       1 FAD690      0.0000 
     50 P           7.5970    3.9080    3.9440 P.3       1 FAD690      0.0000 
     51 O1P         7.1380    2.5910    4.4720 O.co2     1 FAD690      0.0000 
     52 O2P         7.8000    4.8570    5.0950 O.co2     1 FAD690      0.0000 
     53 O3P         6.6280    4.5860    2.8530 O.3       1 FAD690      0.0000 
     54 H           3.5042    5.2929    1.5202 H         1 FAD690      0.0000 
     55 H           3.7651    4.7692    3.1928 H         1 FAD690      0.0000 
     56 H           2.4889    2.6706    2.6146 H         1 FAD690      0.0000 
     57 H           2.5753    3.8084    0.0457 H         1 FAD690      0.0000 
     58 H           0.5843    4.8880    0.0612 H         1 FAD690      0.0000 
     59 H          -0.4954    3.2804    2.2622 H         1 FAD690      0.0000 
     60 H           0.3103    6.9725    1.4276 H         1 FAD690      0.0000 
     61 H          -5.3046    8.2258    3.3328 H         1 FAD690      0.0000 
     62 H          -3.6860    8.8544    2.8741 H         1 FAD690      0.0000 
     63 H          -4.7577    3.7362    3.6973 H         1 FAD690      0.0000 
     64 H          18.9718    2.2362    0.0032 H         1 FAD690      0.0000 
     65 H          15.9195    5.8187   -5.2650 H         1 FAD690      0.0000 
     66 H          12.3194    5.6065   -2.0415 H         1 FAD690      0.0000 
     67 H          13.3594    3.1475    0.0937 H         1 FAD690      0.0000 
     68 H          12.3894    4.3208   -0.8132 H         1 FAD690      0.0000 
     69 H          13.7857    6.0511    0.6899 H         1 FAD690      0.0000 
     70 H          11.3230    5.6805    0.4031 H         1 FAD690      0.0000 
     71 H          11.5623    3.9636    2.8997 H         1 FAD690      0.0000 
     72 H           9.0905    4.9915    1.5192 H         1 FAD690      0.0000 
     73 H           9.7588    5.6380    3.0276 H         1 FAD690      0.0000 
     74 H          14.3665    7.7690   -6.3350 H         1 FAD690      0.0000 
     75 H          13.8997    6.3804   -6.9984 H         1 FAD690      0.0000 
     76 H          12.8093    7.3675   -6.3481 H         1 FAD690      0.0000 
     77 H          11.6151    7.8818   -4.4284 H         1 FAD690      0.0000 
     78 H          11.0995    6.4917   -5.0512 H         1 FAD690      0.0000 
     79 H          10.9027    6.7926   -3.4837 H         1 FAD690      0.0000 
     80 H           1.6401    1.7204   -0.3600 H         1 FAD690      0.0000 
     81 H          -0.1807    2.9184   -0.9552 H         1 FAD690      0.0000 
     82 H          14.4736    3.6721    1.4761 H         1 FAD690      0.0000 
     83 H          12.0747    7.2839    1.6174 H         1 FAD690      0.0000 
     84 H          10.0495    2.7003    1.5635 H         1 FAD690      0.0000 
@<TRIPOS>BOND
     1    2    1 ar   
     2    3    1 ar   
     3    4    1 1    
     4   53    1 1    
     5    5    4 1    
     6    6    5 1    
     7   54    5 1    
     8   55    5 1    
     9    7    6 1    
    10    8    6 1    
    11   56    6 1    
    12   12    7 1    
    13    9    8 1    
    14   10    8 1    
    15   57    8 1    
    16   80    9 1    
    17   11   10 1    
    18   12   10 1    
    19   58   10 1    
    20   81   11 1    
    21   13   12 1    
    22   59   12 1    
    23   14   13 1    
    24   22   13 1    
    25   15   14 2    
    26   60   14 1    
    27   16   15 1    
    28   17   16 ar   
    29   22   16 ar   
    30   18   17 1    
    31   19   17 ar   
    32   61   18 1    
    33   62   18 1    
    34   20   19 ar   
    35   21   20 ar   
    36   63   20 1    
    37   22   21 ar   
    38   24   23 1    
    39   40   23 2    
    40   25   24 2    
    41   26   24 am   
    42   27   26 am   
    43   64   26 1    
    44   28   27 2    
    45   29   27 1    
    46   30   29 2    
    47   40   29 1    
    48   31   30 1    
    49   32   31 ar   
    50   38   31 ar   
    51   33   32 ar   
    52   65   32 1    
    53   34   33 1    
    54   35   33 ar   
    55   74   34 1    
    56   75   34 1    
    57   76   34 1    
    58   36   35 1    
    59   37   35 ar   
    60   77   36 1    
    61   78   36 1    
    62   79   36 1    
    63   38   37 ar   
    64   66   37 1    
    65   39   38 1    
    66   40   39 1    
    67   41   39 1    
    68   42   41 1    
    69   67   41 1    
    70   68   41 1    
    71   43   42 1    
    72   44   42 1    
    73   69   42 1    
    74   82   43 1    
    75   45   44 1    
    76   46   44 1    
    77   70   44 1    
    78   83   45 1    
    79   47   46 1    
    80   48   46 1    
    81   71   46 1    
    82   84   47 1    
    83   49   48 1    
    84   72   48 1    
    85   73   48 1    
    86   50   49 1    
    87   51   50 ar   
    88   52   50 ar   
    89   53   50 1    
@<TRIPOS>SUBSTRUCTURE
     1 FAD690      1 GROUP   
@<TRIPOS>SET

