#    Name: 4ifc_ADP_1_INTS_M
#    Modification time : Tue Mar 25 03:54:31 2014

@<TRIPOS>MOLECULE
4ifc_ADP_1_INTS_M
   54     0    12     0     0
SMALL
NO_CHARGES


@<TRIPOS>ATOM
      1 N          -4.0075    5.2165   14.8920 N.am      2 SEC2        0.0000 
      2 N          -3.1600    5.7010   13.9860 N.am     10 SEL2        0.0000 
      3 N          -4.8550    4.7320   15.7980 N.am      6 SEP2        0.0000 
      4 NZ         -4.9870    4.2635   11.7625 N.4       3 LYC4        0.0000 
      5 NZ         -3.4410    5.0280   11.5680 N.4      11 LYL4        0.0000 
      6 NZ         -6.5330    3.4990   11.9570 N.4       7 LYP4        0.0000 
      7 NZ         -5.5350    2.5335   11.8745 N.4       3 LYC4        0.0000 
      8 NZ         -4.5370    1.5680   11.7920 N.4      11 LYL4        0.0000 
      9 N          -5.5350    2.5335   11.8745 N.am      2 SEC2        0.0000 
     10 N          -4.5370    1.5680   11.7920 N.am     10 SEL2        0.0000 
     11 N          -6.5330    3.4990   11.9570 N.am      6 SEP2        0.0000 
     12 N          -4.0960    3.9665   14.5995 N.am      2 SEC2        0.0000 
     13 N          -3.3370    3.2010   13.4010 N.am     10 SEL2        0.0000 
     14 N           1.3730   -2.6125   12.0755 N.am      2 SEC2        0.0000 
     15 N           0.1650   -1.8390   12.3450 N.am     10 SEL2        0.0000 
     16 N           2.5810   -3.3860   11.8060 N.am      6 SEP2        0.0000 
     17 O           0.5565   -1.8020   10.6935 O.2       1 ALC1        0.0000 
     18 O           0.1650   -1.8390   12.3450 O.2       9 ALL1        0.0000 
     19 O           0.9480   -1.7650    9.0420 O.2       5 ALP1        0.0000 
     20 CA         -3.6335   -2.1945   16.0720 C.3       4 GLC5        0.0000 
     21 CA         -2.2660   -2.8220   14.8690 C.3      12 GLL5        0.0000 
     22 CA         -5.0010   -1.5670   17.2750 C.3       8 GLP5        0.0000 
     23 CA         -4.1760   -4.9660   12.3820 C.3       4 GLC5        0.0000 
     24 CA         -5.4830   -4.2050   13.8950 C.3      12 GLL5        0.0000 
     25 CA         -2.8690   -5.7270   10.8690 C.3       8 GLP5        0.0000 
     26 CA         -5.7415   -7.1305   13.1460 C.3       4 GLC5        0.0000 
     27 CA         -6.3510   -5.2930   13.9730 C.3      12 GLL5        0.0000 
     28 CA         -5.1320   -8.9680   12.3190 C.3       8 GLP5        0.0000 
     29 O          -8.3195   -6.3920   13.7325 O.2       1 ALC1        0.0000 
     30 O          -7.5260   -5.2740   13.3600 O.2       9 ALL1        0.0000 
     31 O          -9.1130   -7.5100   14.1050 O.2       5 ALP1        0.0000 
     32 N          -6.1080   -7.9295   14.5865 N.am      2 SEC2        0.0000 
     33 N          -5.9860   -6.3770   14.6850 N.am     10 SEL2        0.0000 
     34 N          -6.2300   -9.4820   14.4880 N.am      6 SEP2        0.0000 
     35 CA         -6.3805   -5.6875   16.2195 C.3       4 GLC5        0.0000 
     36 CA         -4.8190   -6.4160   15.3190 C.3      12 GLL5        0.0000 
     37 CA         -7.9420   -4.9590   17.1200 C.3       8 GLP5        0.0000 
     38 CA         -4.9995   -8.1495   14.4355 C.3       4 GLC5        0.0000 
     39 CA         -5.1800   -9.8830   13.5520 C.3       8 GLP5        0.0000 
     40 CA         -3.5485   -6.4235   13.6970 C.3       4 GLC5        0.0000 
     41 CA         -2.2780   -6.4310   12.0750 C.3       8 GLP5        0.0000 
     42 CA         -3.2735   -5.3590   13.3185 C.3       4 GLC5        0.0000 
     43 CA         -4.2690   -4.2870   14.5620 C.3      12 GLL5        0.0000 
     44 CA         -2.8925    0.3060   15.2615 C.3       4 GLC5        0.0000 
     45 CA         -1.0740   -0.8870   14.2220 C.3      12 GLL5        0.0000 
     46 CA         -4.5470    0.7760   16.5070 C.3       8 GLP5        0.0000 
     47 CA         -1.5920   -3.5415   11.9115 C.3       4 GLC5        0.0000 
     48 CA         -1.0850   -1.8640   13.0470 C.3      12 GLL5        0.0000 
     49 CA         -2.0130   -4.5580   10.4110 C.3       8 GLP5        0.0000 
     50 CA         -1.3857   -3.2995   16.2310 C.3       4 GLC5        0.0000 
     51 CA         -1.2570   -3.1860   13.7770 C.3      12 GLL5        0.0000 
     52 CA         -1.0100   -3.5950   18.1390 C.3       8 GLP5        0.0000 
     53 CA         -4.9385   -2.9065   15.7517 C.3       4 GLC5        0.0000 
     54 CA         -6.9295   -4.8540   15.5270 C.3       4 GLC5        0.0000 
@<TRIPOS>BOND
@<TRIPOS>SUBSTRUCTURE
     1 ALC1       17 GROUP        1 X    ALC  0     ROOT ALC X 1
     2 SEC2        1 GROUP        1 X    SEC  0     **** SEC X 2
     3 LYC4        4 GROUP        1 X    LYC  0     **** LYC X 4
     4 GLC5       20 GROUP        1 X    GLC  0     **** GLC X 6
     5 ALP1       19 GROUP        1 Y    ALP  0     ROOT ALP Y 8
     6 SEP2        3 GROUP        1 Y    SEP  0     **** SEP Y 9
     7 LYP4        6 GROUP        1 Y    LYP  0     **** LYP Y 11
     8 GLP5       22 GROUP        1 Y    GLP  0     **** GLP Y 13
     9 ALL1       18 GROUP        1 Z    ALL  0     ROOT ALL Z 15
    10 SEL2        2 GROUP        1 Z    SEL  0     **** SEL Z 16
    11 LYL4        5 GROUP        1 Z    LYL  0     **** LYL Z 18
    12 GLL5       21 GROUP        1 Z    GLL  0     **** GLL Z 20
@<TRIPOS>SET

