#    Name: 4ifc_ADP_1_ligand
#    Modification time : Tue Mar 25 03:54:31 2014

@<TRIPOS>MOLECULE
4ifc_ADP_1_ligand
   39    41     1     0     0
SMALL
NO_CHARGES


@<TRIPOS>ATOM
      1 PB         -2.8440    4.6320   12.8570 P.3       1 ADP1101     0.0000 
      2 O1B        -3.1600    5.7010   13.9860 O.co2     1 ADP1101     0.0000 
      3 O2B        -3.4410    5.0280   11.5680 O.co2     1 ADP1101     0.0000 
      4 O3B        -1.2470    4.5380   12.8010 O.co2     1 ADP1101     0.0000 
      5 PA         -3.2570    1.8810   12.4650 P.3       1 ADP1101     0.0000 
      6 O1A        -2.0510    2.0920   11.4110 O.co2     1 ADP1101     0.0000 
      7 O2A        -4.5370    1.5680   11.7920 O.co2     1 ADP1101     0.0000 
      8 O3A        -3.3370    3.2010   13.4010 O.3       1 ADP1101     0.0000 
      9 O5'        -2.7800    0.6950   13.4420 O.3       1 ADP1101     0.0000 
     10 C5'        -1.4020    0.5590   13.8100 C.3       1 ADP1101     0.0000 
     11 C4'        -1.0740   -0.8870   14.2220 C.3       1 ADP1101     0.0000 
     12 O4'        -2.0780   -1.4040   15.1470 O.3       1 ADP1101     0.0000 
     13 C3'        -1.0850   -1.8640   13.0470 C.3       1 ADP1101     0.0000 
     14 O3'         0.1650   -1.8390   12.3450 O.3       1 ADP1101     0.0000 
     15 C2'        -1.2570   -3.1860   13.7770 C.3       1 ADP1101     0.0000 
     16 O2'        -0.0180   -3.5860   14.3790 O.3       1 ADP1101     0.0000 
     17 C1'        -2.2660   -2.8220   14.8690 C.3       1 ADP1101     0.0000 
     18 N9         -3.6200   -3.1490   14.3470 N.pl3     1 ADP1101     0.0000 
     19 C8         -4.3870   -2.3780   13.5720 C.2       1 ADP1101     0.0000 
     20 N7         -5.5260   -3.0180   13.2960 N.2       1 ADP1101     0.0000 
     21 C5         -5.4830   -4.2050   13.8950 C.ar      1 ADP1101     0.0000 
     22 C6         -6.3510   -5.2930   13.9730 C.ar      1 ADP1101     0.0000 
     23 N6         -7.5260   -5.2740   13.3600 N.pl3     1 ADP1101     0.0000 
     24 N1         -5.9860   -6.3770   14.6850 N.ar      1 ADP1101     0.0000 
     25 C2         -4.8190   -6.4160   15.3190 C.ar      1 ADP1101     0.0000 
     26 N3         -3.9650   -5.3990   15.2600 N.ar      1 ADP1101     0.0000 
     27 C4         -4.2690   -4.2870   14.5620 C.ar      1 ADP1101     0.0000 
     28 H          -1.1419    1.2103   14.6586 H         1 ADP1101     0.0000 
     29 H          -0.7313    0.8247   12.9785 H         1 ADP1101     0.0000 
     30 H          -0.1049   -0.9207   14.6801 H         1 ADP1101     0.0000 
     31 H          -1.9276   -1.6840   12.4637 H         1 ADP1101     0.0000 
     32 H          -1.6826   -3.8854   13.1388 H         1 ADP1101     0.0000 
     33 H          -2.0386   -3.4196   15.7240 H         1 ADP1101     0.0000 
     34 H          -4.1511   -1.4834   13.2557 H         1 ADP1101     0.0000 
     35 H          -7.7169   -4.4682   12.7994 H         1 ADP1101     0.0000 
     36 H          -8.1153   -6.0672   13.5136 H         1 ADP1101     0.0000 
     37 H          -4.5638   -7.2743   15.8827 H         1 ADP1101     0.0000 
     38 H          -0.0033   -1.2744   11.5370 H         1 ADP1101     0.0000 
     39 H           0.2741   -2.7965   14.9187 H         1 ADP1101     0.0000 
@<TRIPOS>BOND
     1    2    1 ar   
     2    3    1 ar   
     3    4    1 ar   
     4    8    1 1    
     5    6    5 ar   
     6    7    5 ar   
     7    8    5 1    
     8    9    5 1    
     9   10    9 1    
    10   11   10 1    
    11   28   10 1    
    12   29   10 1    
    13   12   11 1    
    14   13   11 1    
    15   30   11 1    
    16   17   12 1    
    17   14   13 1    
    18   15   13 1    
    19   31   13 1    
    20   38   14 1    
    21   16   15 1    
    22   17   15 1    
    23   32   15 1    
    24   39   16 1    
    25   18   17 1    
    26   33   17 1    
    27   19   18 1    
    28   27   18 1    
    29   20   19 2    
    30   34   19 1    
    31   21   20 1    
    32   22   21 ar   
    33   27   21 ar   
    34   23   22 1    
    35   24   22 ar   
    36   35   23 1    
    37   36   23 1    
    38   25   24 ar   
    39   26   25 ar   
    40   37   25 1    
    41   27   26 ar   
@<TRIPOS>SUBSTRUCTURE
     1 ADP1101     1 GROUP   
@<TRIPOS>SET

