#    Name: 3d64_NAD_1_INTS_M
#    Modification time : Mon Mar 24 22:46:29 2014

@<TRIPOS>MOLECULE
3d64_NAD_1_INTS_M
   91     0     9     0     0
SMALL
NO_CHARGES


@<TRIPOS>ATOM
      1 N          86.0005  -14.2080    1.3050 N.am      2 SEC2        0.0000 
      2 N          86.1160  -15.4050    1.8220 N.am      8 SEL2        0.0000 
      3 N          85.8850  -13.0110    0.7880 N.am      5 SEP2        0.0000 
      4 CA         91.2045  -13.9715    5.2950 C.3       3 GLC5        0.0000 
      5 CA         90.5250  -14.7250    3.4630 C.3       9 GLL5        0.0000 
      6 CA         91.8840  -13.2180    7.1270 C.3       6 GLP5        0.0000 
      7 N          90.3870  -12.7210    0.6045 N.am      2 SEC2        0.0000 
      8 N          90.1920  -12.8180    2.0470 N.am      8 SEL2        0.0000 
      9 N          90.5820  -12.6240   -0.8380 N.am      5 SEP2        0.0000 
     10 O          90.8735  -12.0255    2.9280 O.2       1 ALC1        0.0000 
     11 O          90.1920  -12.8180    2.0470 O.2       7 ALL1        0.0000 
     12 O          91.5550  -11.2330    3.8090 O.2       4 ALP1        0.0000 
     13 CA         94.0410  -13.7550    0.7295 C.3       3 GLC5        0.0000 
     14 CA         92.2270  -14.1900    1.8320 C.3       9 GLL5        0.0000 
     15 CA         95.8550  -13.3200   -0.3730 C.3       6 GLP5        0.0000 
     16 N          91.6465  -12.8190    0.1860 N.am      2 SEC2        0.0000 
     17 N          92.7110  -13.0140    1.2100 N.am      8 SEL2        0.0000 
     18 O          93.0855  -12.0295    2.0040 O.2       1 ALC1        0.0000 
     19 O          92.7110  -13.0140    1.2100 O.2       7 ALL1        0.0000 
     20 O          93.4600  -11.0450    2.7980 O.2       4 ALP1        0.0000 
     21 O          92.1330  -12.1235    2.5095 O.2       1 ALC1        0.0000 
     22 CA         92.3290  -13.8020    5.1785 C.3       3 GLC5        0.0000 
     23 CA         92.7740  -14.3860    3.2300 C.3       9 GLL5        0.0000 
     24 CA         94.5930  -13.8530    2.1425 C.3       3 GLC5        0.0000 
     25 CA         96.4120  -13.3200    1.0550 C.3       6 GLP5        0.0000 
     26 CA         92.4965  -16.0425    4.6595 C.3       3 GLC5        0.0000 
     27 CA         92.2190  -17.6990    6.0890 C.3       6 GLP5        0.0000 
     28 N          96.3115  -17.7160    2.4285 N.am      2 SEC2        0.0000 
     29 N          95.7260  -16.4860    2.9910 N.am      8 SEL2        0.0000 
     30 N          96.8970  -18.9460    1.8660 N.am      5 SEP2        0.0000 
     31 CA         94.9260  -16.6245    5.0335 C.3       3 GLC5        0.0000 
     32 CA         96.1030  -15.6180    3.9380 C.3       9 GLL5        0.0000 
     33 CA         93.7490  -17.6310    6.1290 C.3       6 GLP5        0.0000 
     34 CA         96.0065  -17.8240    3.8710 C.3       3 GLC5        0.0000 
     35 CA         95.9100  -20.0300    3.8040 C.3       6 GLP5        0.0000 
     36 CA         97.8965  -14.2115    3.5075 C.3       3 GLC5        0.0000 
     37 CA         97.2620  -15.4890    4.6550 C.3       9 GLL5        0.0000 
     38 CA         98.5310  -12.9340    2.3600 C.3       6 GLP5        0.0000 
     39 CA         95.7605  -16.0350    5.8910 C.3       3 GLC5        0.0000 
     40 CA         94.2590  -16.5810    7.1270 C.3       6 GLP5        0.0000 
     41 CA         97.4130  -17.1245    5.8200 C.3       3 GLC5        0.0000 
     42 CA         97.5640  -18.7600    6.9850 C.3       6 GLP5        0.0000 
     43 CA         96.7575  -12.1965    7.4215 C.3       3 GLC5        0.0000 
     44 CA         96.2990  -13.5780    5.7520 C.3       9 GLL5        0.0000 
     45 CA         97.2160  -10.8150    9.0910 C.3       6 GLP5        0.0000 
     46 CA         95.9105  -11.8425    5.3405 C.3       3 GLC5        0.0000 
     47 CA         95.5220  -10.1070    4.9290 C.3       6 GLP5        0.0000 
     48 CA         97.4150  -13.2560    4.0560 C.3       3 GLC5        0.0000 
     49 CA         95.2790  -15.0795    6.4395 C.3       3 GLC5        0.0000 
     50 CA         94.6590  -15.6505    5.6310 C.3       3 GLC5        0.0000 
     51 CA         95.0590  -14.7200    4.1350 C.3       9 GLL5        0.0000 
     52 N          85.1875  -15.7275    6.0320 N.am      2 SEC2        0.0000 
     53 N          86.0710  -16.4060    5.0780 N.am      8 SEL2        0.0000 
     54 N          84.3040  -15.0490    6.9860 N.am      5 SEP2        0.0000 
     55 CA         85.9040  -18.5125    6.5260 C.3       3 GLC5        0.0000 
     56 CA         87.5060  -19.0150    5.3240 C.3       9 GLL5        0.0000 
     57 CA         84.3020  -18.0100    7.7280 C.3       6 GLP5        0.0000 
     58 CA         88.2280  -20.9165    7.5380 C.3       3 GLC5        0.0000 
     59 CA         87.6210  -20.4520    5.8080 C.3       9 GLL5        0.0000 
     60 CA         88.8350  -21.3810    9.2680 C.3       6 GLP5        0.0000 
     61 CA         85.1120  -19.9205    7.1330 C.3       3 GLC5        0.0000 
     62 CA         85.9220  -21.8310    6.5380 C.3       9 GLL5        0.0000 
     63 CA         87.3785  -21.6060    7.9030 C.3       3 GLC5        0.0000 
     64 CA         84.4320  -20.1385    8.0935 C.3       3 GLC5        0.0000 
     65 CA         84.5620  -22.2670    8.4590 C.3       9 GLL5        0.0000 
     66 CA         86.6985  -21.8240    8.8635 C.3       3 GLC5        0.0000 
     67 N          82.0945  -23.0075   12.5485 N.am      2 SEC2        0.0000 
     68 N          82.3780  -23.2710   11.2080 N.am      8 SEL2        0.0000 
     69 N          81.8110  -22.7440   13.8890 N.am      5 SEP2        0.0000 
     70 O          85.5680  -21.7135   11.0850 O.2       1 ALC1        0.0000 
     71 O          84.5700  -22.4920   11.3640 O.2       7 ALL1        0.0000 
     72 O          86.5660  -20.9350   10.8060 O.2       4 ALP1        0.0000 
     73 O          84.2575  -22.8700   12.8565 O.2       1 ALC1        0.0000 
     74 O          83.9450  -23.2480   14.3490 O.2       4 ALP1        0.0000 
     75 CA         81.2870  -19.6485    7.0505 C.3       3 GLC5        0.0000 
     76 CA         82.2450  -21.4480    7.2700 C.3       9 GLL5        0.0000 
     77 CA         80.3290  -17.8490    6.8310 C.3       6 GLP5        0.0000 
     78 CA         88.4555  -13.9698    3.7963 C.3       3 GLC5        0.0000 
     79 CA         89.5890  -15.9100    3.4020 C.3       9 GLL5        0.0000 
     80 CA         86.8540  -12.6220    4.1600 C.3       6 GLP5        0.0000 
     81 CA         91.1380  -16.5083    4.7607 C.3       3 GLC5        0.0000 
     82 CA         90.3208  -13.5917    0.4248 C.3       3 GLC5        0.0000 
     83 CA         90.7200  -14.1290    2.0770 C.3       9 GLL5        0.0000 
     84 CA         89.1680  -13.0240   -1.1050 C.3       6 GLP5        0.0000 
     85 CA         95.9965  -14.2445    2.5457 C.3       3 GLC5        0.0000 
     86 CA         89.4101  -20.8781    4.9040 C.3       3 GLC5        0.0000 
     87 CA         91.4030  -21.1530    4.6650 C.3       6 GLP5        0.0000 
     88 CA         82.4231  -20.4320    9.5753 C.3       3 GLC5        0.0000 
     89 CA         83.3910  -22.3240    9.1810 C.3       9 GLL5        0.0000 
     90 CA         82.3230  -19.0800   11.0740 C.3       6 GLP5        0.0000 
     91 CA         83.5743  -19.7185    7.3272 C.3       3 GLC5        0.0000 
@<TRIPOS>BOND
@<TRIPOS>SUBSTRUCTURE
     1 ALC1       10 GROUP        1 X    ALC  0     ROOT ALC X 1
     2 SEC2        1 GROUP        1 X    SEC  0     **** SEC X 2
     3 GLC5        4 GROUP        1 X    GLC  0     **** GLC X 6
     4 ALP1       12 GROUP        1 Y    ALP  0     ROOT ALP Y 8
     5 SEP2        3 GROUP        1 Y    SEP  0     **** SEP Y 9
     6 GLP5        6 GROUP        1 Y    GLP  0     **** GLP Y 13
     7 ALL1       11 GROUP        1 Z    ALL  0     ROOT ALL Z 15
     8 SEL2        2 GROUP        1 Z    SEL  0     **** SEL Z 16
     9 GLL5        5 GROUP        1 Z    GLL  0     **** GLL Z 20
@<TRIPOS>SET

