#    Name: 3d64_NAD_1_ligand
#    Modification time : Mon Mar 24 22:46:29 2014

@<TRIPOS>MOLECULE
3d64_NAD_1_ligand
   70    74     1     0     0
SMALL
NO_CHARGES


@<TRIPOS>ATOM
      1 PA         87.3010  -16.2070    2.1240 P.3       1 NAD601      0.0000 
      2 O1A        88.1110  -16.6620    0.9800 O.co2     1 NAD601      0.0000 
      3 O2A        86.1160  -15.4050    1.8220 O.co2     1 NAD601      0.0000 
      4 O5B        88.3150  -15.4200    3.0780 O.3       1 NAD601      0.0000 
      5 C5B        89.5890  -15.9100    3.4020 C.3       1 NAD601      0.0000 
      6 C4B        90.5250  -14.7250    3.4630 C.3       1 NAD601      0.0000 
      7 O4B        91.7900  -15.1010    3.9270 O.3       1 NAD601      0.0000 
      8 C3B        90.7200  -14.1290    2.0770 C.3       1 NAD601      0.0000 
      9 O3B        90.1920  -12.8180    2.0470 O.3       1 NAD601      0.0000 
     10 C2B        92.2270  -14.1900    1.8320 C.3       1 NAD601      0.0000 
     11 O2B        92.7110  -13.0140    1.2100 O.3       1 NAD601      0.0000 
     12 C1B        92.7740  -14.3860    3.2300 C.3       1 NAD601      0.0000 
     13 N9A        94.0480  -15.0960    3.2930 N.pl3     1 NAD601      0.0000 
     14 C8A        94.4710  -16.1980    2.5900 C.2       1 NAD601      0.0000 
     15 N7A        95.7260  -16.4860    2.9910 N.2       1 NAD601      0.0000 
     16 C5A        96.1030  -15.6180    3.9380 C.ar      1 NAD601      0.0000 
     17 C6A        97.2620  -15.4890    4.6550 C.ar      1 NAD601      0.0000 
     18 N6A        98.3220  -16.2770    4.3860 N.pl3     1 NAD601      0.0000 
     19 N1A        97.3450  -14.4550    5.5760 N.ar      1 NAD601      0.0000 
     20 C2A        96.2990  -13.5780    5.7520 C.ar      1 NAD601      0.0000 
     21 N3A        95.1360  -13.7100    5.0210 N.ar      1 NAD601      0.0000 
     22 C4A        95.0590  -14.7200    4.1350 C.ar      1 NAD601      0.0000 
     23 O3         86.7910  -17.5130    2.9200 O.3       1 NAD601      0.0000 
     24 PN         85.7230  -17.5180    4.1250 P.3       1 NAD601      0.0000 
     25 O1N        84.3900  -17.7540    3.6070 O.co2     1 NAD601      0.0000 
     26 O2N        86.0710  -16.4060    5.0780 O.co2     1 NAD601      0.0000 
     27 O5D        86.1920  -18.8730    4.8340 O.3       1 NAD601      0.0000 
     28 C5D        87.5060  -19.0150    5.3240 C.3       1 NAD601      0.0000 
     29 C4D        87.6210  -20.4520    5.8080 C.3       1 NAD601      0.0000 
     30 O4D        86.6950  -20.6770    6.8450 O.3       1 NAD601      0.0000 
     31 C3D        87.2710  -21.4730    4.7200 C.3       1 NAD601      0.0000 
     32 O3D        88.1090  -22.6150    4.8170 O.3       1 NAD601      0.0000 
     33 C2D        85.8830  -21.9180    5.0370 C.3       1 NAD601      0.0000 
     34 O2D        85.6780  -23.2270    4.5910 O.3       1 NAD601      0.0000 
     35 C1D        85.9220  -21.8310    6.5380 C.3       1 NAD601      0.0000 
     36 N1N        84.5870  -21.8330    7.1800 N.pl3     1 NAD601      0.0000 
     37 C2N        84.5620  -22.2670    8.4590 C.ar      1 NAD601      0.0000 
     38 C3N        83.3910  -22.3240    9.1810 C.ar      1 NAD601      0.0000 
     39 C7N        83.4790  -22.7020   10.6310 C.2       1 NAD601      0.0000 
     40 O7N        82.3780  -23.2710   11.2080 O.2       1 NAD601      0.0000 
     41 N7N        84.5700  -22.4920   11.3640 N.am      1 NAD601      0.0000 
     42 C4N        82.2120  -21.9160    8.5850 C.ar      1 NAD601      0.0000 
     43 C5N        82.2450  -21.4480    7.2700 C.ar      1 NAD601      0.0000 
     44 C6N        83.4480  -21.4060    6.5830 C.ar      1 NAD601      0.0000 
     45 H          89.9715  -16.6030    2.6508 H         1 NAD601      0.0000 
     46 H          89.6091  -16.4055    4.3741 H         1 NAD601      0.0000 
     47 H          90.0831  -13.9614    4.0857 H         1 NAD601      0.0000 
     48 H          90.2435  -14.7928    1.3773 H         1 NAD601      0.0000 
     49 H          92.4200  -15.0864    1.2768 H         1 NAD601      0.0000 
     50 H          92.8807  -13.3905    3.6751 H         1 NAD601      0.0000 
     51 H          93.9551  -16.6676    1.9347 H         1 NAD601      0.0000 
     52 H          98.1916  -16.9597    3.6670 H         1 NAD601      0.0000 
     53 H          99.1445  -16.1088    4.9293 H         1 NAD601      0.0000 
     54 H          96.3843  -12.8077    6.4423 H         1 NAD601      0.0000 
     55 H          87.7083  -18.3615    6.1654 H         1 NAD601      0.0000 
     56 H          88.2549  -18.8600    4.5552 H         1 NAD601      0.0000 
     57 H          88.6237  -20.6427    6.1341 H         1 NAD601      0.0000 
     58 H          87.2908  -21.0069    3.7848 H         1 NAD601      0.0000 
     59 H          85.2076  -21.2011    4.6741 H         1 NAD601      0.0000 
     60 H          86.4829  -22.7277    6.8836 H         1 NAD601      0.0000 
     61 H          85.4517  -22.5709    8.9242 H         1 NAD601      0.0000 
     62 H          85.3309  -22.0380   10.9004 H         1 NAD601      0.0000 
     63 H          84.5304  -22.8071   12.3122 H         1 NAD601      0.0000 
     64 H          81.3269  -21.9540    9.0939 H         1 NAD601      0.0000 
     65 H          81.3775  -21.1367    6.8169 H         1 NAD601      0.0000 
     66 H          83.4618  -21.0452    5.6121 H         1 NAD601      0.0000 
     67 H          90.7382  -12.3040    2.7084 H         1 NAD601      0.0000 
     68 H          92.9798  -12.4145    1.9639 H         1 NAD601      0.0000 
     69 H          87.4819  -23.3911    4.8829 H         1 NAD601      0.0000 
     70 H          85.4450  -23.7469    5.4129 H         1 NAD601      0.0000 
@<TRIPOS>BOND
     1    2    1 ar   
     2    3    1 ar   
     3    4    1 1    
     4   23    1 1    
     5    5    4 1    
     6    6    5 1    
     7   45    5 1    
     8   46    5 1    
     9    7    6 1    
    10    8    6 1    
    11   47    6 1    
    12   12    7 1    
    13    9    8 1    
    14   10    8 1    
    15   48    8 1    
    16   67    9 1    
    17   11   10 1    
    18   12   10 1    
    19   49   10 1    
    20   68   11 1    
    21   13   12 1    
    22   50   12 1    
    23   14   13 1    
    24   22   13 1    
    25   15   14 2    
    26   51   14 1    
    27   16   15 1    
    28   17   16 ar   
    29   22   16 ar   
    30   18   17 1    
    31   19   17 ar   
    32   52   18 1    
    33   53   18 1    
    34   20   19 ar   
    35   21   20 ar   
    36   54   20 1    
    37   22   21 ar   
    38   24   23 1    
    39   25   24 ar   
    40   26   24 ar   
    41   27   24 1    
    42   28   27 1    
    43   29   28 1    
    44   55   28 1    
    45   56   28 1    
    46   30   29 1    
    47   31   29 1    
    48   57   29 1    
    49   35   30 1    
    50   32   31 1    
    51   33   31 1    
    52   58   31 1    
    53   69   32 1    
    54   34   33 1    
    55   35   33 1    
    56   59   33 1    
    57   70   34 1    
    58   36   35 1    
    59   60   35 1    
    60   37   36 ar   
    61   44   36 ar   
    62   38   37 ar   
    63   61   37 1    
    64   39   38 1    
    65   42   38 ar   
    66   40   39 2    
    67   41   39 am   
    68   62   41 1    
    69   63   41 1    
    70   43   42 ar   
    71   64   42 1    
    72   44   43 ar   
    73   65   43 1    
    74   66   44 1    
@<TRIPOS>SUBSTRUCTURE
     1 NAD601      1 GROUP   
@<TRIPOS>SET

