#    Name: 4epm_AMP_1_INTS_M
#    Modification time : Mon Mar 24 18:23:13 2014

@<TRIPOS>MOLECULE
4epm_AMP_1_INTS_M
   61     0     9     0     0
SMALL
NO_CHARGES


@<TRIPOS>ATOM
      1 N         -19.7330   33.1025  -22.7135 N.am      2 SEC2        0.0000 
      2 N         -20.6610   32.7850  -23.6280 N.am      8 SEL2        0.0000 
      3 N         -18.8050   33.4200  -21.7990 N.am      5 SEP2        0.0000 
      4 N         -21.0535   33.4260  -25.1075 N.am      2 SEC2        0.0000 
      5 N         -21.4460   34.0670  -26.5870 N.am      5 SEP2        0.0000 
      6 N         -20.8185   34.2325  -23.8370 N.am      2 SEC2        0.0000 
      7 N         -20.9760   35.6800  -24.0460 N.am      5 SEP2        0.0000 
      8 N         -21.6020   32.9470  -20.7550 N.am      2 SEC2        0.0000 
      9 N         -22.3840   32.5420  -21.8280 N.am      8 SEL2        0.0000 
     10 N         -20.8200   33.3520  -19.6820 N.am      5 SEP2        0.0000 
     11 N         -22.0235   31.5470  -20.8610 N.am      2 SEC2        0.0000 
     12 N         -21.6630   30.5520  -19.8940 N.am      5 SEP2        0.0000 
     13 N         -21.8750   30.6490  -21.5880 N.am      2 SEC2        0.0000 
     14 N         -22.0870   30.7460  -23.2820 N.am      8 SEL2        0.0000 
     15 CA        -22.5515   31.1310  -25.9725 C.3       3 GLC5        0.0000 
     16 CA        -22.4420   30.0420  -24.4490 C.3       9 GLL5        0.0000 
     17 CA        -22.6610   32.2200  -27.4960 C.3       6 GLP5        0.0000 
     18 CA        -22.2340   27.7340  -22.3405 C.3       3 GLC5        0.0000 
     19 CA        -22.2190   28.5690  -24.2930 C.3       9 GLL5        0.0000 
     20 CA        -22.2490   26.8990  -20.3880 C.3       6 GLP5        0.0000 
     21 CA        -21.6615   29.6445  -26.7135 C.3       3 GLC5        0.0000 
     22 CA        -21.9460   27.8160  -25.5790 C.3       9 GLL5        0.0000 
     23 CA        -21.3770   31.4730  -27.8480 C.3       6 GLP5        0.0000 
     24 O         -20.3690   27.0740  -26.7910 O.2       1 ALC1        0.0000 
     25 O         -20.6080   27.9500  -26.0230 O.2       7 ALL1        0.0000 
     26 O         -20.1300   26.1980  -27.5590 O.2       4 ALP1        0.0000 
     27 CA        -22.2050   24.8720  -26.0625 C.3       3 GLC5        0.0000 
     28 CA        -22.3430   26.3950  -25.2140 C.3       9 GLL5        0.0000 
     29 CA        -22.0670   23.3490  -26.9110 C.3       6 GLP5        0.0000 
     30 O         -20.2160   25.5055  -25.1505 O.2       1 ALC1        0.0000 
     31 O         -21.3380   25.7820  -24.4240 O.2       7 ALL1        0.0000 
     32 O         -19.0940   25.2290  -25.8770 O.2       4 ALP1        0.0000 
     33 O         -20.7340   25.9900  -25.9915 O.2       1 ALC1        0.0000 
     34 CA        -22.7785   24.7010  -24.9970 C.3       3 GLC5        0.0000 
     35 CA        -23.5720   26.6570  -24.3320 C.3       9 GLL5        0.0000 
     36 CA        -21.9850   22.7450  -25.6620 C.3       6 GLP5        0.0000 
     37 CA        -22.9105   26.7780  -22.3600 C.3       3 GLC5        0.0000 
     38 O         -29.1490   26.3300  -28.3480 O.2       1 ALC1        0.0000 
     39 O         -28.5040   25.2900  -27.6480 O.2       7 ALL1        0.0000 
     40 O         -29.7940   27.3700  -29.0480 O.2       4 ALP1        0.0000 
     41 O         -29.3810   24.1855  -28.2890 O.2       1 ALC1        0.0000 
     42 O         -30.2580   23.0810  -28.9300 O.2       4 ALP1        0.0000 
     43 N         -28.0335   22.7540  -26.7620 N.am      2 SEC2        0.0000 
     44 N         -27.1830   23.6600  -26.5580 N.am      8 SEL2        0.0000 
     45 N         -28.8840   21.8480  -26.9660 N.am      5 SEP2        0.0000 
     46 CA        -28.2155   23.8115  -25.3180 C.3       3 GLC5        0.0000 
     47 CA        -26.1270   23.3180  -25.7930 C.3       9 GLL5        0.0000 
     48 CA        -30.3040   24.3050  -24.8430 C.3       6 GLP5        0.0000 
     49 CA        -27.5015   21.8710  -26.3130 C.3       3 GLC5        0.0000 
     50 CA        -28.8760   20.4240  -26.8330 C.3       6 GLP5        0.0000 
     51 CA        -25.9195   21.6270  -24.8180 C.3       3 GLC5        0.0000 
     52 CA        -25.7120   19.9360  -23.8430 C.3       6 GLP5        0.0000 
     53 CA        -25.3025   22.1785  -27.2465 C.3       3 GLC5        0.0000 
     54 CA        -24.4780   21.0390  -28.7000 C.3       6 GLP5        0.0000 
     55 CA        -22.7372   26.6662  -27.3087 C.3       3 GLC5        0.0000 
     56 CA        -23.3300   26.2270  -29.2210 C.3       6 GLP5        0.0000 
     57 CA        -28.6545   24.8908  -25.7220 C.3       3 GLC5        0.0000 
     58 CA        -26.5580   26.0010  -26.3300 C.3       9 GLL5        0.0000 
     59 CA        -27.1945   26.5153  -28.4865 C.3       3 GLC5        0.0000 
     60 CA        -27.4520   24.9520  -26.8720 C.3       9 GLL5        0.0000 
     61 CA        -27.3840   27.5540  -30.3720 C.3       6 GLP5        0.0000 
@<TRIPOS>BOND
@<TRIPOS>SUBSTRUCTURE
     1 ALC1       24 GROUP        1 X    ALC  0     ROOT ALC X 1
     2 SEC2        1 GROUP        1 X    SEC  0     **** SEC X 2
     3 GLC5       15 GROUP        1 X    GLC  0     **** GLC X 6
     4 ALP1       26 GROUP        1 Y    ALP  0     ROOT ALP Y 8
     5 SEP2        3 GROUP        1 Y    SEP  0     **** SEP Y 9
     6 GLP5       17 GROUP        1 Y    GLP  0     **** GLP Y 13
     7 ALL1       25 GROUP        1 Z    ALL  0     ROOT ALL Z 15
     8 SEL2        2 GROUP        1 Z    SEL  0     **** SEL Z 16
     9 GLL5       16 GROUP        1 Z    GLL  0     **** GLL Z 20
@<TRIPOS>SET

