#    Name: 4epm_AMP_1_ligand
#    Modification time : Mon Mar 24 18:23:13 2014

@<TRIPOS>MOLECULE
4epm_AMP_1_ligand
   35    37     1     0     0
SMALL
NO_CHARGES


@<TRIPOS>ATOM
      1 P         -22.0530   32.3240  -23.2900 P.3       1 AMP601      0.0000 
      2 O1P       -23.1960   32.8430  -24.1270 O.co2     1 AMP601      0.0000 
      3 O2P       -20.6610   32.7850  -23.6280 O.co2     1 AMP601      0.0000 
      4 O3P       -22.3840   32.5420  -21.8280 O.co2     1 AMP601      0.0000 
      5 O5'       -22.0870   30.7460  -23.2820 O.3       1 AMP601      0.0000 
      6 C5'       -22.4420   30.0420  -24.4490 C.3       1 AMP601      0.0000 
      7 C4'       -22.2190   28.5690  -24.2930 C.3       1 AMP601      0.0000 
      8 O4'       -23.4220   27.9450  -23.7700 O.3       1 AMP601      0.0000 
      9 C3'       -21.9460   27.8160  -25.5790 C.3       1 AMP601      0.0000 
     10 O3'       -20.6080   27.9500  -26.0230 O.3       1 AMP601      0.0000 
     11 C2'       -22.3430   26.3950  -25.2140 C.3       1 AMP601      0.0000 
     12 O2'       -21.3380   25.7820  -24.4240 O.3       1 AMP601      0.0000 
     13 C1'       -23.5720   26.6570  -24.3320 C.3       1 AMP601      0.0000 
     14 N9        -24.8000   26.6470  -25.1360 N.pl3     1 AMP601      0.0000 
     15 C8        -25.4020   27.7250  -25.6770 C.2       1 AMP601      0.0000 
     16 N7        -26.4800   27.3460  -26.3980 N.2       1 AMP601      0.0000 
     17 C5        -26.5580   26.0010  -26.3300 C.ar      1 AMP601      0.0000 
     18 C6        -27.4520   24.9520  -26.8720 C.ar      1 AMP601      0.0000 
     19 N6        -28.5040   25.2900  -27.6480 N.pl3     1 AMP601      0.0000 
     20 N1        -27.1830   23.6600  -26.5580 N.ar      1 AMP601      0.0000 
     21 C2        -26.1270   23.3180  -25.7930 C.ar      1 AMP601      0.0000 
     22 N3        -25.2670   24.2120  -25.2660 N.ar      1 AMP601      0.0000 
     23 C4        -25.4400   25.5440  -25.5000 C.ar      1 AMP601      0.0000 
     24 H         -21.8560   30.3854  -25.3259 H         1 AMP601      0.0000 
     25 H         -23.5079   30.2004  -24.7118 H         1 AMP601      0.0000 
     26 H         -21.4052   28.3809  -23.6103 H         1 AMP601      0.0000 
     27 H         -22.6742   28.1678  -26.3045 H         1 AMP601      0.0000 
     28 H         -22.6379   25.8828  -26.0576 H         1 AMP601      0.0000 
     29 H         -23.6090   25.9026  -23.5788 H         1 AMP601      0.0000 
     30 H         -25.1030   28.6487  -25.5649 H         1 AMP601      0.0000 
     31 H         -29.0443   24.5312  -28.0117 H         1 AMP601      0.0000 
     32 H         -28.6494   26.2691  -27.7901 H         1 AMP601      0.0000 
     33 H         -25.9631   22.2825  -25.5938 H         1 AMP601      0.0000 
     34 H         -20.6079   27.5903  -26.9561 H         1 AMP601      0.0000 
     35 H         -20.5813   25.6110  -25.0550 H         1 AMP601      0.0000 
@<TRIPOS>BOND
     1    2    1 ar   
     2    3    1 ar   
     3    4    1 ar   
     4    5    1 1    
     5    6    5 1    
     6    7    6 1    
     7   24    6 1    
     8   25    6 1    
     9    8    7 1    
    10    9    7 1    
    11   26    7 1    
    12   13    8 1    
    13   10    9 1    
    14   11    9 1    
    15   27    9 1    
    16   34   10 1    
    17   12   11 1    
    18   13   11 1    
    19   28   11 1    
    20   35   12 1    
    21   14   13 1    
    22   29   13 1    
    23   15   14 1    
    24   23   14 1    
    25   16   15 2    
    26   30   15 1    
    27   17   16 1    
    28   18   17 ar   
    29   23   17 ar   
    30   19   18 1    
    31   20   18 ar   
    32   31   19 1    
    33   32   19 1    
    34   21   20 ar   
    35   22   21 ar   
    36   33   21 1    
    37   23   22 ar   
@<TRIPOS>SUBSTRUCTURE
     1 AMP601      1 GROUP   
@<TRIPOS>SET

