#    Name: 4ek4_1CK_1_INTS_M
#    Modification time : Mon Mar 24 18:06:38 2014

@<TRIPOS>MOLECULE
4ek4_1CK_1_INTS_M
   40     0     9     0     0
SMALL
NO_CHARGES


@<TRIPOS>ATOM
      1 N          -2.9085   -3.4275   30.3020 N.am      2 SEC2        0.0000 
      2 N          -1.8650   -4.2850   29.7160 N.am      8 SEL2        0.0000 
      3 N          -3.9520   -2.5700   30.8880 N.am      5 SEP2        0.0000 
      4 O          -3.9905   -5.6950   30.2730 O.2       1 ALC1        0.0000 
      5 O          -2.8640   -6.3850   29.7000 O.2       7 ALL1        0.0000 
      6 O          -5.1170   -5.0050   30.8460 O.2       4 ALP1        0.0000 
      7 O          -0.5840   -2.3965   29.6715 O.2       1 ALC1        0.0000 
      8 O          -0.7980   -3.6980   29.1830 O.2       7 ALL1        0.0000 
      9 O          -0.3700   -1.0950   30.1600 O.2       4 ALP1        0.0000 
     10 CA          2.4925   -5.3180   27.2850 C.3       3 GLC5        0.0000 
     11 CA          1.2300   -4.1860   27.7680 C.3       9 GLL5        0.0000 
     12 CA          3.7550   -6.4500   26.8020 C.3       6 GLP5        0.0000 
     13 CA          0.6340   -2.2215   27.2555 C.3       3 GLC5        0.0000 
     14 CA          0.0380   -0.2570   26.7430 C.3       6 GLP5        0.0000 
     15 CA          2.1685   -2.7785   28.5030 C.3       3 GLC5        0.0000 
     16 CA          3.1070   -1.3710   29.2380 C.3       6 GLP5        0.0000 
     17 CA         -7.8945  -11.9695   29.3535 C.3       3 GLC5        0.0000 
     18 CA         -7.9160  -10.8760   31.2190 C.3       9 GLL5        0.0000 
     19 CA         -7.8730  -13.0630   27.4880 C.3       6 GLP5        0.0000 
     20 CA         -6.9840  -11.5045   28.3800 C.3       3 GLC5        0.0000 
     21 CA         -6.0950   -9.9460   29.2720 C.3       9 GLL5        0.0000 
     22 CA         -5.4835   -8.9665   26.6905 C.3       3 GLC5        0.0000 
     23 CA         -5.0030   -9.2060   28.7980 C.3       9 GLL5        0.0000 
     24 CA         -5.9640   -8.7270   24.5830 C.3       6 GLP5        0.0000 
     25 CA         -3.4140   -9.5847   30.9592 C.3       3 GLC5        0.0000 
     26 CA         -5.7070   -9.0320   31.4960 C.3       9 GLL5        0.0000 
     27 CA         -1.6650  -10.5020   30.6720 C.3       6 GLP5        0.0000 
     28 CA         -6.4640   -6.9913   31.4573 C.3       3 GLC5        0.0000 
     29 CA         -4.6190   -8.3030   30.9970 C.3       9 GLL5        0.0000 
     30 CA         -7.7650   -5.3150   31.6680 C.3       6 GLP5        0.0000 
     31 CA         -3.1458   -9.6402   29.9480 C.3       3 GLC5        0.0000 
     32 CA         -4.2500   -8.3510   29.6500 C.3       9 GLL5        0.0000 
     33 CA          0.6938   -4.8141   29.9309 C.3       3 GLC5        0.0000 
     34 CA         -0.7460   -5.7410   28.5340 C.3       9 GLL5        0.0000 
     35 CA          1.4730   -4.5730   31.5320 C.3       6 GLP5        0.0000 
     36 CA         -1.3148   -4.5641   27.2724 C.3       3 GLC5        0.0000 
     37 CA         -0.0800   -4.5530   28.4830 C.3       9 GLL5        0.0000 
     38 CA         -2.5440   -4.0730   26.2150 C.3       6 GLP5        0.0000 
     39 CA         -7.3025   -8.4595   29.1182 C.3       3 GLC5        0.0000 
     40 CA         -8.6090   -7.1970   28.4050 C.3       6 GLP5        0.0000 
@<TRIPOS>BOND
@<TRIPOS>SUBSTRUCTURE
     1 ALC1        4 GROUP        1 X    ALC  0     ROOT ALC X 1
     2 SEC2        1 GROUP        1 X    SEC  0     **** SEC X 2
     3 GLC5       10 GROUP        1 X    GLC  0     **** GLC X 6
     4 ALP1        6 GROUP        1 Y    ALP  0     ROOT ALP Y 8
     5 SEP2        3 GROUP        1 Y    SEP  0     **** SEP Y 9
     6 GLP5       12 GROUP        1 Y    GLP  0     **** GLP Y 13
     7 ALL1        5 GROUP        1 Z    ALL  0     ROOT ALL Z 15
     8 SEL2        2 GROUP        1 Z    SEL  0     **** SEL Z 16
     9 GLL5       11 GROUP        1 Z    GLL  0     **** GLL Z 20
@<TRIPOS>SET

