#    Name: 4ek4_1CK_1_ligand
#    Modification time : Mon Mar 24 18:06:38 2014

@<TRIPOS>MOLECULE
4ek4_1CK_1_ligand
   26    27     1     0     0
SMALL
NO_CHARGES


@<TRIPOS>ATOM
      1 N1I        -1.8650   -4.2850   29.7160 N.2       1 1CK301      0.0000 
      2 N1J        -2.8640   -6.3850   29.7000 N.am      1 1CK301      0.0000 
      3 N1K        -0.7980   -3.6980   29.1830 N.pl3     1 1CK301      0.0000 
      4 CAA         1.2300   -4.1860   27.7680 C.3       1 1CK301      0.0000 
      5 OAB        -2.4320   -8.0900   28.2790 O.2       1 1CK301      0.0000 
      6 BRAC       -7.9160  -10.8760   31.2190 Br        1 1CK301      0.0000 
      7 CAD        -6.0950   -9.9460   29.2720 C.ar      1 1CK301      0.0000 
      8 CAE        -5.7070   -9.0320   31.4960 C.ar      1 1CK301      0.0000 
      9 CAF        -5.0030   -9.2060   28.7980 C.ar      1 1CK301      0.0000 
     10 CAG        -4.6190   -8.3030   30.9970 C.ar      1 1CK301      0.0000 
     11 CAH        -0.7460   -5.7410   28.5340 C.2       1 1CK301      0.0000 
     12 CAL        -3.1320   -7.6050   29.1650 C.2       1 1CK301      0.0000 
     13 CAM        -0.0800   -4.5530   28.4830 C.2       1 1CK301      0.0000 
     14 CAN        -6.4430   -9.8680   30.6280 C.ar      1 1CK301      0.0000 
     15 CAO        -4.2500   -8.3510   29.6500 C.ar      1 1CK301      0.0000 
     16 CAP        -1.8480   -5.5500   29.3130 C.2       1 1CK301      0.0000 
     17 H          -3.5010   -6.0407   30.4956 H         1 1CK301      0.0000 
     18 H          -0.5757   -2.7363   29.3012 H         1 1CK301      0.0000 
     19 H          -6.6320  -10.5362   28.6361 H         1 1CK301      0.0000 
     20 H          -5.9694   -8.9624   32.4792 H         1 1CK301      0.0000 
     21 H          -4.7301   -9.2774   27.8032 H         1 1CK301      0.0000 
     22 H          -4.0706   -7.7087   31.6504 H         1 1CK301      0.0000 
     23 H          -0.4897   -6.5519   28.1060 H         1 1CK301      0.0000 
     24 H           1.9208   -3.8496   28.4080 H         1 1CK301      0.0000 
     25 H           1.6274   -4.9720   27.2943 H         1 1CK301      0.0000 
     26 H           1.0915   -3.4704   27.0833 H         1 1CK301      0.0000 
@<TRIPOS>BOND
     1    3    1 1    
     2   16    1 2    
     3   12    2 am   
     4   16    2 1    
     5   17    2 1    
     6   13    3 1    
     7   18    3 1    
     8   13    4 1    
     9   24    4 1    
    10   25    4 1    
    11   26    4 1    
    12   12    5 2    
    13   14    6 1    
    14    9    7 ar   
    15   14    7 ar   
    16   19    7 1    
    17   10    8 ar   
    18   14    8 ar   
    19   20    8 1    
    20   15    9 ar   
    21   21    9 1    
    22   15   10 ar   
    23   22   10 1    
    24   13   11 2    
    25   16   11 1    
    26   23   11 1    
    27   15   12 1    
@<TRIPOS>SUBSTRUCTURE
     1 1CK301      1 GROUP   
@<TRIPOS>SET

