#    Name: 2b6a_T50_1_INTS_M
#    Modification time : Mon Mar 24 20:19:50 2014

@<TRIPOS>MOLECULE
2b6a_T50_1_INTS_M
   53     0     3     0     0
SMALL
NO_CHARGES


@<TRIPOS>ATOM
      1 CA        143.9460  -29.0575   71.5285 C.3       1 GLC5        0.0000 
      2 CA        142.9260  -28.6330   73.2450 C.3       3 GLL5        0.0000 
      3 CA        144.9660  -29.4820   69.8120 C.3       2 GLP5        0.0000 
      4 CA        144.9885  -29.2140   73.3660 C.3       1 GLC5        0.0000 
      5 CA        147.0510  -29.7950   73.4870 C.3       2 GLP5        0.0000 
      6 CA        141.2245  -29.1445   73.9345 C.3       1 GLC5        0.0000 
      7 CA        139.5230  -29.6560   74.6240 C.3       2 GLP5        0.0000 
      8 CA        148.7505  -27.0490   74.0830 C.3       1 GLC5        0.0000 
      9 CA        148.7160  -25.3010   73.1610 C.3       3 GLL5        0.0000 
     10 CA        148.7850  -28.7970   75.0050 C.3       2 GLP5        0.0000 
     11 CA        150.6455  -25.6670   72.4875 C.3       1 GLC5        0.0000 
     12 CA        152.5750  -26.0330   71.8140 C.3       2 GLP5        0.0000 
     13 CA        147.9685  -26.8010   75.4050 C.3       1 GLC5        0.0000 
     14 CA        147.1520  -24.8050   75.8050 C.3       3 GLL5        0.0000 
     15 CA        143.9285  -20.0165   76.7490 C.3       1 GLC5        0.0000 
     16 CA        145.2060  -21.6370   76.9960 C.3       3 GLL5        0.0000 
     17 CA        142.6510  -18.3960   76.5020 C.3       2 GLP5        0.0000 
     18 CA        148.5155  -25.2215   78.9555 C.3       1 GLC5        0.0000 
     19 CA        146.9370  -25.0740   78.5380 C.3       3 GLL5        0.0000 
     20 CA        150.0940  -25.3690   79.3730 C.3       2 GLP5        0.0000 
     21 CA        144.1498  -27.8717   78.7862 C.3       1 GLC5        0.0000 
     22 CA        144.3990  -28.3310   76.9180 C.3       3 GLL5        0.0000 
     23 CA        143.4310  -27.9570   80.7260 C.3       2 GLP5        0.0000 
     24 CA        147.0930  -27.8650   75.5633 C.3       1 GLC5        0.0000 
     25 CA        145.3380  -27.2420   76.7750 C.3       3 GLL5        0.0000 
     26 CA        145.6220  -28.7835   74.1109 C.3       1 GLC5        0.0000 
     27 CA        144.7030  -27.0780   74.3550 C.3       3 GLL5        0.0000 
     28 CA        143.9748  -22.8912   73.3265 C.3       1 GLC5        0.0000 
     29 CA        145.7970  -23.4670   72.0150 C.3       3 GLL5        0.0000 
     30 CA        142.7980  -22.3320   74.5300 C.3       2 GLP5        0.0000 
     31 CA        147.7133  -23.5412   69.5255 C.3       1 GLC5        0.0000 
     32 CA        146.3670  -22.5590   71.0930 C.3       3 GLL5        0.0000 
     33 CA        148.3470  -24.5090   68.0790 C.3       2 GLP5        0.0000 
     34 CA        148.1377  -21.6527   72.4420 C.3       1 GLC5        0.0000 
     35 CA        147.7920  -22.5880   70.8510 C.3       3 GLL5        0.0000 
     36 CA        149.1960  -20.7320   73.9120 C.3       2 GLP5        0.0000 
     37 CA        150.0520  -22.3788   70.6845 C.3       1 GLC5        0.0000 
     38 CA        151.9010  -21.6950   70.1620 C.3       2 GLP5        0.0000 
     39 CA        148.3247  -24.2482   70.0535 C.3       1 GLC5        0.0000 
     40 CA        148.6140  -23.5370   71.5630 C.3       3 GLL5        0.0000 
     41 CA        148.7493  -22.3597   72.9700 C.3       1 GLC5        0.0000 
     42 CA        149.4892  -24.5613   74.2780 C.3       1 GLC5        0.0000 
     43 CA        150.6250  -24.2530   75.7290 C.3       2 GLP5        0.0000 
     44 CA        149.0826  -26.1196   71.2757 C.3       1 GLC5        0.0000 
     45 CA        149.6560  -27.5950   69.9570 C.3       2 GLP5        0.0000 
     46 CA        148.7090  -24.2665   75.9838 C.3       1 GLC5        0.0000 
     47 CA        147.3605  -21.5113   75.2940 C.3       1 GLC5        0.0000 
     48 CA        145.8410  -22.5820   76.1360 C.3       3 GLL5        0.0000 
     49 CA        148.5320  -20.3790   76.3150 C.3       2 GLP5        0.0000 
     50 CA        144.2852  -22.3547   75.1433 C.3       1 GLC5        0.0000 
     51 CA        145.2546  -24.9275   79.8236 C.3       1 GLC5        0.0000 
     52 CA        146.3880  -23.9760   78.0570 C.3       3 GLL5        0.0000 
     53 CA        144.0030  -25.5630   81.1310 C.3       2 GLP5        0.0000 
@<TRIPOS>BOND
@<TRIPOS>SUBSTRUCTURE
     1 GLC5        1 GROUP        1 X    GLC  0     ROOT GLC X 6
     2 GLP5        3 GROUP        1 Y    GLP  0     ROOT GLP Y 13
     3 GLL5        2 GROUP        1 Z    GLL  0     ROOT GLL Z 20
@<TRIPOS>SET

