#    Name: 2b6a_T50_1_ligand
#    Modification time : Mon Mar 24 20:19:51 2014

@<TRIPOS>MOLECULE
2b6a_T50_1_ligand
   41    44     1     0     0
SMALL
NO_CHARGES


@<TRIPOS>ATOM
      1 N1        146.2350  -25.5850   75.0020 N.pl3     1 T50561      0.0000 
      2 C2        145.9850  -25.4280   73.7030 C.2       1 T50561      0.0000 
      3 N3        145.1000  -26.2780   73.3020 N.2       1 T50561      0.0000 
      4 C4        143.7580  -28.1530   74.4640 C.ar      1 T50561      0.0000 
      5 C5        143.6080  -28.7790   75.7650 C.ar      1 T50561      0.0000 
      6 C6        144.3990  -28.3310   76.9180 C.ar      1 T50561      0.0000 
      7 C7        145.3380  -27.2420   76.7750 C.ar      1 T50561      0.0000 
      8 C8        145.4640  -26.6240   75.4680 C.ar      1 T50561      0.0000 
      9 C9        144.7030  -27.0780   74.3550 C.ar      1 T50561      0.0000 
     10 C17       146.5990  -24.4210   72.7220 C.ar      1 T50561      0.0000 
     11 C18       145.7970  -23.4670   72.0150 C.ar      1 T50561      0.0000 
     12 C4A       142.9260  -28.6330   73.2450 C.3       1 T50561      0.0000 
     13 C19       146.3670  -22.5590   71.0930 C.ar      1 T50561      0.0000 
     14 C20       147.7920  -22.5880   70.8510 C.ar      1 T50561      0.0000 
     15 C21       148.6140  -23.5370   71.5630 C.ar      1 T50561      0.0000 
     16 C22       147.9910  -24.4380   72.4930 C.ar      1 T50561      0.0000 
     17 F1        144.5060  -23.4340   72.2310 F         1 T50561      0.0000 
     18 F2        148.7160  -25.3010   73.1610 F         1 T50561      0.0000 
     19 C10       147.1520  -24.8050   75.8050 C.3       1 T50561      0.0000 
     20 C11       146.4340  -23.7550   76.6720 C.ar      1 T50561      0.0000 
     21 C12       145.8410  -22.5820   76.1360 C.ar      1 T50561      0.0000 
     22 C13       145.2060  -21.6370   76.9960 C.ar      1 T50561      0.0000 
     23 C14       145.1700  -21.8630   78.4050 C.ar      1 T50561      0.0000 
     24 C15       145.7630  -23.0440   78.9320 C.ar      1 T50561      0.0000 
     25 C16       146.3880  -23.9760   78.0570 C.ar      1 T50561      0.0000 
     26 F3        145.8730  -22.3520   74.8130 F         1 T50561      0.0000 
     27 F4        146.9370  -25.0740   78.5380 F         1 T50561      0.0000 
     28 H         142.9483  -29.5384   75.8869 H         1 T50561      0.0000 
     29 H         144.2794  -28.7904   77.8066 H         1 T50561      0.0000 
     30 H         145.8806  -26.9248   77.5440 H         1 T50561      0.0000 
     31 H         145.7931  -21.8876   70.5985 H         1 T50561      0.0000 
     32 H         148.2066  -21.9511   70.1911 H         1 T50561      0.0000 
     33 H         149.6061  -23.5649   71.4088 H         1 T50561      0.0000 
     34 H         147.8811  -24.2695   75.1709 H         1 T50561      0.0000 
     35 H         147.7372  -25.4515   76.4832 H         1 T50561      0.0000 
     36 H         144.7785  -20.8015   76.6050 H         1 T50561      0.0000 
     37 H         144.7288  -21.1919   79.0181 H         1 T50561      0.0000 
     38 H         145.7403  -23.2221   79.9331 H         1 T50561      0.0000 
     39 H         143.1366  -28.1067   72.4212 H         1 T50561      0.0000 
     40 H         143.1007  -29.5942   73.0314 H         1 T50561      0.0000 
     41 H         141.9434  -28.5428   73.4073 H         1 T50561      0.0000 
@<TRIPOS>BOND
     1    2    1 1    
     2    8    1 1    
     3   19    1 1    
     4    3    2 2    
     5   10    2 1    
     6    9    3 1    
     7    5    4 ar   
     8    9    4 ar   
     9   12    4 1    
    10    6    5 ar   
    11   28    5 1    
    12    7    6 ar   
    13   29    6 1    
    14    8    7 ar   
    15   30    7 1    
    16    9    8 ar   
    17   11   10 ar   
    18   16   10 ar   
    19   13   11 ar   
    20   17   11 1    
    21   39   12 1    
    22   40   12 1    
    23   41   12 1    
    24   14   13 ar   
    25   31   13 1    
    26   15   14 ar   
    27   32   14 1    
    28   16   15 ar   
    29   33   15 1    
    30   18   16 1    
    31   20   19 1    
    32   34   19 1    
    33   35   19 1    
    34   21   20 ar   
    35   25   20 ar   
    36   22   21 ar   
    37   26   21 1    
    38   23   22 ar   
    39   36   22 1    
    40   24   23 ar   
    41   37   23 1    
    42   25   24 ar   
    43   38   24 1    
    44   27   25 1    
@<TRIPOS>SUBSTRUCTURE
     1 T50561      1 GROUP   
@<TRIPOS>SET

