#    Name: 4E3F_2_CAVITY_N1_6.mol2
#    Modification time : Mon Mar 10 15:56:44 2014

@<TRIPOS>MOLECULE
4E3F_2_CAVITY_N1_6.mol2
   54     0     4     0     0
SMALL
NO_CHARGES


@<TRIPOS>ATOM
      1 O          26.5262   -7.0544    8.3088 O.2       1 ALA2        0.0000 
      2 CA         26.1882   -6.2312    7.1013 C.3       3 GLY6        0.0000 
      3 CA         25.8501   -5.4080    5.8938 C.3       3 GLY6        0.0000 
      4 CA         25.5121   -4.5848    4.6863 C.3       3 GLY6        0.0000 
      5 O          25.7119   -8.1896    7.7628 O.2       1 ALA2        0.0000 
      6 CZ         25.3739   -7.3664    6.5553 C.ar      2 PHE5        0.0000 
      7 N          26.7414   -0.6465    7.0270 N.2       1 ALA2        0.0000 
      8 N          25.9271   -1.7818    6.4810 N.2       1 ALA2        0.0000 
      9 N          25.5891   -0.9586    5.2735 N.2       1 ALA2        0.0000 
     10 N          25.4509   -3.7402    7.1425 N.2       1 ALA2        0.0000 
     11 N          25.1128   -2.9170    5.9350 N.2       1 ALA2        0.0000 
     12 N          24.7748   -2.0939    4.7275 N.2       1 ALA2        0.0000 
     13 CA         24.9746   -5.6987    7.8040 C.3       3 GLY6        0.0000 
     14 N          24.6366   -4.8755    6.5965 N.2       1 ALA2        0.0000 
     15 O          24.4984   -7.6572    8.4655 O.2       1 ALA2        0.0000 
     16 CZ         24.1603   -6.8340    7.2580 C.ar      2 PHE5        0.0000 
     17 CA         28.6764   -8.1406    3.2396 C.3       3 GLY6        0.0000 
     18 CA         27.8622   -9.2759    2.6936 C.3       3 GLY6        0.0000 
     19 CA         27.5241   -8.4527    1.4861 C.3       3 GLY6        0.0000 
     20 O          29.0915   -5.3376    5.0343 O.2       1 ALA2        0.0000 
     21 DU         28.7534   -4.5144    3.8268 H         4 CUB7        0.0000 
     22 N          28.9533   -8.1193    6.9034 N.2       1 ALA2        0.0000 
     23 O          28.6152   -7.2961    5.6958 O.2       1 ALA2        0.0000 
     24 DU         28.2772   -6.4729    4.4883 H         4 CUB7        0.0000 
     25 DU         27.9391   -5.6497    3.2808 H         4 CUB7        0.0000 
     26 CA         27.6011   -4.8265    2.0733 C.3       3 GLY6        0.0000 
     27 CA         28.1390   -9.2546    6.3574 C.3       3 GLY6        0.0000 
     28 CA         27.8009   -8.4314    5.1499 C.3       3 GLY6        0.0000 
     29 CA         27.4629   -7.6082    3.9423 C.3       3 GLY6        0.0000 
     30 DU         27.1249   -6.7850    2.7348 H         4 CUB7        0.0000 
     31 CA         26.7868   -5.9618    1.5273 C.3       3 GLY6        0.0000 
     32 O          28.6922   -3.6699    6.2830 O.2       1 ALA2        0.0000 
     33 N          28.3542   -2.8467    5.0755 N.2       1 ALA2        0.0000 
     34 DU         28.0161   -2.0235    3.8680 H         4 CUB7        0.0000 
     35 O          27.8779   -4.8052    5.7370 O.2       1 ALA2        0.0000 
     36 DU         27.5399   -3.9820    4.5295 H         4 CUB7        0.0000 
     37 CA         27.2019   -3.1588    3.3220 C.3       3 GLY6        0.0000 
     38 N          27.7397   -7.5868    7.6061 N.2       1 ALA2        0.0000 
     39 O          27.4017   -6.7636    6.3986 O.2       1 ALA2        0.0000 
     40 DU         27.0637   -5.9404    5.1911 H         4 CUB7        0.0000 
     41 CA         26.7256   -5.1172    3.9835 C.3       3 GLY6        0.0000 
     42 N          26.3876   -4.2940    2.7760 N.2       1 ALA2        0.0000 
     43 O          26.9255   -8.7221    7.0601 O.2       1 ALA2        0.0000 
     44 CZ         26.5874   -7.8989    5.8526 C.ar      2 PHE5        0.0000 
     45 CA         26.2494   -7.0757    4.6451 C.3       3 GLY6        0.0000 
     46 CA         25.9113   -6.2525    3.4376 C.3       3 GLY6        0.0000 
     47 N          27.9549   -1.1790    6.3242 N.2       1 ALA2        0.0000 
     48 N          27.4787   -3.1374    6.9858 N.2       1 ALA2        0.0000 
     49 N          27.1406   -2.3142    5.7782 N.2       1 ALA2        0.0000 
     50 DU         26.8026   -1.4910    4.5707 H         4 CUB7        0.0000 
     51 O          27.0024   -5.0959    7.6473 O.2       1 ALA2        0.0000 
     52 O          26.6644   -4.2727    6.4398 O.2       1 ALA2        0.0000 
     53 N          26.3264   -3.4495    5.2323 N.2       1 ALA2        0.0000 
     54 N          25.9883   -2.6263    4.0247 N.2       1 ALA2        0.0000 
@<TRIPOS>BOND
@<TRIPOS>SUBSTRUCTURE
     1 ALA2        1 GROUP   
     2 PHE5        6 GROUP   
     3 GLY6        2 GROUP   
     4 CUB7       21 GROUP   
@<TRIPOS>SET

