#    Name: 4e3f_GRE_2_INTS_M
#    Modification time : Tue Mar 25 10:34:39 2014

@<TRIPOS>MOLECULE
4e3f_GRE_2_INTS_M
   20     0     6     0     0
SMALL
NO_CHARGES


@<TRIPOS>ATOM
      1 N          28.2100   -5.5580    7.7225 N.am      1 SEC2        0.0000 
      2 N          26.9690   -6.1150    6.8560 N.am      5 SEL2        0.0000 
      3 N          29.4510   -5.0010    8.5890 N.am      3 SEP2        0.0000 
      4 N          25.5305   -6.7630    9.3565 N.am      1 SEC2        0.0000 
      5 N          25.2670   -6.8310    7.9220 N.am      5 SEL2        0.0000 
      6 N          25.7940   -6.6950   10.7910 N.am      3 SEP2        0.0000 
      7 CA         25.8070   -8.7520    9.6080 C.3       2 GLC5        0.0000 
      8 CA         26.1500   -9.6350    7.5940 C.3       6 GLL5        0.0000 
      9 CA         25.4640   -7.8690   11.6220 C.3       4 GLP5        0.0000 
     10 CA         27.4307   -9.4982    8.8385 C.3       2 GLC5        0.0000 
     11 CA         26.8190   -8.4720    7.1040 C.3       6 GLL5        0.0000 
     12 CA         28.3770   -9.9430   10.3280 C.3       4 GLP5        0.0000 
     13 CA         26.1552   -9.9428    5.4640 C.3       2 GLC5        0.0000 
     14 CA         25.8260  -10.8320    3.5790 C.3       4 GLP5        0.0000 
     15 CA         27.7870  -10.4733    8.6950 C.3       2 GLC5        0.0000 
     16 CA         26.6080  -10.9300    7.4340 C.3       6 GLL5        0.0000 
     17 CA         26.5115  -10.9177    5.3205 C.3       2 GLC5        0.0000 
     18 CA         28.3165   -9.6482    8.3062 C.3       2 GLC5        0.0000 
     19 CA         28.4980   -9.9940    6.1850 C.3       6 GLL5        0.0000 
     20 CA         27.0410  -10.0928    4.9318 C.3       2 GLC5        0.0000 
@<TRIPOS>BOND
@<TRIPOS>SUBSTRUCTURE
     1 SEC2        1 GROUP        1 X    SEC  0     ROOT SEC X 2
     2 GLC5        7 GROUP        1 X    GLC  0     **** GLC X 6
     3 SEP2        3 GROUP        1 Y    SEP  0     ROOT SEP Y 9
     4 GLP5        9 GROUP        1 Y    GLP  0     **** GLP Y 13
     5 SEL2        2 GROUP        1 Z    SEL  0     ROOT SEL Z 16
     6 GLL5        8 GROUP        1 Z    GLL  0     **** GLL Z 20
@<TRIPOS>SET

