#    Name: 4e3f_GRE_2_ligand
#    Modification time : Tue Mar 25 10:34:39 2014

@<TRIPOS>MOLECULE
4e3f_GRE_2_ligand
   16    16     1     0     0
SMALL
NO_CHARGES


@<TRIPOS>ATOM
      1 C1A        26.3160   -7.1170    7.3200 C.2       1 GRE304      0.0000 
      2 O1A        26.9690   -6.1150    6.8560 O.co2     1 GRE304      0.0000 
      3 O2A        25.2670   -6.8310    7.9220 O.co2     1 GRE304      0.0000 
      4 C1         26.8190   -8.4720    7.1040 C.ar      1 GRE304      0.0000 
      5 C2         26.1500   -9.6350    7.5940 C.ar      1 GRE304      0.0000 
      6 C3         26.6080  -10.9300    7.4340 C.ar      1 GRE304      0.0000 
      7 C4         27.7860  -11.0770    6.6900 C.ar      1 GRE304      0.0000 
      8 C5         28.4980   -9.9940    6.1850 C.ar      1 GRE304      0.0000 
      9 C6         28.0140   -8.7130    6.3840 C.ar      1 GRE304      0.0000 
     10 O2         25.0410   -9.4200    8.3190 O.3       1 GRE304      0.0000 
     11 O6         28.7120   -7.6390    5.8530 O.3       1 GRE304      0.0000 
     12 H          26.1334  -11.7199    7.8224 H         1 GRE304      0.0000 
     13 H          28.1418  -12.0440    6.5088 H         1 GRE304      0.0000 
     14 H          29.3713  -10.1466    5.6715 H         1 GRE304      0.0000 
     15 H          24.9041   -8.4297    8.2948 H         1 GRE304      0.0000 
     16 H          28.1972   -6.8301    6.1370 H         1 GRE304      0.0000 
@<TRIPOS>BOND
     1    2    1 ar   
     2    3    1 ar   
     3    4    1 1    
     4    5    4 ar   
     5    9    4 ar   
     6    6    5 ar   
     7   10    5 1    
     8    7    6 ar   
     9   12    6 1    
    10    8    7 ar   
    11   13    7 1    
    12    9    8 ar   
    13   14    8 1    
    14   11    9 1    
    15   15   10 1    
    16   16   11 1    
@<TRIPOS>SUBSTRUCTURE
     1 GRE304      1 GROUP   
@<TRIPOS>SET

