#    Name: 1xwf_ADN_4_INTS_M
#    Modification time : Mon Apr  7 15:33:30 2014

@<TRIPOS>MOLECULE
1xwf_ADN_4_INTS_M
   56     0     9     0     0
SMALL
NO_CHARGES


@<TRIPOS>ATOM
      1 O          13.5595   31.7060    7.0515 O.2       1 ALC1        0.0000 
      2 O          14.7040   30.6300    7.5130 O.2       7 ALL1        0.0000 
      3 O          12.4150   32.7820    6.5900 O.2       4 ALP1        0.0000 
      4 CA         16.1885   29.1815    6.8180 C.3       3 GLC5        0.0000 
      5 CA         16.0680   31.0760    7.4120 C.3       9 GLL5        0.0000 
      6 CA         16.3090   27.2870    6.2240 C.3       6 GLP5        0.0000 
      7 CA         15.5665   29.7995    8.8005 C.3       3 GLC5        0.0000 
      8 CA         15.0650   28.5230   10.1890 C.3       6 GLP5        0.0000 
      9 CA         14.5745   30.9935    8.9635 C.3       3 GLC5        0.0000 
     10 CA         13.0810   30.9110   10.5150 C.3       6 GLP5        0.0000 
     11 CA         17.8575   30.8205    8.6425 C.3       3 GLC5        0.0000 
     12 CA         19.6470   30.5650    9.8730 C.3       6 GLP5        0.0000 
     13 CA         13.9715   33.3545    6.9445 C.3       3 GLC5        0.0000 
     14 CA         15.9750   32.6270    7.2880 C.3       9 GLL5        0.0000 
     15 CA         11.9680   34.0820    6.6010 C.3       6 GLP5        0.0000 
     16 CA         18.8365   32.5580    8.2140 C.3       3 GLC5        0.0000 
     17 CA         17.3010   33.3790    7.1570 C.3       9 GLL5        0.0000 
     18 CA         20.3720   31.7370    9.2710 C.3       6 GLP5        0.0000 
     19 O          18.7285   34.4055    5.8085 O.2       1 ALC1        0.0000 
     20 O          17.6870   33.4160    5.7450 O.2       7 ALL1        0.0000 
     21 O          19.7700   35.3950    5.8720 O.2       4 ALP1        0.0000 
     22 O          19.0305   33.9100    6.7375 O.2       1 ALC1        0.0000 
     23 O          20.3740   34.4040    7.7300 O.2       4 ALP1        0.0000 
     24 O          17.8245   35.9625    5.3960 O.2       1 ALC1        0.0000 
     25 O          17.3460   35.8800    6.9270 O.2       7 ALL1        0.0000 
     26 O          18.3030   36.0450    3.8650 O.2       4 ALP1        0.0000 
     27 O          18.5580   35.6375    6.3995 O.2       1 ALC1        0.0000 
     28 CA         13.7600   34.3430    7.3775 C.3       3 GLC5        0.0000 
     29 CA         15.5520   34.6040    8.1540 C.3       9 GLL5        0.0000 
     30 N          15.4935   36.5115   12.7465 N.am      2 SEC2        0.0000 
     31 N          14.9790   36.2620   11.3850 N.am      8 SEL2        0.0000 
     32 N          16.0080   36.7610   14.1080 N.am      5 SEP2        0.0000 
     33 CA         11.2495   38.0505   10.5380 C.3       3 GLC5        0.0000 
     34 CA         13.3370   38.1810   10.7620 C.3       9 GLL5        0.0000 
     35 CA          9.1620   37.9200   10.3140 C.3       6 GLP5        0.0000 
     36 O          12.5035   40.0610   12.0310 O.2       1 ALC1        0.0000 
     37 O          13.1780   38.7260   11.9700 O.2       7 ALL1        0.0000 
     38 O          11.8290   41.3960   12.0920 O.2       4 ALP1        0.0000 
     39 N          11.4235   39.3855    9.7665 N.am      2 SEC2        0.0000 
     40 N          12.6650   38.7220    9.6610 N.am      8 SEL2        0.0000 
     41 N          10.1820   40.0490    9.8720 N.am      5 SEP2        0.0000 
     42 CA         12.6670   37.7010    6.5060 C.3       3 GLC5        0.0000 
     43 CA         12.8230   38.1650    8.4260 C.3       9 GLL5        0.0000 
     44 CA         12.5110   37.2370    4.5860 C.3       6 GLP5        0.0000 
     45 CA         11.3090   36.6815    7.9565 C.3       3 GLC5        0.0000 
     46 CA          9.7950   35.1980    7.4870 C.3       6 GLP5        0.0000 
     47 CA         10.9925   38.0425    9.3700 C.3       3 GLC5        0.0000 
     48 CA         14.4015   39.4620    8.8565 C.3       3 GLC5        0.0000 
     49 CA         15.9800   40.7590    9.2870 C.3       6 GLP5        0.0000 
     50 CA         13.1110   35.3230    7.9090 C.3       3 GLC5        0.0000 
     51 CA         14.2540   36.5640    9.2170 C.3       9 GLL5        0.0000 
     52 CA         16.6747   36.6968    7.8878 C.3       3 GLC5        0.0000 
     53 CA         17.0660   38.7050    7.8150 C.3       6 GLP5        0.0000 
     54 CA         15.4559   38.1564    9.7251 C.3       3 GLC5        0.0000 
     55 CA         14.1900   37.0300   10.5450 C.3       9 GLL5        0.0000 
     56 CA         16.9030   39.2280    9.5150 C.3       6 GLP5        0.0000 
@<TRIPOS>BOND
@<TRIPOS>SUBSTRUCTURE
     1 ALC1        1 GROUP        1 X    ALC  0     ROOT ALC X 1
     2 SEC2       30 GROUP        1 X    SEC  0     **** SEC X 2
     3 GLC5        4 GROUP        1 X    GLC  0     **** GLC X 6
     4 ALP1        3 GROUP        1 Y    ALP  0     ROOT ALP Y 8
     5 SEP2       32 GROUP        1 Y    SEP  0     **** SEP Y 9
     6 GLP5        6 GROUP        1 Y    GLP  0     **** GLP Y 13
     7 ALL1        2 GROUP        1 Z    ALL  0     ROOT ALL Z 15
     8 SEL2       31 GROUP        1 Z    SEL  0     **** SEL Z 16
     9 GLL5        5 GROUP        1 Z    GLL  0     **** GLL Z 20
@<TRIPOS>SET

