#    Name: 1xwf_ADN_4_ligand
#    Modification time : Mon Apr  7 15:33:30 2014

@<TRIPOS>MOLECULE
1xwf_ADN_4_ligand
   32    34     1     0     0
SMALL
NO_CHARGES


@<TRIPOS>ATOM
      1 O5'        14.7040   30.6300    7.5130 O.3       1 ADN433      0.0000 
      2 C5'        16.0680   31.0760    7.4120 C.3       1 ADN433      0.0000 
      3 C4'        15.9750   32.6270    7.2880 C.3       1 ADN433      0.0000 
      4 O4'        15.4700   33.2510    8.5100 O.3       1 ADN433      0.0000 
      5 C3'        17.3010   33.3790    7.1570 C.3       1 ADN433      0.0000 
      6 O3'        17.6870   33.4160    5.7450 O.3       1 ADN433      0.0000 
      7 C2'        17.0150   34.7730    7.7670 C.3       1 ADN433      0.0000 
      8 O2'        17.3460   35.8800    6.9270 O.3       1 ADN433      0.0000 
      9 C1'        15.5520   34.6040    8.1540 C.3       1 ADN433      0.0000 
     10 N9         15.1100   35.4820    9.2490 N.pl3     1 ADN433      0.0000 
     11 C8         15.4960   35.3730   10.5880 C.2       1 ADN433      0.0000 
     12 N7         14.9790   36.2620   11.3850 N.2       1 ADN433      0.0000 
     13 C5         14.1900   37.0300   10.5450 C.ar      1 ADN433      0.0000 
     14 C6         13.3370   38.1810   10.7620 C.ar      1 ADN433      0.0000 
     15 N6         13.1780   38.7260   11.9700 N.pl3     1 ADN433      0.0000 
     16 N1         12.6650   38.7220    9.6610 N.ar      1 ADN433      0.0000 
     17 C2         12.8230   38.1650    8.4260 C.ar      1 ADN433      0.0000 
     18 N3         13.6030   37.0780    8.1180 N.ar      1 ADN433      0.0000 
     19 C4         14.2540   36.5640    9.2170 C.ar      1 ADN433      0.0000 
     20 H          16.5549   30.7094    6.5295 H         1 ADN433      0.0000 
     21 H          16.6378   30.8554    8.2935 H         1 ADN433      0.0000 
     22 H          15.3512   32.9068    6.4688 H         1 ADN433      0.0000 
     23 H          18.0171   32.8833    7.7662 H         1 ADN433      0.0000 
     24 H          17.5751   34.7756    8.7191 H         1 ADN433      0.0000 
     25 H          14.9667   34.7856    7.2568 H         1 ADN433      0.0000 
     26 H          16.1324   34.6403   10.8676 H         1 ADN433      0.0000 
     27 H          13.2011   38.0938   12.7445 H         1 ADN433      0.0000 
     28 H          13.0501   39.7176   11.9920 H         1 ADN433      0.0000 
     29 H          12.2837   38.6207    7.6089 H         1 ADN433      0.0000 
     30 H          14.1614   31.3613    7.0996 H         1 ADN433      0.0000 
     31 H          18.4236   34.0905    5.6958 H         1 ADN433      0.0000 
     32 H          17.9504   35.5012    6.2261 H         1 ADN433      0.0000 
@<TRIPOS>BOND
     1    2    1 1    
     2   30    1 1    
     3    3    2 1    
     4   20    2 1    
     5   21    2 1    
     6    4    3 1    
     7    5    3 1    
     8   22    3 1    
     9    9    4 1    
    10    6    5 1    
    11    7    5 1    
    12   23    5 1    
    13   31    6 1    
    14    8    7 1    
    15    9    7 1    
    16   24    7 1    
    17   32    8 1    
    18   10    9 1    
    19   25    9 1    
    20   11   10 1    
    21   19   10 1    
    22   12   11 2    
    23   26   11 1    
    24   13   12 1    
    25   14   13 ar   
    26   19   13 ar   
    27   15   14 1    
    28   16   14 ar   
    29   27   15 1    
    30   28   15 1    
    31   17   16 ar   
    32   18   17 ar   
    33   29   17 1    
    34   19   18 ar   
@<TRIPOS>SUBSTRUCTURE
     1 ADN433      1 GROUP   
@<TRIPOS>SET

