#    Name: 2j4z_626_2_INTS_M
#    Modification time : Tue Mar 25 19:16:55 2014

@<TRIPOS>MOLECULE
2j4z_626_2_INTS_M
   71     0     9     0     0
SMALL
NO_CHARGES


@<TRIPOS>ATOM
      1 O           1.3825   26.1575   13.2570 O.2       1 ALC1        0.0000 
      2 O           2.2490   26.9850   13.8660 O.2       7 ALL1        0.0000 
      3 O           0.5160   25.3300   12.6480 O.2       4 ALP1        0.0000 
      4 N           3.8980   26.1010   12.6755 N.am      2 SEC2        0.0000 
      5 N           3.6190   26.8810   13.8110 N.am      8 SEL2        0.0000 
      6 N           4.1770   25.3210   11.5400 N.am      5 SEP2        0.0000 
      7 O           6.2855   27.2775   13.0665 O.2       1 ALC1        0.0000 
      8 O           5.6540   27.9440   14.4180 O.2       7 ALL1        0.0000 
      9 O           6.9170   26.6110   11.7150 O.2       4 ALP1        0.0000 
     10 CA          8.6065   25.9560   12.5740 C.3       3 GLC5        0.0000 
     11 CA          8.6140   27.4980   14.1760 C.3       9 GLL5        0.0000 
     12 CA          8.5990   24.4140   10.9720 C.3       6 GLP5        0.0000 
     13 CA          4.1885   27.5180   16.3505 C.3       3 GLC5        0.0000 
     14 CA          3.3500   28.7730   14.8490 C.3       9 GLL5        0.0000 
     15 CA          5.0270   26.2630   17.8520 C.3       6 GLP5        0.0000 
     16 CA          2.3005   29.2175   17.3830 C.3       3 GLC5        0.0000 
     17 CA          3.0780   30.0520   15.5420 C.3       9 GLL5        0.0000 
     18 CA          1.5230   28.3830   19.2240 C.3       6 GLP5        0.0000 
     19 CA          1.2110   28.6770   17.0970 C.3       3 GLC5        0.0000 
     20 CA          0.8990   28.9710   14.9700 C.3       9 GLL5        0.0000 
     21 CA         -0.9520   28.7210   15.5070 C.3       3 GLC5        0.0000 
     22 CA         -2.8030   28.4710   16.0440 C.3       6 GLP5        0.0000 
     23 CA          1.8555   29.8220   13.3695 C.3       3 GLC5        0.0000 
     24 CA          2.8120   30.6730   11.7690 C.3       6 GLP5        0.0000 
     25 CA         14.2850   31.5170   13.9650 C.3       3 GLC5        0.0000 
     26 CA         14.6070   29.5620   14.5040 C.3       9 GLL5        0.0000 
     27 CA         13.9630   33.4720   13.4260 C.3       6 GLP5        0.0000 
     28 CA         17.4735   28.6720   12.2320 C.3       3 GLC5        0.0000 
     29 CA         15.7220   29.6360   12.2940 C.3       9 GLL5        0.0000 
     30 CA         19.2250   27.7080   12.1700 C.3       6 GLP5        0.0000 
     31 CA         14.8425   31.5540   12.8600 C.3       3 GLC5        0.0000 
     32 CA          2.4295   36.0760   12.0655 C.3       3 GLC5        0.0000 
     33 CA          2.3500   34.6670   13.5300 C.3       9 GLL5        0.0000 
     34 CA          2.5090   37.4850   10.6010 C.3       6 GLP5        0.0000 
     35 CA          3.1200   33.0575   12.2815 C.3       3 GLC5        0.0000 
     36 CA          3.8900   31.4480   11.0330 C.3       6 GLP5        0.0000 
     37 CA          5.4600   34.4205   13.4610 C.3       3 GLC5        0.0000 
     38 CA          3.5310   34.5870   14.2250 C.3       9 GLL5        0.0000 
     39 CA          7.3890   34.2540   12.6970 C.3       6 GLP5        0.0000 
     40 CA          4.3395   33.0705   13.0460 C.3       3 GLC5        0.0000 
     41 CA          5.1480   31.5540   11.8670 C.3       6 GLP5        0.0000 
     42 CA          4.0635   35.6975   15.6885 C.3       3 GLC5        0.0000 
     43 CA          4.5960   36.8080   17.1520 C.3       6 GLP5        0.0000 
     44 CA          1.9550   32.2335   13.0420 C.3       3 GLC5        0.0000 
     45 CA          1.0980   33.7940   14.3150 C.3       9 GLL5        0.0000 
     46 CA          2.1305   31.4430   18.4315 C.3       3 GLC5        0.0000 
     47 CA          1.6600   32.4370   16.7110 C.3       9 GLL5        0.0000 
     48 CA          2.6010   30.4490   20.1520 C.3       6 GLP5        0.0000 
     49 CA          0.7175   32.7895   18.3020 C.3       3 GLC5        0.0000 
     50 CA         -0.2250   33.1420   19.8930 C.3       6 GLP5        0.0000 
     51 CA          8.8735   29.0940   13.0570 C.3       3 GLC5        0.0000 
     52 CA          8.0260   28.6260   14.8240 C.3       9 GLL5        0.0000 
     53 CA          9.4270   30.1260   11.6140 C.3       6 GLP5        0.0000 
     54 CA          9.9422   28.9883   12.9948 C.3       3 GLC5        0.0000 
     55 CA         10.0160   27.3590   14.0950 C.3       9 GLL5        0.0000 
     56 CA          9.5152   29.8320   13.4808 C.3       3 GLC5        0.0000 
     57 CA         10.3040   29.4690   15.3060 C.3       9 GLL5        0.0000 
     58 CA          8.0473   27.6703   16.6127 C.3       3 GLC5        0.0000 
     59 CA          8.9030   29.6070   15.3890 C.3       9 GLL5        0.0000 
     60 CA          7.4830   26.5060   18.2810 C.3       6 GLP5        0.0000 
     61 CA          0.4270   28.8015   13.3208 C.3       3 GLC5        0.0000 
     62 CA          2.1010   28.1910   14.5370 C.3       9 GLL5        0.0000 
     63 CA         -0.6460   29.0220   11.8880 C.3       6 GLP5        0.0000 
     64 CA          2.8569   29.9700   13.4433 C.3       3 GLC5        0.0000 
     65 CA          1.5341   27.0468   15.7282 C.3       3 GLC5        0.0000 
     66 CA          1.2560   25.3670   16.6250 C.3       6 GLP5        0.0000 
     67 CA          0.7190   33.4868   12.4632 C.3       3 GLC5        0.0000 
     68 CA         -0.2860   32.7430   11.0040 C.3       6 GLP5        0.0000 
     69 CA          3.3480   34.8548   16.7830 C.3       3 GLC5        0.0000 
     70 CA          2.1760   33.3360   15.5670 C.3       9 GLL5        0.0000 
     71 CA          3.8890   36.1290   18.0870 C.3       6 GLP5        0.0000 
@<TRIPOS>BOND
@<TRIPOS>SUBSTRUCTURE
     1 ALC1        1 GROUP        1 X    ALC  0     ROOT ALC X 1
     2 SEC2        4 GROUP        1 X    SEC  0     **** SEC X 2
     3 GLC5       10 GROUP        1 X    GLC  0     **** GLC X 6
     4 ALP1        3 GROUP        1 Y    ALP  0     ROOT ALP Y 8
     5 SEP2        6 GROUP        1 Y    SEP  0     **** SEP Y 9
     6 GLP5       12 GROUP        1 Y    GLP  0     **** GLP Y 13
     7 ALL1        2 GROUP        1 Z    ALL  0     ROOT ALL Z 15
     8 SEL2        5 GROUP        1 Z    SEL  0     **** SEL Z 16
     9 GLL5       11 GROUP        1 Z    GLL  0     **** GLL Z 20
@<TRIPOS>SET

