#    Name: 2j4z_626_2_ligand
#    Modification time : Tue Mar 25 19:16:55 2014

@<TRIPOS>MOLECULE
2j4z_626_2_ligand
   57    61     1     0     0
SMALL
NO_CHARGES


@<TRIPOS>ATOM
      1 C1          0.8940   31.2070   16.1290 C.2       1 6261395     0.0000 
      2 O2         -0.3450   31.2200   16.1330 O.2       1 6261395     0.0000 
      3 N3          1.5830   30.1470   15.5880 N.am      1 6261395     0.0000 
      4 N4          2.2490   26.9850   13.8660 N.pl3     1 6261395     0.0000 
      5 C5          4.2060   27.8710   14.3620 C.2       1 6261395     0.0000 
      6 N6          3.6190   26.8810   13.8110 N.2       1 6261395     0.0000 
      7 N7          5.6540   27.9440   14.4180 N.am      1 6261395     0.0000 
      8 C8          6.5220   28.8600   14.9530 C.2       1 6261395     0.0000 
      9 C9          8.0260   28.6260   14.8240 C.ar      1 6261395     0.0000 
     10 O10         6.0970   29.8630   15.5350 O.2       1 6261395     0.0000 
     11 C11         8.6140   27.4980   14.1760 C.ar      1 6261395     0.0000 
     12 C12        10.0160   27.3590   14.0950 C.ar      1 6261395     0.0000 
     13 C13        10.3040   29.4690   15.3060 C.ar      1 6261395     0.0000 
     14 C14         8.9030   29.6070   15.3890 C.ar      1 6261395     0.0000 
     15 C15         2.1010   28.1910   14.5370 C.2       1 6261395     0.0000 
     16 C16         3.3500   28.7730   14.8490 C.2       1 6261395     0.0000 
     17 C17         3.0780   30.0520   15.5420 C.2       1 6261395     0.0000 
     18 C18         0.8990   28.9710   14.9700 C.2       1 6261395     0.0000 
     19 N19        12.3980   28.1910   14.5580 N.3       1 6261395     0.0000 
     20 C20        13.3580   29.0950   15.3270 C.3       1 6261395     0.0000 
     21 C21        14.6070   29.5620   14.5040 C.3       1 6261395     0.0000 
     22 N22        14.5120   29.1810   13.0440 N.4       1 6261395     0.0000 
     23 C23        14.2010   27.7250   12.7740 C.3       1 6261395     0.0000 
     24 C24        13.0530   27.1530   13.6580 C.3       1 6261395     0.0000 
     25 C25        15.7220   29.6360   12.2940 C.3       1 6261395     0.0000 
     26 C26        10.8990   28.3420   14.6560 C.ar      1 6261395     0.0000 
     27 C27         2.3500   34.6670   13.5300 C.2       1 6261395     0.0000 
     28 C28         3.5310   34.5870   14.2250 C.2       1 6261395     0.0000 
     29 S29         1.0980   33.7940   14.3150 S.3       1 6261395     0.0000 
     30 C30         3.4380   33.8250   15.3910 C.2       1 6261395     0.0000 
     31 C31         2.1760   33.3360   15.5670 C.2       1 6261395     0.0000 
     32 C32         1.6600   32.4370   16.7110 C.3       1 6261395     0.0000 
     33 H           1.6100   26.4242   13.5525 H         1 6261395     0.0000 
     34 H           6.1330   27.0677   13.9189 H         1 6261395     0.0000 
     35 H           8.0038   26.7836   13.7664 H         1 6261395     0.0000 
     36 H          10.4238   26.5403   13.6265 H         1 6261395     0.0000 
     37 H          10.9149   30.1847   15.7162 H         1 6261395     0.0000 
     38 H           8.4951   30.4224   15.8613 H         1 6261395     0.0000 
     39 H           3.6596   30.6372   15.8617 H         1 6261395     0.0000 
     40 H           0.0749   28.7959   14.8880 H         1 6261395     0.0000 
     41 H          13.7200   28.5692   16.2233 H         1 6261395     0.0000 
     42 H          12.8227   29.9933   15.6695 H         1 6261395     0.0000 
     43 H          15.4947   29.1086   14.9536 H         1 6261395     0.0000 
     44 H          14.6891   30.6478   14.6044 H         1 6261395     0.0000 
     45 H          13.6455   29.7759   12.6187 H         1 6261395     0.0000 
     46 H          15.0997   27.1144   12.9468 H         1 6261395     0.0000 
     47 H          13.9152   27.5950   11.7196 H         1 6261395     0.0000 
     48 H          12.2968   26.7120   12.9939 H         1 6261395     0.0000 
     49 H          13.4662   26.3413   14.2726 H         1 6261395     0.0000 
     50 H           2.0842   35.0802   12.7456 H         1 6261395     0.0000 
     51 H           4.3685   35.0203   13.9392 H         1 6261395     0.0000 
     52 H           4.1884   33.6717   15.9916 H         1 6261395     0.0000 
     53 H           2.4971   32.0808   17.2948 H         1 6261395     0.0000 
     54 H           0.9845   33.0028   17.3371 H         1 6261395     0.0000 
     55 H          16.5599   29.2311   12.6600 H         1 6261395     0.0000 
     56 H          15.6746   29.3873   11.3266 H         1 6261395     0.0000 
     57 H          15.8336   30.6289   12.3363 H         1 6261395     0.0000 
@<TRIPOS>BOND
     1    2    1 2    
     2    3    1 am   
     3   32    1 1    
     4   17    3 1    
     5   18    3 1    
     6    6    4 1    
     7   15    4 1    
     8   33    4 1    
     9    6    5 2    
    10    7    5 1    
    11   16    5 1    
    12    8    7 am   
    13   34    7 1    
    14    9    8 1    
    15   10    8 2    
    16   11    9 ar   
    17   14    9 ar   
    18   12   11 ar   
    19   35   11 1    
    20   26   12 ar   
    21   36   12 1    
    22   14   13 ar   
    23   26   13 ar   
    24   37   13 1    
    25   38   14 1    
    26   16   15 1    
    27   18   15 2    
    28   17   16 2    
    29   39   17 1    
    30   40   18 1    
    31   20   19 1    
    32   24   19 1    
    33   26   19 1    
    34   21   20 1    
    35   41   20 1    
    36   42   20 1    
    37   22   21 1    
    38   43   21 1    
    39   44   21 1    
    40   23   22 1    
    41   25   22 1    
    42   45   22 1    
    43   24   23 1    
    44   46   23 1    
    45   47   23 1    
    46   48   24 1    
    47   49   24 1    
    48   55   25 1    
    49   56   25 1    
    50   57   25 1    
    51   28   27 2    
    52   29   27 1    
    53   50   27 1    
    54   30   28 1    
    55   51   28 1    
    56   31   29 1    
    57   31   30 2    
    58   52   30 1    
    59   32   31 1    
    60   53   32 1    
    61   54   32 1    
@<TRIPOS>SUBSTRUCTURE
     1 6261395     1 GROUP   
@<TRIPOS>SET

