#    Name: 4fev_PP1_1_INTS_M
#    Modification time : Mon Mar 24 19:28:09 2014

@<TRIPOS>MOLECULE
4fev_PP1_1_INTS_M
   45     0     6     0     0
SMALL
NO_CHARGES


@<TRIPOS>ATOM
      1 CA        -21.0105  -23.6375  -21.0490 C.3       2 GLC5        0.0000 
      2 CA        -21.8970  -25.1380  -20.5680 C.3       6 GLL5        0.0000 
      3 CA        -20.1240  -22.1370  -21.5300 C.3       4 GLP5        0.0000 
      4 CA        -23.5610  -25.0260  -21.6070 C.3       2 GLC5        0.0000 
      5 CA        -25.2250  -24.9140  -22.6460 C.3       4 GLP5        0.0000 
      6 CA        -20.0710  -25.3215  -20.9115 C.3       2 GLC5        0.0000 
      7 CA        -18.2450  -25.5050  -21.2550 C.3       4 GLP5        0.0000 
      8 CA        -23.5810  -26.1600  -21.8650 C.3       2 GLC5        0.0000 
      9 CA        -21.9370  -27.4060  -21.0840 C.3       6 GLL5        0.0000 
     10 CA        -20.0910  -26.4555  -21.1695 C.3       2 GLC5        0.0000 
     11 N         -22.6945  -25.7355  -22.7330 N.am      1 SEC2        0.0000 
     12 N         -22.0890  -26.1270  -21.4220 N.am      5 SEL2        0.0000 
     13 N         -23.3000  -25.3440  -24.0440 N.am      3 SEP2        0.0000 
     14 CA        -19.5600  -29.0855  -19.3645 C.3       2 GLC5        0.0000 
     15 CA        -21.3590  -30.1980  -19.3170 C.3       6 GLL5        0.0000 
     16 CA        -17.7610  -27.9730  -19.4120 C.3       4 GLP5        0.0000 
     17 CA        -19.9330  -30.2450  -21.8845 C.3       2 GLC5        0.0000 
     18 CA        -21.5500  -30.6650  -20.6120 C.3       6 GLL5        0.0000 
     19 CA        -18.3160  -29.8250  -23.1570 C.3       4 GLP5        0.0000 
     20 CA        -20.5550  -34.0265  -17.4495 C.3       2 GLC5        0.0000 
     21 CA        -21.2920  -32.4970  -18.5630 C.3       6 GLL5        0.0000 
     22 CA        -19.8180  -35.5560  -16.3360 C.3       4 GLP5        0.0000 
     23 CA        -20.6950  -34.9975  -18.2550 C.3       2 GLC5        0.0000 
     24 CA        -21.5720  -34.4390  -20.1740 C.3       6 GLL5        0.0000 
     25 CA        -19.2420  -27.1630  -17.9590 C.3       2 GLC5        0.0000 
     26 CA        -20.7230  -26.3530  -16.5060 C.3       6 GLL5        0.0000 
     27 CA        -20.6670  -27.8350  -13.6830 C.3       2 GLC5        0.0000 
     28 CA        -20.3370  -27.3330  -15.3970 C.3       6 GLL5        0.0000 
     29 CA        -20.9970  -28.3370  -11.9690 C.3       4 GLP5        0.0000 
     30 CA        -18.4300  -25.4580  -18.4335 C.3       2 GLC5        0.0000 
     31 CA        -19.5340  -25.4270  -16.8210 C.3       6 GLL5        0.0000 
     32 CA        -17.3260  -25.4890  -20.0460 C.3       4 GLP5        0.0000 
     33 CA        -22.9305  -26.8255  -14.7040 C.3       2 GLC5        0.0000 
     34 CA        -21.9560  -25.5330  -16.1060 C.3       6 GLL5        0.0000 
     35 CA        -23.9050  -28.1180  -13.3020 C.3       4 GLP5        0.0000 
     36 CA        -23.6385  -25.2995  -16.5915 C.3       2 GLC5        0.0000 
     37 CA        -25.3210  -25.0660  -17.0770 C.3       4 GLP5        0.0000 
     38 CA        -20.8655  -24.7755  -14.4550 C.3       2 GLC5        0.0000 
     39 CA        -19.7750  -24.0180  -12.8040 C.3       4 GLP5        0.0000 
     40 CA        -19.6140  -27.5778  -19.3732 C.3       2 GLC5        0.0000 
     41 CA        -21.3720  -26.6490  -18.9010 C.3       6 GLL5        0.0000 
     42 CA        -19.4985  -33.3381  -20.7680 C.3       2 GLC5        0.0000 
     43 CA        -21.6220  -32.0240  -20.8940 C.3       6 GLL5        0.0000 
     44 CA        -17.4320  -33.2150  -21.2590 C.3       4 GLP5        0.0000 
     45 CA        -19.9035  -25.0765  -14.5951 C.3       2 GLC5        0.0000 
@<TRIPOS>BOND
@<TRIPOS>SUBSTRUCTURE
     1 SEC2       11 GROUP        1 X    SEC  0     ROOT SEC X 2
     2 GLC5        1 GROUP        1 X    GLC  0     **** GLC X 6
     3 SEP2       13 GROUP        1 Y    SEP  0     ROOT SEP Y 9
     4 GLP5        3 GROUP        1 Y    GLP  0     **** GLP Y 13
     5 SEL2       12 GROUP        1 Z    SEL  0     ROOT SEL Z 16
     6 GLL5        2 GROUP        1 Z    GLL  0     **** GLL Z 20
@<TRIPOS>SET

