#    Name: 4fev_PP1_1_ligand
#    Modification time : Mon Mar 24 19:28:09 2014

@<TRIPOS>MOLECULE
4fev_PP1_1_ligand
   40    42     1     0     0
SMALL
NO_CHARGES


@<TRIPOS>ATOM
      1 N1        -21.0340  -27.1620  -17.7210 N.pl3     1 PP1302      0.0000 
      2 C2        -21.8970  -25.1380  -20.5680 C.ar      1 PP1302      0.0000 
      3 N3        -21.5400  -25.3810  -19.3220 N.ar      1 PP1302      0.0000 
      4 C4        -21.3720  -26.6490  -18.9010 C.ar      1 PP1302      0.0000 
      5 C5        -21.5620  -27.7160  -19.7680 C.ar      1 PP1302      0.0000 
      6 C6        -21.9370  -27.4060  -21.0840 C.ar      1 PP1302      0.0000 
      7 N7        -22.0890  -26.1270  -21.4220 N.ar      1 PP1302      0.0000 
      8 N8        -20.9910  -28.3990  -17.7430 N.2       1 PP1302      0.0000 
      9 C9        -21.2720  -28.8410  -18.9770 C.2       1 PP1302      0.0000 
     10 N10       -22.1590  -28.2980  -22.0510 N.pl3     1 PP1302      0.0000 
     11 C11       -21.3590  -30.1980  -19.3170 C.ar      1 PP1302      0.0000 
     12 C12       -21.5500  -30.6650  -20.6120 C.ar      1 PP1302      0.0000 
     13 C13       -21.6220  -32.0240  -20.8940 C.ar      1 PP1302      0.0000 
     14 C14       -21.4940  -32.9430  -19.8660 C.ar      1 PP1302      0.0000 
     15 C15       -21.2920  -32.4970  -18.5630 C.ar      1 PP1302      0.0000 
     16 C16       -21.2110  -31.1330  -18.2960 C.ar      1 PP1302      0.0000 
     17 C24       -21.5720  -34.4390  -20.1740 C.3       1 PP1302      0.0000 
     18 C28       -20.7230  -26.3530  -16.5060 C.3       1 PP1302      0.0000 
     19 C29       -20.3370  -27.3330  -15.3970 C.3       1 PP1302      0.0000 
     20 C33       -19.5340  -25.4270  -16.8210 C.3       1 PP1302      0.0000 
     21 C37       -21.9560  -25.5330  -16.1060 C.3       1 PP1302      0.0000 
     22 H         -22.0314  -24.1393  -20.8882 H         1 PP1302      0.0000 
     23 H         -22.8448  -28.9986  -21.8543 H         1 PP1302      0.0000 
     24 H         -21.6196  -28.1857  -22.8856 H         1 PP1302      0.0000 
     25 H         -21.6414  -29.9803  -21.3896 H         1 PP1302      0.0000 
     26 H         -21.7691  -32.3422  -21.8586 H         1 PP1302      0.0000 
     27 H         -21.2024  -33.1763  -17.7958 H         1 PP1302      0.0000 
     28 H         -21.0392  -30.8111  -17.3297 H         1 PP1302      0.0000 
     29 H         -20.8589  -34.7240  -20.8145 H         1 PP1302      0.0000 
     30 H         -21.4641  -34.9941  -19.3492 H         1 PP1302      0.0000 
     31 H         -22.4498  -34.6888  -20.5827 H         1 PP1302      0.0000 
     32 H         -19.5395  -27.8819  -15.6474 H         1 PP1302      0.0000 
     33 H         -20.1115  -26.8600  -14.5453 H         1 PP1302      0.0000 
     34 H         -21.0788  -27.9710  -15.1904 H         1 PP1302      0.0000 
     35 H         -18.7184  -25.9447  -17.0796 H         1 PP1302      0.0000 
     36 H         -19.7380  -24.8047  -17.5767 H         1 PP1302      0.0000 
     37 H         -19.2851  -24.8615  -16.0347 H         1 PP1302      0.0000 
     38 H         -21.7839  -24.9759  -15.2936 H         1 PP1302      0.0000 
     39 H         -22.2395  -24.9093  -16.8344 H         1 PP1302      0.0000 
     40 H         -22.7402  -26.1182  -15.8994 H         1 PP1302      0.0000 
@<TRIPOS>BOND
     1    4    1 1    
     2    8    1 1    
     3   18    1 1    
     4    3    2 ar   
     5    7    2 ar   
     6   22    2 1    
     7    4    3 ar   
     8    5    4 ar   
     9    6    5 ar   
    10    9    5 1    
    11    7    6 ar   
    12   10    6 1    
    13    9    8 2    
    14   11    9 1    
    15   23   10 1    
    16   24   10 1    
    17   12   11 ar   
    18   16   11 ar   
    19   13   12 ar   
    20   25   12 1    
    21   14   13 ar   
    22   26   13 1    
    23   15   14 ar   
    24   17   14 1    
    25   16   15 ar   
    26   27   15 1    
    27   28   16 1    
    28   29   17 1    
    29   30   17 1    
    30   31   17 1    
    31   19   18 1    
    32   20   18 1    
    33   21   18 1    
    34   32   19 1    
    35   33   19 1    
    36   34   19 1    
    37   35   20 1    
    38   36   20 1    
    39   37   20 1    
    40   38   21 1    
    41   39   21 1    
    42   40   21 1    
@<TRIPOS>SUBSTRUCTURE
     1 PP1302      1 GROUP   
@<TRIPOS>SET

