#    Name: 3ggc_H26_1_INTS_M
#    Modification time : Tue Mar 25 12:26:56 2014

@<TRIPOS>MOLECULE
3ggc_H26_1_INTS_M
   39     0     9     0     0
SMALL
NO_CHARGES


@<TRIPOS>ATOM
      1 N          22.8705   59.5130   12.7685 N.am      2 SEC2        0.0000 
      2 N          21.7310   60.1660   12.0890 N.am      8 SEL2        0.0000 
      3 N          24.0100   58.8600   13.4480 N.am      5 SEP2        0.0000 
      4 N          22.8845   60.9810   12.6540 N.am      2 SEC2        0.0000 
      5 N          24.0380   61.7960   13.2190 N.am      5 SEP2        0.0000 
      6 N          20.1280   62.7245   14.5925 N.am      2 SEC2        0.0000 
      7 N          20.3250   61.7710   13.4730 N.am      8 SEL2        0.0000 
      8 N          19.9310   63.6780   15.7120 N.am      5 SEP2        0.0000 
      9 N          19.1530   62.5655   13.4630 N.am      2 SEC2        0.0000 
     10 N          17.9810   63.3600   13.4530 N.am      5 SEP2        0.0000 
     11 N          21.2760   58.1195   14.1545 N.am      2 SEC2        0.0000 
     12 N          20.9540   59.4800   14.3890 N.am      8 SEL2        0.0000 
     13 N          21.5980   56.7590   13.9200 N.am      5 SEP2        0.0000 
     14 N          22.1140   59.7530   15.0735 N.am      2 SEC2        0.0000 
     15 N          23.2740   60.0260   15.7580 N.am      5 SEP2        0.0000 
     16 CA         18.4615   61.3180   13.6245 C.3       3 GLC5        0.0000 
     17 CA         19.1820   59.6540   12.4340 C.3       9 GLL5        0.0000 
     18 CA         17.7410   62.9820   14.8150 C.3       6 GLP5        0.0000 
     19 CA         17.3485   56.8105   10.3505 C.3       3 GLC5        0.0000 
     20 CA         17.8870   58.6630    9.3910 C.3       9 GLL5        0.0000 
     21 CA         16.8100   54.9580   11.3100 C.3       6 GLP5        0.0000 
     22 N          22.0795   54.6270    8.0020 N.am      2 SEC2        0.0000 
     23 N          21.0090   55.8750    8.1240 N.am      8 SEL2        0.0000 
     24 N          23.1500   53.3790    7.8800 N.am      5 SEP2        0.0000 
     25 CA         19.6100   54.0650    9.0355 C.3       3 GLC5        0.0000 
     26 CA         19.9850   55.2570    7.5040 C.3       9 GLL5        0.0000 
     27 CA         19.2350   52.8730   10.5670 C.3       6 GLP5        0.0000 
     28 O          18.2440   52.4340    5.8355 O.2       1 ALC1        0.0000 
     29 O          18.6340   53.6500    6.4190 O.2       7 ALL1        0.0000 
     30 O          17.8540   51.2180    5.2520 O.2       4 ALP1        0.0000 
     31 N          21.9835   53.2140    7.4935 N.am      2 SEC2        0.0000 
     32 N          20.8170   53.0490    7.1070 N.am      8 SEL2        0.0000 
     33 N          20.7270   51.8355    6.2025 N.am      2 SEC2        0.0000 
     34 N          20.6370   50.6220    5.2980 N.am      5 SEP2        0.0000 
     35 CA         19.4985   61.4943   11.2965 C.3       3 GLC5        0.0000 
     36 CA         19.4320   59.5390   10.9380 C.3       9 GLL5        0.0000 
     37 CA         19.6900   63.3920   10.9070 C.3       6 GLP5        0.0000 
     38 CA         20.9215   58.4213   11.7025 C.3       3 GLC5        0.0000 
     39 CA         22.5360   57.2460   11.7190 C.3       6 GLP5        0.0000 
@<TRIPOS>BOND
@<TRIPOS>SUBSTRUCTURE
     1 ALC1       28 GROUP        1 X    ALC  0     ROOT ALC X 1
     2 SEC2        1 GROUP        1 X    SEC  0     **** SEC X 2
     3 GLC5       16 GROUP        1 X    GLC  0     **** GLC X 6
     4 ALP1       30 GROUP        1 Y    ALP  0     ROOT ALP Y 8
     5 SEP2        3 GROUP        1 Y    SEP  0     **** SEP Y 9
     6 GLP5       18 GROUP        1 Y    GLP  0     **** GLP Y 13
     7 ALL1       29 GROUP        1 Z    ALL  0     ROOT ALL Z 15
     8 SEL2        2 GROUP        1 Z    SEL  0     **** SEL Z 16
     9 GLL5       17 GROUP        1 Z    GLL  0     **** GLL Z 20
@<TRIPOS>SET

