#    Name: 3ggc_H26_1_ligand
#    Modification time : Tue Mar 25 12:26:56 2014

@<TRIPOS>MOLECULE
3ggc_H26_1_ligand
   30    31     1     0     0
SMALL
NO_CHARGES


@<TRIPOS>ATOM
      1 OAD        21.7310   60.1660   12.0890 O.co2     1 H26218      0.0000 
      2 PAT        20.6880   60.3340   13.1700 P.3       1 H26218      0.0000 
      3 OAE        20.3250   61.7710   13.4730 O.co2     1 H26218      0.0000 
      4 OAC        20.9540   59.4800   14.3890 O.co2     1 H26218      0.0000 
      5 CAJ        19.1820   59.6540   12.4340 C.3       1 H26218      0.0000 
      6 CAH        19.4320   59.5390   10.9380 C.3       1 H26218      0.0000 
      7 OAN        18.7970   58.3610   10.4480 O.3       1 H26218      0.0000 
      8 CAG        17.8870   58.6630    9.3910 C.3       1 H26218      0.0000 
      9 CAI        18.6020   58.5710    8.0450 C.3       1 H26218      0.0000 
     10 N9         19.3670   57.3260    7.9430 N.pl3     1 H26218      0.0000 
     11 C8         20.6190   57.1440    8.3900 C.2       1 H26218      0.0000 
     12 N7         21.0090   55.8750    8.1240 N.2       1 H26218      0.0000 
     13 C4         18.9500   56.1760    7.3900 C.2       1 H26218      0.0000 
     14 C5         19.9850   55.2570    7.5040 C.2       1 H26218      0.0000 
     15 N3         17.7900   55.7990    6.7930 N.2       1 H26218      0.0000 
     16 C2         17.6450   54.5520    6.3190 C.2       1 H26218      0.0000 
     17 N1         18.6340   53.6500    6.4190 N.am      1 H26218      0.0000 
     18 C6         19.8130   53.9720    7.0070 C.2       1 H26218      0.0000 
     19 O6         20.8170   53.0490    7.1070 O.2       1 H26218      0.0000 
     20 H          18.4592   60.3705   12.6917 H         1 H26218      0.0000 
     21 H          19.0872   58.7297   12.9228 H         1 H26218      0.0000 
     22 H          20.5145   59.5140   10.7781 H         1 H26218      0.0000 
     23 H          19.0387   60.4418   10.4602 H         1 H26218      0.0000 
     24 H          17.4779   59.6770    9.4836 H         1 H26218      0.0000 
     25 H          17.0421   57.9632    9.3692 H         1 H26218      0.0000 
     26 H          19.2616   59.4414    7.9462 H         1 H26218      0.0000 
     27 H          17.8482   58.6298    7.2508 H         1 H26218      0.0000 
     28 H          21.1655   57.8130    8.8353 H         1 H26218      0.0000 
     29 H          16.7386   54.2758    5.8601 H         1 H26218      0.0000 
     30 H          18.4994   52.6823    6.0396 H         1 H26218      0.0000 
@<TRIPOS>BOND
     1    2    1 ar   
     2    3    2 ar   
     3    4    2 ar   
     4    5    2 1    
     5    6    5 1    
     6   20    5 1    
     7   21    5 1    
     8    7    6 1    
     9   22    6 1    
    10   23    6 1    
    11    8    7 1    
    12    9    8 1    
    13   24    8 1    
    14   25    8 1    
    15   10    9 1    
    16   26    9 1    
    17   27    9 1    
    18   11   10 1    
    19   13   10 1    
    20   12   11 2    
    21   28   11 1    
    22   14   12 1    
    23   14   13 2    
    24   15   13 1    
    25   18   14 1    
    26   16   15 2    
    27   17   16 1    
    28   29   16 1    
    29   18   17 am   
    30   30   17 1    
    31   19   18 2    
@<TRIPOS>SUBSTRUCTURE
     1 H26218      1 GROUP   
@<TRIPOS>SET

