#    Name: 1re8_BD2_1_INTS_M
#    Modification time : Tue Mar 25 00:33:09 2014

@<TRIPOS>MOLECULE
1re8_BD2_1_INTS_M
   99     0    12     0     0
SMALL
NO_CHARGES


@<TRIPOS>ATOM
      1 N          18.3515   38.3700   21.0105 N.am      2 SEC2        0.0000 
      2 N          17.2500   39.0190   20.1380 N.am     10 SEL2        0.0000 
      3 N          19.4530   37.7210   21.8830 N.am      6 SEP2        0.0000 
      4 O          18.2185   39.9160   20.1550 O.2       1 ALC1        0.0000 
      5 O          17.2500   39.0190   20.1380 O.2       9 ALL1        0.0000 
      6 O          19.1870   40.8130   20.1720 O.2       5 ALP1        0.0000 
      7 CA         16.4110   42.0505   21.0030 C.3       4 GLC5        0.0000 
      8 CA         15.5600   40.6340   19.7310 C.3      12 GLL5        0.0000 
      9 CA         17.2620   43.4670   22.2750 C.3       8 GLP5        0.0000 
     10 CA         15.3620   42.5200   18.9945 C.3       4 GLC5        0.0000 
     11 CA         15.1640   44.4060   18.2580 C.3       8 GLP5        0.0000 
     12 CA         14.5590   42.1930   18.1480 C.3       4 GLC5        0.0000 
     13 CA         14.2200   40.9310   19.5050 C.3      12 GLL5        0.0000 
     14 CA         14.8980   43.4550   16.7910 C.3       8 GLP5        0.0000 
     15 CA         13.2750   41.9860   21.0325 C.3       4 GLC5        0.0000 
     16 CA         12.3300   43.0410   22.5600 C.3       8 GLP5        0.0000 
     17 CA         12.2890   40.9105   21.1095 C.3       4 GLC5        0.0000 
     18 CA         13.2670   39.8980   19.4620 C.3      12 GLL5        0.0000 
     19 CA         11.3110   41.9230   22.7570 C.3       8 GLP5        0.0000 
     20 CA         15.3960   36.8610   18.3770 C.3       4 GLC5        0.0000 
     21 CA         15.0220   38.2770   19.8690 C.3      12 GLL5        0.0000 
     22 CA         15.7700   35.4450   16.8850 C.3       8 GLP5        0.0000 
     23 CA         16.2820   38.9460   18.3860 C.3       4 GLC5        0.0000 
     24 CA         17.5420   39.6150   16.9030 C.3       8 GLP5        0.0000 
     25 N          12.0280   42.3410   20.2955 N.am      2 SEC2        0.0000 
     26 N          11.5140   41.3510   19.4060 N.am     10 SEL2        0.0000 
     27 N          12.5420   43.3310   21.1850 N.am      6 SEP2        0.0000 
     28 CA         10.2150   40.0060   16.7935 C.3       4 GLC5        0.0000 
     29 CA          8.6060   39.5970   18.1760 C.3      12 GLL5        0.0000 
     30 CA         11.8240   40.4150   15.4110 C.3       8 GLP5        0.0000 
     31 CA          8.2190   37.1355   16.8785 C.3       4 GLC5        0.0000 
     32 CA          7.3800   38.7050   18.0430 C.3      12 GLL5        0.0000 
     33 CA          9.0580   35.5660   15.7140 C.3       8 GLP5        0.0000 
     34 CA          5.9115   38.1585   22.1450 C.3       4 GLC5        0.0000 
     35 CA          6.9100   38.6030   20.5000 C.3      12 GLL5        0.0000 
     36 CA          4.9130   37.7140   23.7900 C.3       8 GLP5        0.0000 
     37 OD1         8.1185   40.8360   21.0525 O.co2     3 ASC3        0.0000 
     38 OD1         7.9670   39.5040   20.9410 O.co2    11 ASL3        0.0000 
     39 OD1         8.2700   42.1680   21.1640 O.co2     7 ASP3        0.0000 
     40 OD1         7.5150   41.3085   20.2875 O.co2     3 ASC3        0.0000 
     41 OD1         7.0630   43.1130   19.6340 O.co2     7 ASP3        0.0000 
     42 CA          9.4625   37.2910   21.9505 C.3       4 GLC5        0.0000 
     43 CA          9.2740   38.9430   20.6460 C.3      12 GLL5        0.0000 
     44 CA          9.6510   35.6390   23.2550 C.3       8 GLP5        0.0000 
     45 CA         10.2925   40.4330   21.7015 C.3       4 GLC5        0.0000 
     46 CA          9.6900   40.9985   15.4065 C.3       4 GLC5        0.0000 
     47 CA          7.5560   41.5820   15.4020 C.3      12 GLL5        0.0000 
     48 CA          8.4400   40.4180   12.6855 C.3       4 GLC5        0.0000 
     49 CA          7.5900   41.6930   14.0050 C.3      12 GLL5        0.0000 
     50 CA          9.2900   39.1430   11.3660 C.3       8 GLP5        0.0000 
     51 CA          6.9815   42.0680   11.3405 C.3       4 GLC5        0.0000 
     52 CA          6.8540   42.6900   13.3670 C.3      12 GLL5        0.0000 
     53 CA          7.1090   41.4460    9.3140 C.3       8 GLP5        0.0000 
     54 N           4.2015   43.8170   11.2685 N.am      2 SEC2        0.0000 
     55 N           4.9900   44.3650   12.2710 N.am     10 SEL2        0.0000 
     56 N           3.4130   43.2690   10.2660 N.am      6 SEP2        0.0000 
     57 CA          2.3050   44.8340   13.1200 C.3       4 GLC5        0.0000 
     58 CA          3.6740   46.1440   14.1670 C.3      12 GLL5        0.0000 
     59 CA          0.9360   43.5240   12.0730 C.3       8 GLP5        0.0000 
     60 CA          3.9140   50.4210   15.0315 C.3       4 GLC5        0.0000 
     61 CA          4.2900   48.2590   15.1650 C.3      12 GLL5        0.0000 
     62 CA          3.5380   52.5830   14.8980 C.3       8 GLP5        0.0000 
     63 CA          5.9630   49.1605   13.1825 C.3       4 GLC5        0.0000 
     64 CA          5.6400   47.9370   15.0230 C.3      12 GLL5        0.0000 
     65 CA          6.2860   50.3840   11.3420 C.3       8 GLP5        0.0000 
     66 CA          7.9110   45.6220   14.7210 C.3       4 GLC5        0.0000 
     67 CA          6.0170   46.7200   14.4480 C.3      12 GLL5        0.0000 
     68 CA          9.8050   44.5240   14.9940 C.3       8 GLP5        0.0000 
     69 CA          7.4595   47.0505   12.8920 C.3       4 GLC5        0.0000 
     70 CA          8.9020   47.3810   11.3360 C.3       8 GLP5        0.0000 
     71 N           8.3420   45.7625   15.2855 N.am      2 SEC2        0.0000 
     72 N           7.3150   46.4200   14.3260 N.am     10 SEL2        0.0000 
     73 N           9.3690   45.1050   16.2450 N.am      6 SEP2        0.0000 
     74 O           8.1490   47.4040   14.9395 O.2       1 ALC1        0.0000 
     75 O           7.3150   46.4200   14.3260 O.2       9 ALL1        0.0000 
     76 O           8.9830   48.3880   15.5530 O.2       5 ALP1        0.0000 
     77 CA         15.2005   39.8247   21.5205 C.3       4 GLC5        0.0000 
     78 CA         15.9620   39.3050   19.9190 C.3      12 GLL5        0.0000 
     79 CA         14.6400   39.6800   23.2160 C.3       8 GLP5        0.0000 
     80 CA         13.7812   39.7497   17.5718 C.3       4 GLC5        0.0000 
     81 CA         13.8190   39.0850   15.6600 C.3       8 GLP5        0.0000 
     82 CA         16.2662   40.0326   18.2840 C.3       4 GLC5        0.0000 
     83 CA         14.1917   40.0472   21.3498 C.3       4 GLC5        0.0000 
     84 CA         14.0832   38.7550   17.7072 C.3       4 GLC5        0.0000 
     85 CA         13.6730   38.5730   19.6400 C.3      12 GLL5        0.0000 
     86 CA         14.4938   39.0525   21.4853 C.3       4 GLC5        0.0000 
     87 CA          5.9075   41.0002   14.1948 C.3       4 GLC5        0.0000 
     88 CA          4.2420   40.3630   13.6860 C.3       8 GLP5        0.0000 
     89 CA          8.6890   43.0807   14.8488 C.3       4 GLC5        0.0000 
     90 CA          5.3558   41.7540   13.7112 C.3       4 GLC5        0.0000 
     91 CA          8.1372   43.8345   14.3652 C.3       4 GLC5        0.0000 
     92 CA          7.7197   43.8899   12.5650 C.3       4 GLC5        0.0000 
     93 CA          6.0850   43.6000   14.1060 C.3      12 GLL5        0.0000 
     94 CA          8.7860   44.8840   11.2340 C.3       8 GLP5        0.0000 
     95 CA          5.3335   41.6777   14.7562 C.3       4 GLC5        0.0000 
     96 CA          6.0590   43.4990   15.5040 C.3      12 GLL5        0.0000 
     97 CA          8.1150   43.7582   15.4102 C.3       4 GLC5        0.0000 
     98 CA          6.0525   48.2560   16.4605 C.3       4 GLC5        0.0000 
     99 CA          6.6140   49.1030   18.1500 C.3       8 GLP5        0.0000 
@<TRIPOS>BOND
@<TRIPOS>SUBSTRUCTURE
     1 ALC1        4 GROUP        1 X    ALC  0     ROOT ALC X 1
     2 SEC2        1 GROUP        1 X    SEC  0     **** SEC X 2
     3 ASC3       37 GROUP        1 X    ASC  0     **** ASC X 3
     4 GLC5        7 GROUP        1 X    GLC  0     **** GLC X 6
     5 ALP1        6 GROUP        1 Y    ALP  0     ROOT ALP Y 8
     6 SEP2        3 GROUP        1 Y    SEP  0     **** SEP Y 9
     7 ASP3       39 GROUP        1 Y    ASP  0     **** ASP Y 10
     8 GLP5        9 GROUP        1 Y    GLP  0     **** GLP Y 13
     9 ALL1        5 GROUP        1 Z    ALL  0     ROOT ALL Z 15
    10 SEL2        2 GROUP        1 Z    SEL  0     **** SEL Z 16
    11 ASL3       38 GROUP        1 Z    ASL  0     **** ASL Z 17
    12 GLL5        8 GROUP        1 Z    GLL  0     **** GLL Z 20
@<TRIPOS>SET

