#    Name: 1re8_BD2_1_ligand
#    Modification time : Tue Mar 25 00:33:09 2014

@<TRIPOS>MOLECULE
1re8_BD2_1_ligand
   60    63     1     0     0
SMALL
NO_CHARGES


@<TRIPOS>ATOM
      1 O1         17.2500   39.0190   20.1380 O.3       1 BD2351      0.0000 
      2 C1         15.9620   39.3050   19.9190 C.ar      1 BD2351      0.0000 
      3 C2         15.5600   40.6340   19.7310 C.ar      1 BD2351      0.0000 
      4 C3         14.2200   40.9310   19.5050 C.ar      1 BD2351      0.0000 
      5 C4         13.2670   39.8980   19.4620 C.ar      1 BD2351      0.0000 
      6 C5         13.6730   38.5730   19.6400 C.ar      1 BD2351      0.0000 
      7 C6         15.0220   38.2770   19.8690 C.ar      1 BD2351      0.0000 
      8 C7         11.9300   40.1900   19.2320 C.2       1 BD2351      0.0000 
      9 O7         11.5140   41.3510   19.4060 O.2       1 BD2351      0.0000 
     10 N8         11.0860   39.2270   18.8290 N.am      1 BD2351      0.0000 
     11 C8          9.6810   39.2580   19.2150 C.3       1 BD2351      0.0000 
     12 C9          8.6060   39.5970   18.1760 C.3       1 BD2351      0.0000 
     13 C10         7.3800   38.7050   18.0430 C.3       1 BD2351      0.0000 
     14 C11         6.3740   39.0360   19.1410 C.3       1 BD2351      0.0000 
     15 C12         6.9100   38.6030   20.5000 C.3       1 BD2351      0.0000 
     16 N13         7.9670   39.5040   20.9410 N.4       1 BD2351      0.0000 
     17 C14         9.2740   38.9430   20.6460 C.3       1 BD2351      0.0000 
     18 O9          8.7430   40.7760   17.3730 O.3       1 BD2351      0.0000 
     19 C15         8.2870   40.5830   16.0360 C.2       1 BD2351      0.0000 
     20 O15         8.5550   39.5230   15.4270 O.2       1 BD2351      0.0000 
     21 C16         7.5560   41.5820   15.4020 C.ar      1 BD2351      0.0000 
     22 C17         7.5900   41.6930   14.0050 C.ar      1 BD2351      0.0000 
     23 C18         6.8540   42.6900   13.3670 C.ar      1 BD2351      0.0000 
     24 C19         6.0850   43.6000   14.1060 C.ar      1 BD2351      0.0000 
     25 C20         6.0590   43.4990   15.5040 C.ar      1 BD2351      0.0000 
     26 C21         6.7910   42.4860   16.1490 C.ar      1 BD2351      0.0000 
     27 C22         5.3620   44.5860   13.4360 C.2       1 BD2351      0.0000 
     28 O22         4.9900   44.3650   12.2710 O.2       1 BD2351      0.0000 
     29 C23         5.0260   45.8130   14.0180 C.ar      1 BD2351      0.0000 
     30 C24         3.6740   46.1440   14.1670 C.ar      1 BD2351      0.0000 
     31 C25         3.3040   47.3720   14.7390 C.ar      1 BD2351      0.0000 
     32 C26         4.2900   48.2590   15.1650 C.ar      1 BD2351      0.0000 
     33 C27         5.6400   47.9370   15.0230 C.ar      1 BD2351      0.0000 
     34 C28         6.0170   46.7200   14.4480 C.ar      1 BD2351      0.0000 
     35 O28         7.3150   46.4200   14.3260 O.3       1 BD2351      0.0000 
     36 H          16.2585   41.3860   19.7609 H         1 BD2351      0.0000 
     37 H          13.9199   41.9027   19.3687 H         1 BD2351      0.0000 
     38 H          12.9823   37.8148   19.6030 H         1 BD2351      0.0000 
     39 H          15.3159   37.3027   19.9997 H         1 BD2351      0.0000 
     40 H          11.3859   38.4355   18.2390 H         1 BD2351      0.0000 
     41 H           9.7856   40.6571   19.5546 H         1 BD2351      0.0000 
     42 H           9.2983   38.8068   17.1998 H         1 BD2351      0.0000 
     43 H           7.6784   37.6646   18.1311 H         1 BD2351      0.0000 
     44 H           6.9190   38.8662   17.0731 H         1 BD2351      0.0000 
     45 H           5.4392   38.5177   18.9401 H         1 BD2351      0.0000 
     46 H           6.1917   40.1081   19.1501 H         1 BD2351      0.0000 
     47 H           7.2826   37.5764   20.4109 H         1 BD2351      0.0000 
     48 H           6.0771   38.5985   21.2120 H         1 BD2351      0.0000 
     49 H          10.0382   39.3527   21.3185 H         1 BD2351      0.0000 
     50 H           9.2706   37.8527   20.7700 H         1 BD2351      0.0000 
     51 H           8.1577   41.0387   13.4554 H         1 BD2351      0.0000 
     52 H           6.8730   42.7622   12.3379 H         1 BD2351      0.0000 
     53 H           5.5081   44.1612   16.0569 H         1 BD2351      0.0000 
     54 H           6.7625   42.4114   17.1721 H         1 BD2351      0.0000 
     55 H           2.9482   45.4874   13.8573 H         1 BD2351      0.0000 
     56 H           2.3138   47.6093   14.8401 H         1 BD2351      0.0000 
     57 H           4.0214   49.1593   15.5880 H         1 BD2351      0.0000 
     58 H           6.3612   48.5965   15.3421 H         1 BD2351      0.0000 
     59 H          17.7237   39.8977   20.0793 H         1 BD2351      0.0000 
     60 H           7.7979   47.1761   14.7678 H         1 BD2351      0.0000 
@<TRIPOS>BOND
     1    2    1 1    
     2   59    1 1    
     3    3    2 ar   
     4    7    2 ar   
     5    4    3 ar   
     6   36    3 1    
     7    5    4 ar   
     8   37    4 1    
     9    6    5 ar   
    10    8    5 1    
    11    7    6 ar   
    12   38    6 1    
    13   39    7 1    
    14    9    8 2    
    15   10    8 am   
    16   11   10 1    
    17   40   10 1    
    18   12   11 1    
    19   17   11 1    
    20   41   11 1    
    21   13   12 1    
    22   18   12 1    
    23   42   12 1    
    24   14   13 1    
    25   43   13 1    
    26   44   13 1    
    27   15   14 1    
    28   45   14 1    
    29   46   14 1    
    30   16   15 1    
    31   47   15 1    
    32   48   15 1    
    33   17   16 1    
    34   49   17 1    
    35   50   17 1    
    36   19   18 1    
    37   20   19 2    
    38   21   19 1    
    39   22   21 ar   
    40   26   21 ar   
    41   23   22 ar   
    42   51   22 1    
    43   24   23 ar   
    44   52   23 1    
    45   25   24 ar   
    46   27   24 1    
    47   26   25 ar   
    48   53   25 1    
    49   54   26 1    
    50   28   27 2    
    51   29   27 1    
    52   30   29 ar   
    53   34   29 ar   
    54   31   30 ar   
    55   55   30 1    
    56   32   31 ar   
    57   56   31 1    
    58   33   32 ar   
    59   57   32 1    
    60   34   33 ar   
    61   58   33 1    
    62   35   34 1    
    63   60   35 1    
@<TRIPOS>SUBSTRUCTURE
     1 BD2351      1 GROUP   
@<TRIPOS>SET

