#    Name: 3v01_3V0_1_INTS_M
#    Modification time : Mon Mar 24 23:48:43 2014

@<TRIPOS>MOLECULE
3v01_3V0_1_INTS_M
   65     0     9     0     0
SMALL
NO_CHARGES


@<TRIPOS>ATOM
      1 CA         38.3610   31.2085  -12.8055 C.3       3 GLC5        0.0000 
      2 CA         36.3800   32.1770  -12.8910 C.3       9 GLL5        0.0000 
      3 CA         40.3420   30.2400  -12.7200 C.3       6 GLP5        0.0000 
      4 CA         38.1930   33.0385  -13.2825 C.3       3 GLC5        0.0000 
      5 CA         40.0060   33.9000  -13.6740 C.3       6 GLP5        0.0000 
      6 CA         36.0495   33.8590  -13.8075 C.3       3 GLC5        0.0000 
      7 CA         35.7190   35.5410  -14.7240 C.3       6 GLP5        0.0000 
      8 CA         31.2065   28.1255  -18.3380 C.3       3 GLC5        0.0000 
      9 CA         32.7410   27.3960  -18.1450 C.3       9 GLL5        0.0000 
     10 CA         29.6720   28.8550  -18.5310 C.3       6 GLP5        0.0000 
     11 CA         31.8655   26.1205  -19.2065 C.3       3 GLC5        0.0000 
     12 CA         30.9900   24.8450  -20.2680 C.3       6 GLP5        0.0000 
     13 CA         38.3270   25.0700  -17.2395 C.3       3 GLC5        0.0000 
     14 CA         36.5850   23.7900  -17.6960 C.3       9 GLL5        0.0000 
     15 CA         40.0690   26.3500  -16.7830 C.3       6 GLP5        0.0000 
     16 CA         35.8290   21.8750  -17.7590 C.3       3 GLC5        0.0000 
     17 CA         35.0730   19.9600  -17.8220 C.3       6 GLP5        0.0000 
     18 CA         37.1090   23.6390  -15.8255 C.3       3 GLC5        0.0000 
     19 CA         37.6330   23.4880  -13.9550 C.3       6 GLP5        0.0000 
     20 N          38.3140   31.9945  -13.6535 N.am      2 SEC2        0.0000 
     21 N          36.8750   31.5010  -13.9350 N.am      8 SEL2        0.0000 
     22 N          39.7530   32.4880  -13.3720 N.am      5 SEP2        0.0000 
     23 N          29.8280   28.4720  -15.9305 N.am      2 SEC2        0.0000 
     24 N          30.8060   29.2540  -15.4270 N.am      8 SEL2        0.0000 
     25 N          28.8500   27.6900  -16.4340 N.am      5 SEP2        0.0000 
     26 CA         37.1290   31.1020  -16.3100 C.3       3 GLC5        0.0000 
     27 CA         36.1230   30.7070  -14.7220 C.3       9 GLL5        0.0000 
     28 CA         38.1350   31.4970  -17.8980 C.3       6 GLP5        0.0000 
     29 CA         37.7770   30.1590  -14.8765 C.3       3 GLC5        0.0000 
     30 CA         39.4310   29.6110  -15.0310 C.3       6 GLP5        0.0000 
     31 N          28.8995   28.5820  -15.0080 N.am      2 SEC2        0.0000 
     32 N          28.9490   29.4740  -13.5820 N.am      8 SEL2        0.0000 
     33 O          26.0445   28.9550  -16.2410 O.2       1 ALC1        0.0000 
     34 O          26.9180   30.0690  -15.6720 O.2       7 ALL1        0.0000 
     35 O          25.1710   27.8410  -16.8100 O.2       4 ALP1        0.0000 
     36 CA         32.5345   32.5365  -12.8400 C.3       3 GLC5        0.0000 
     37 CA         34.2430   31.2440  -13.3460 C.3       9 GLL5        0.0000 
     38 CA         30.8260   33.8290  -12.3340 C.3       6 GLP5        0.0000 
     39 CA         31.6630   32.0080  -13.2400 C.3       3 GLC5        0.0000 
     40 CA         32.5000   30.1870  -14.1460 C.3       9 GLL5        0.0000 
     41 CA         33.9325   30.3150  -17.1405 C.3       3 GLC5        0.0000 
     42 CA         33.6850   29.8850  -14.9840 C.3       9 GLL5        0.0000 
     43 CA         34.1800   30.7450  -19.2970 C.3       6 GLP5        0.0000 
     44 CA         34.2010   29.2985  -17.8120 C.3       3 GLC5        0.0000 
     45 CA         34.2220   27.8520  -16.3270 C.3       9 GLL5        0.0000 
     46 CA         33.3095   26.5885  -15.4800 C.3       3 GLC5        0.0000 
     47 CA         33.8150   27.0770  -17.4160 C.3       9 GLL5        0.0000 
     48 CA         32.8040   26.1000  -13.5440 C.3       6 GLP5        0.0000 
     49 CA         36.5298   30.9985  -11.5463 C.3       3 GLC5        0.0000 
     50 CA         35.0390   32.0570  -12.5640 C.3       9 GLL5        0.0000 
     51 CA         37.3500   29.8800  -10.3650 C.3       6 GLP5        0.0000 
     52 CA         35.9463   33.1025  -11.1663 C.3       3 GLC5        0.0000 
     53 CA         36.1830   34.0880   -9.6050 C.3       6 GLP5        0.0000 
     54 CA         34.6155   32.7403  -14.5305 C.3       3 GLC5        0.0000 
     55 CA         34.5900   33.8300  -16.1060 C.3       6 GLP5        0.0000 
     56 CA         32.9483   28.0680  -14.0545 C.3       3 GLC5        0.0000 
     57 CA         34.5791   32.0455  -15.4438 C.3       3 GLC5        0.0000 
     58 CA         37.3402   26.7933  -17.5275 C.3       3 GLC5        0.0000 
     59 CA         36.0340   26.2920  -15.9800 C.3       9 GLL5        0.0000 
     60 CA         38.8590   27.6670  -18.5240 C.3       6 GLP5        0.0000 
     61 CA         34.1071   26.5336  -14.7603 C.3       3 GLC5        0.0000 
     62 CA         34.4030   27.4414  -19.3781 C.3       3 GLC5        0.0000 
     63 CA         34.9170   28.2940  -20.9710 C.3       6 GLP5        0.0000 
     64 CA         33.2403   25.1170  -18.7460 C.3       3 GLC5        0.0000 
     65 CA         32.3230   23.7250  -19.8890 C.3       6 GLP5        0.0000 
@<TRIPOS>BOND
@<TRIPOS>SUBSTRUCTURE
     1 ALC1       33 GROUP        1 X    ALC  0     ROOT ALC X 1
     2 SEC2       20 GROUP        1 X    SEC  0     **** SEC X 2
     3 GLC5        1 GROUP        1 X    GLC  0     **** GLC X 6
     4 ALP1       35 GROUP        1 Y    ALP  0     ROOT ALP Y 8
     5 SEP2       22 GROUP        1 Y    SEP  0     **** SEP Y 9
     6 GLP5        3 GROUP        1 Y    GLP  0     **** GLP Y 13
     7 ALL1       34 GROUP        1 Z    ALL  0     ROOT ALL Z 15
     8 SEL2       21 GROUP        1 Z    SEL  0     **** SEL Z 16
     9 GLL5        2 GROUP        1 Z    GLL  0     **** GLL Z 20
@<TRIPOS>SET

