#    Name: 3v01_3V0_1_ligand
#    Modification time : Mon Mar 24 23:48:43 2014

@<TRIPOS>MOLECULE
3v01_3V0_1_ligand
   42    44     1     0     0
SMALL
NO_CHARGES


@<TRIPOS>ATOM
      1 C1         36.3800   32.1770  -12.8910 C.ar      1 3V0501      0.0000 
      2 F1         32.7410   27.3960  -18.1450 F         1 3V0501      0.0000 
      3 I1         36.5850   23.7900  -17.6960 I         1 3V0501      0.0000 
      4 N1         36.8750   31.5010  -13.9350 N.ar      1 3V0501      0.0000 
      5 O1         32.8520   31.0430  -13.1490 O.3       1 3V0501      0.0000 
      6 C2         35.0390   32.0570  -12.5640 C.ar      1 3V0501      0.0000 
      7 N2         30.2320   29.8790  -13.3730 N.am      1 3V0501      0.0000 
      8 O2         30.8060   29.2540  -15.4270 O.2       1 3V0501      0.0000 
      9 C3         36.1230   30.7070  -14.7220 C.ar      1 3V0501      0.0000 
     10 N3         33.5250   29.0010  -16.0330 N.pl3     1 3V0501      0.0000 
     11 O3         28.9490   29.4740  -13.5820 O.3       1 3V0501      0.0000 
     12 C4         34.7800   30.5670  -14.4360 C.ar      1 3V0501      0.0000 
     13 O4         26.9180   30.0690  -15.6720 O.3       1 3V0501      0.0000 
     14 C5         34.2430   31.2440  -13.3460 C.ar      1 3V0501      0.0000 
     15 O5         25.5900   32.1070  -14.9150 O.3       1 3V0501      0.0000 
     16 C6         32.5000   30.1870  -14.1460 C.2       1 3V0501      0.0000 
     17 C7         33.6850   29.8850  -14.9840 C.2       1 3V0501      0.0000 
     18 C8         31.1120   29.7240  -14.3440 C.2       1 3V0501      0.0000 
     19 C9         34.2220   27.8520  -16.3270 C.ar      1 3V0501      0.0000 
     20 C10        35.3510   27.4330  -15.6190 C.ar      1 3V0501      0.0000 
     21 C11        36.0340   26.2920  -15.9800 C.ar      1 3V0501      0.0000 
     22 C12        35.6090   25.5470  -17.0820 C.ar      1 3V0501      0.0000 
     23 C13        34.5000   25.9410  -17.7900 C.ar      1 3V0501      0.0000 
     24 C14        33.8150   27.0770  -17.4160 C.ar      1 3V0501      0.0000 
     25 C15        27.8900   30.4230  -13.4050 C.3       1 3V0501      0.0000 
     26 C16        26.6570   30.0690  -14.2410 C.3       1 3V0501      0.0000 
     27 C17        25.5890   31.1000  -13.8980 C.3       1 3V0501      0.0000 
     28 H          36.9818   32.7948  -12.3148 H         1 3V0501      0.0000 
     29 H          34.6516   32.5578  -11.7649 H         1 3V0501      0.0000 
     30 H          30.4930   30.2987  -12.4619 H         1 3V0501      0.0000 
     31 H          36.5282   30.2075  -15.5254 H         1 3V0501      0.0000 
     32 H          32.7187   29.2555  -16.7382 H         1 3V0501      0.0000 
     33 H          35.6737   27.9954  -14.8099 H         1 3V0501      0.0000 
     34 H          36.8557   25.9829  -15.4445 H         1 3V0501      0.0000 
     35 H          34.1785   25.3890  -18.6008 H         1 3V0501      0.0000 
     36 H          28.2072   31.4407  -13.6948 H         1 3V0501      0.0000 
     37 H          27.5707   30.4794  -12.3490 H         1 3V0501      0.0000 
     38 H          26.2949   29.1060  -13.9061 H         1 3V0501      0.0000 
     39 H          24.6293   30.5853  -13.8390 H         1 3V0501      0.0000 
     40 H          25.8231   31.5152  -12.9170 H         1 3V0501      0.0000 
     41 H          26.3108   29.3678  -16.0457 H         1 3V0501      0.0000 
     42 H          25.9301   31.6463  -15.7348 H         1 3V0501      0.0000 
@<TRIPOS>BOND
     1    4    1 ar   
     2    6    1 ar   
     3   28    1 1    
     4   24    2 1    
     5   22    3 1    
     6    9    4 ar   
     7   14    5 1    
     8   16    5 1    
     9   14    6 ar   
    10   29    6 1    
    11   11    7 1    
    12   18    7 am   
    13   30    7 1    
    14   18    8 2    
    15   12    9 ar   
    16   31    9 1    
    17   17   10 1    
    18   19   10 1    
    19   32   10 1    
    20   25   11 1    
    21   14   12 ar   
    22   17   12 1    
    23   26   13 1    
    24   41   13 1    
    25   27   15 1    
    26   42   15 1    
    27   17   16 2    
    28   18   16 1    
    29   20   19 ar   
    30   24   19 ar   
    31   21   20 ar   
    32   33   20 1    
    33   22   21 ar   
    34   34   21 1    
    35   23   22 ar   
    36   24   23 ar   
    37   35   23 1    
    38   26   25 1    
    39   36   25 1    
    40   37   25 1    
    41   27   26 1    
    42   38   26 1    
    43   39   27 1    
    44   40   27 1    
@<TRIPOS>SUBSTRUCTURE
     1 3V0501      1 GROUP   
@<TRIPOS>SET

