#    Name: 4acd_GR9_1_INTS_M
#    Modification time : Tue Mar 25 05:27:10 2014

@<TRIPOS>MOLECULE
4acd_GR9_1_INTS_M
   66     0     9     0     0
SMALL
NO_CHARGES


@<TRIPOS>ATOM
      1 CA         25.4625  -22.1920   12.2630 C.3       3 GLC5        0.0000 
      2 CA         27.6330  -21.8810   12.3420 C.3       9 GLL5        0.0000 
      3 CA         23.2920  -22.5030   12.1840 C.3       6 GLP5        0.0000 
      4 CA         27.8680  -18.3185    7.0270 C.3       3 GLC5        0.0000 
      5 CA         26.3610  -18.8110    8.5150 C.3       9 GLL5        0.0000 
      6 CA         29.3750  -17.8260    5.5390 C.3       6 GLP5        0.0000 
      7 CA         26.2620  -19.9335    6.2220 C.3       3 GLC5        0.0000 
      8 CA         25.1450  -18.8940    7.8650 C.3       9 GLL5        0.0000 
      9 CA         27.3790  -20.9730    4.5790 C.3       6 GLP5        0.0000 
     10 CA         26.2205  -16.5725    9.4810 C.3       3 GLC5        0.0000 
     11 CA         25.2570  -18.0960   10.5340 C.3       9 GLL5        0.0000 
     12 CA         27.1840  -15.0490    8.4280 C.3       6 GLP5        0.0000 
     13 CA         23.3335  -16.9960    7.1065 C.3       3 GLC5        0.0000 
     14 CA         22.6340  -18.6100    7.8570 C.3       9 GLL5        0.0000 
     15 CA         24.0330  -15.3820    6.3560 C.3       6 GLP5        0.0000 
     16 CA         21.8300  -20.6295    5.0930 C.3       3 GLC5        0.0000 
     17 CA         22.4390  -19.3250    6.6570 C.3       9 GLL5        0.0000 
     18 CA         21.2210  -21.9340    3.5290 C.3       6 GLP5        0.0000 
     19 CA         23.3510  -19.5495    4.6820 C.3       3 GLC5        0.0000 
     20 CA         24.2630  -19.7740    2.7070 C.3       6 GLP5        0.0000 
     21 CA         22.3330  -17.7250    5.7105 C.3       3 GLC5        0.0000 
     22 CA         22.2270  -16.1250    4.7640 C.3       6 GLP5        0.0000 
     23 N          22.1760  -19.8090    4.6690 N.am      2 SEC2        0.0000 
     24 N          21.2820  -19.2520    6.0170 N.am      8 SEL2        0.0000 
     25 N          23.0700  -20.3660    3.3210 N.am      5 SEP2        0.0000 
     26 CA         19.6510  -17.6785    4.5520 C.3       3 GLC5        0.0000 
     27 CA         20.2620  -18.5310    6.5060 C.3       9 GLL5        0.0000 
     28 CA         19.0400  -16.8260    2.5980 C.3       6 GLP5        0.0000 
     29 CA         19.5530  -18.9230    9.3355 C.3       3 GLC5        0.0000 
     30 CA         20.4330  -17.8180    7.7220 C.3       9 GLL5        0.0000 
     31 CA         18.6730  -20.0280   10.9490 C.3       6 GLP5        0.0000 
     32 CA         20.5920  -15.6410    7.3735 C.3       3 GLC5        0.0000 
     33 CA         20.7510  -13.4640    7.0250 C.3       6 GLP5        0.0000 
     34 CA         19.8265  -14.4595    8.6370 C.3       3 GLC5        0.0000 
     35 CA         18.9020  -15.4550   10.2490 C.3       9 GLL5        0.0000 
     36 CA         15.5965  -14.3795   11.8940 C.3       3 GLC5        0.0000 
     37 CA         17.4490  -13.7770   11.8680 C.3       9 GLL5        0.0000 
     38 CA         13.7440  -14.9820   11.9200 C.3       6 GLP5        0.0000 
     39 N          15.5210  -13.9995   11.1705 N.am      2 SEC2        0.0000 
     40 N          16.8710  -14.3760   10.8280 N.am      8 SEL2        0.0000 
     41 N          14.1710  -13.6230   11.5130 N.am      5 SEP2        0.0000 
     42 CA         17.7255  -16.7480   11.2925 C.3       3 GLC5        0.0000 
     43 CA         17.5370  -15.2090   10.0310 C.3       9 GLL5        0.0000 
     44 CA         17.9140  -18.2870   12.5540 C.3       6 GLP5        0.0000 
     45 CA         15.6885  -15.5940   10.4145 C.3       3 GLC5        0.0000 
     46 CA         13.8400  -15.9790   10.7980 C.3       6 GLP5        0.0000 
     47 CA         17.2025  -13.3725    9.2540 C.3       3 GLC5        0.0000 
     48 CA         16.8680  -11.5360    8.4770 C.3       6 GLP5        0.0000 
     49 O          19.0680  -19.2940    4.6685 O.2       1 ALC1        0.0000 
     50 O          19.0710  -18.4940    5.8060 O.2       7 ALL1        0.0000 
     51 O          19.0650  -20.0940    3.5310 O.2       4 ALP1        0.0000 
     52 CA         26.4784  -16.9011    8.4771 C.3       3 GLC5        0.0000 
     53 CA         22.9787  -20.2175    9.5710 C.3       3 GLC5        0.0000 
     54 CA         23.9600  -18.5870    8.5510 C.3       9 GLL5        0.0000 
     55 CA         21.9590  -22.0630    9.9220 C.3       6 GLP5        0.0000 
     56 CA         24.1639  -16.9154    7.7022 C.3       3 GLC5        0.0000 
     57 CA         24.0370  -18.1570    9.8890 C.3       9 GLL5        0.0000 
     58 CA         22.2477  -20.5153    8.5895 C.3       3 GLC5        0.0000 
     59 CA         19.4267  -19.9078    7.1025 C.3       3 GLC5        0.0000 
     60 CA         18.5060  -21.6410    7.0910 C.3       6 GLP5        0.0000 
     61 CA         21.2873  -17.1497    5.9390 C.3       3 GLC5        0.0000 
     62 CA         18.5478  -13.1472   10.1780 C.3       3 GLC5        0.0000 
     63 CA         17.8870  -11.1430    9.5620 C.3       6 GLP5        0.0000 
     64 CA         18.4576  -16.4239   12.0125 C.3       3 GLC5        0.0000 
     65 CA         18.7940  -13.9700   12.1480 C.3       9 GLL5        0.0000 
     66 CA         18.0042  -12.5083   10.7850 C.3       3 GLC5        0.0000 
@<TRIPOS>BOND
@<TRIPOS>SUBSTRUCTURE
     1 ALC1       49 GROUP        1 X    ALC  0     ROOT ALC X 1
     2 SEC2       23 GROUP        1 X    SEC  0     **** SEC X 2
     3 GLC5        1 GROUP        1 X    GLC  0     **** GLC X 6
     4 ALP1       51 GROUP        1 Y    ALP  0     ROOT ALP Y 8
     5 SEP2       25 GROUP        1 Y    SEP  0     **** SEP Y 9
     6 GLP5        3 GROUP        1 Y    GLP  0     **** GLP Y 13
     7 ALL1       50 GROUP        1 Z    ALL  0     ROOT ALL Z 15
     8 SEL2       24 GROUP        1 Z    SEL  0     **** SEL Z 16
     9 GLL5        2 GROUP        1 Z    GLL  0     **** GLL Z 20
@<TRIPOS>SET

