#    Name: 4acd_GR9_1_ligand
#    Modification time : Tue Mar 25 05:27:10 2014

@<TRIPOS>MOLECULE
4acd_GR9_1_ligand
   56    59     1     0     0
SMALL
NO_CHARGES


@<TRIPOS>ATOM
      1 C1         28.6260  -22.2340   10.1040 C.3       1 GR91385     0.0000 
      2 N2         28.5940  -22.6390   11.5260 N.4       1 GR91385     0.0000 
      3 C3         28.4150  -24.0830   11.7060 C.3       1 GR91385     0.0000 
      4 C4         27.6330  -21.8810   12.3420 C.3       1 GR91385     0.0000 
      5 C5         28.1180  -20.4220   12.4170 C.3       1 GR91385     0.0000 
      6 N6         28.4110  -19.9100   11.0560 N.pl3     1 GR91385     0.0000 
      7 S7         28.0170  -18.3430   10.7030 S.o2      1 GR91385     0.0000 
      8 O8         27.8260  -17.6930   11.9600 O.2       1 GR91385     0.0000 
      9 O9         28.9730  -17.8780    9.7470 O.2       1 GR91385     0.0000 
     10 C10        26.4400  -18.4140    9.8600 C.ar      1 GR91385     0.0000 
     11 C11        26.3610  -18.8110    8.5150 C.ar      1 GR91385     0.0000 
     12 C12        25.1450  -18.8940    7.8650 C.ar      1 GR91385     0.0000 
     13 C13        23.9600  -18.5870    8.5510 C.ar      1 GR91385     0.0000 
     14 C14        24.0370  -18.1570    9.8890 C.ar      1 GR91385     0.0000 
     15 C15        25.2570  -18.0960   10.5340 C.ar      1 GR91385     0.0000 
     16 C16        22.6340  -18.6100    7.8570 C.ar      1 GR91385     0.0000 
     17 C17        22.4390  -19.3250    6.6570 C.ar      1 GR91385     0.0000 
     18 N18        21.2820  -19.2520    6.0170 N.ar      1 GR91385     0.0000 
     19 C19        20.2620  -18.5310    6.5060 C.ar      1 GR91385     0.0000 
     20 C20        20.4330  -17.8180    7.7220 C.ar      1 GR91385     0.0000 
     21 N21        21.6220  -17.8810    8.3430 N.ar      1 GR91385     0.0000 
     22 C22        19.3740  -16.9660    8.3160 C.2       1 GR91385     0.0000 
     23 O23        18.2930  -16.8370    7.7550 O.2       1 GR91385     0.0000 
     24 N24        19.6900  -16.3120    9.4710 N.am      1 GR91385     0.0000 
     25 C25        18.9020  -15.4550   10.2490 C.ar      1 GR91385     0.0000 
     26 C26        19.5150  -14.8480   11.3390 C.ar      1 GR91385     0.0000 
     27 C27        18.7940  -13.9700   12.1480 C.ar      1 GR91385     0.0000 
     28 C28        17.4490  -13.7770   11.8680 C.ar      1 GR91385     0.0000 
     29 N29        16.8710  -14.3760   10.8280 N.ar      1 GR91385     0.0000 
     30 C30        17.5370  -15.2090   10.0310 C.ar      1 GR91385     0.0000 
     31 N31        19.0710  -18.4940    5.8060 N.pl3     1 GR91385     0.0000 
     32 C6         29.0610  -20.7580   10.0070 C.3       1 GR91385     0.0000 
     33 H          27.6427  -22.3300    9.6529 H         1 GR91385     0.0000 
     34 H          29.3375  -22.8364    9.5468 H         1 GR91385     0.0000 
     35 H          29.6259  -22.3971   11.9499 H         1 GR91385     0.0000 
     36 H          27.5812  -22.2747   13.3491 H         1 GR91385     0.0000 
     37 H          26.6482  -21.8897   11.8926 H         1 GR91385     0.0000 
     38 H          29.0121  -20.3895   13.0393 H         1 GR91385     0.0000 
     39 H          27.3388  -19.8256   12.8912 H         1 GR91385     0.0000 
     40 H          27.2352  -19.0434    8.0108 H         1 GR91385     0.0000 
     41 H          25.0978  -19.1797    6.8788 H         1 GR91385     0.0000 
     42 H          23.1724  -17.8889   10.3798 H         1 GR91385     0.0000 
     43 H          25.3037  -17.8125   11.5275 H         1 GR91385     0.0000 
     44 H          23.2293  -19.9000    6.3056 H         1 GR91385     0.0000 
     45 H          20.7050  -16.4725    9.8560 H         1 GR91385     0.0000 
     46 H          20.5019  -15.0453   11.5510 H         1 GR91385     0.0000 
     47 H          19.2440  -13.4873   12.9194 H         1 GR91385     0.0000 
     48 H          16.9011  -13.1468   12.4978 H         1 GR91385     0.0000 
     49 H          17.0754  -15.6936    9.2379 H         1 GR91385     0.0000 
     50 H          19.0462  -19.0137    4.9520 H         1 GR91385     0.0000 
     51 H          18.3374  -17.9507    6.2142 H         1 GR91385     0.0000 
     52 H          28.8009  -20.3872    9.0090 H         1 GR91385     0.0000 
     53 H          30.1513  -20.7129   10.1091 H         1 GR91385     0.0000 
     54 H          29.1549  -24.6047   11.2813 H         1 GR91385     0.0000 
     55 H          28.3947  -24.3370   12.6730 H         1 GR91385     0.0000 
     56 H          27.5594  -24.4046   11.3005 H         1 GR91385     0.0000 
@<TRIPOS>BOND
     1    2    1 1    
     2   32    1 1    
     3   33    1 1    
     4   34    1 1    
     5    3    2 1    
     6    4    2 1    
     7   35    2 1    
     8   54    3 1    
     9   55    3 1    
    10   56    3 1    
    11    5    4 1    
    12   36    4 1    
    13   37    4 1    
    14    6    5 1    
    15   38    5 1    
    16   39    5 1    
    17    7    6 1    
    18   32    6 1    
    19    8    7 2    
    20    9    7 2    
    21   10    7 1    
    22   11   10 ar   
    23   15   10 ar   
    24   12   11 ar   
    25   40   11 1    
    26   13   12 ar   
    27   41   12 1    
    28   14   13 ar   
    29   16   13 1    
    30   15   14 ar   
    31   42   14 1    
    32   43   15 1    
    33   17   16 ar   
    34   21   16 ar   
    35   18   17 ar   
    36   44   17 1    
    37   19   18 ar   
    38   20   19 ar   
    39   31   19 1    
    40   21   20 ar   
    41   22   20 1    
    42   23   22 2    
    43   24   22 am   
    44   25   24 1    
    45   45   24 1    
    46   26   25 ar   
    47   30   25 ar   
    48   27   26 ar   
    49   46   26 1    
    50   28   27 ar   
    51   47   27 1    
    52   29   28 ar   
    53   48   28 1    
    54   30   29 ar   
    55   49   30 1    
    56   50   31 1    
    57   51   31 1    
    58   52   32 1    
    59   53   32 1    
@<TRIPOS>SUBSTRUCTURE
     1 GR91385     1 GROUP   
@<TRIPOS>SET

