#    Name: 3dou_SAM_1_INTS_M
#    Modification time : Mon Mar 24 23:56:25 2014

@<TRIPOS>MOLECULE
3dou_SAM_1_INTS_M
   70     0    12     0     0
SMALL
NO_CHARGES


@<TRIPOS>ATOM
      1 OD1        17.0190   18.8635   14.1765 O.co2     3 ASC3        0.0000 
      2 OD1        17.8570   17.8680   14.6450 O.co2    11 ASL3        0.0000 
      3 OD1        16.1810   19.8590   13.7080 O.co2     7 ASP3        0.0000 
      4 O          17.0190   18.8635   14.1765 O.2       1 ALC1        0.0000 
      5 O          17.8570   17.8680   14.6450 O.2       9 ALL1        0.0000 
      6 O          16.1810   19.8590   13.7080 O.2       5 ALP1        0.0000 
      7 N          22.3530   16.8540   15.0520 N.am      2 SEC2        0.0000 
      8 N          21.4200   18.0400   14.8220 N.am     10 SEL2        0.0000 
      9 N          23.2860   15.6680   15.2820 N.am      6 SEP2        0.0000 
     10 N          21.8810   17.6470   16.1440 N.am      2 SEC2        0.0000 
     11 N          22.3420   17.2540   17.4660 N.am      6 SEP2        0.0000 
     12 N          19.7265   18.0585   17.3400 N.am      2 SEC2        0.0000 
     13 N          19.8520   18.7120   16.0930 N.am     10 SEL2        0.0000 
     14 N          19.6010   17.4050   18.5870 N.am      6 SEP2        0.0000 
     15 CA         21.4405   18.2665   12.6045 C.3       4 GLC5        0.0000 
     16 CA         19.3260   18.6010   12.7200 C.3      12 GLL5        0.0000 
     17 CA         23.5550   17.9320   12.4890 C.3       8 GLP5        0.0000 
     18 CA         16.5930   18.0680   12.5225 C.3       4 GLC5        0.0000 
     19 CA         18.5080   18.0940   11.5280 C.3      12 GLL5        0.0000 
     20 CA         14.6780   18.0420   13.5170 C.3       8 GLP5        0.0000 
     21 CA         17.2555   15.0275    9.6900 C.3       4 GLC5        0.0000 
     22 CA         18.0870   16.4270    8.6410 C.3      12 GLL5        0.0000 
     23 CA         16.4240   13.6280   10.7390 C.3       8 GLP5        0.0000 
     24 N          15.6590   16.7530    7.6275 N.am      2 SEC2        0.0000 
     25 N          16.9910   15.7760    8.0170 N.am     10 SEL2        0.0000 
     26 N          14.3270   17.7300    7.2380 N.am      6 SEP2        0.0000 
     27 N          19.9970   14.5340    8.9455 N.am      2 SEC2        0.0000 
     28 N          20.3850   15.7260    8.3370 N.am     10 SEL2        0.0000 
     29 N          19.6090   13.3420    9.5540 N.am      6 SEP2        0.0000 
     30 O          21.6200   15.7270    7.4990 O.2       1 ALC1        0.0000 
     31 O          20.3850   15.7260    8.3370 O.2       9 ALL1        0.0000 
     32 O          22.8550   15.7280    6.6610 O.2       5 ALP1        0.0000 
     33 O          20.1920   13.5800    6.9160 O.2       1 ALC1        0.0000 
     34 O          19.7040   14.4730    6.0340 O.2       9 ALL1        0.0000 
     35 O          20.6800   12.6870    7.7980 O.2       5 ALP1        0.0000 
     36 CA         16.9680   14.1720    8.9820 C.3       4 GLC5        0.0000 
     37 CA         17.5120   14.7160    7.2250 C.3      12 GLL5        0.0000 
     38 CA         15.7020   15.4955    8.1515 C.3       4 GLC5        0.0000 
     39 CA         13.8920   16.2750    9.0780 C.3       8 GLP5        0.0000 
     40 CA         16.8270   12.6705    3.8840 C.3       4 GLC5        0.0000 
     41 CA         15.3830   12.8490    4.9280 C.3      12 GLL5        0.0000 
     42 CA         18.2710   12.4920    2.8400 C.3       8 GLP5        0.0000 
     43 CA         16.7010   11.3965    4.0655 C.3       4 GLC5        0.0000 
     44 CA         14.8770   11.6010    4.5300 C.3      12 GLL5        0.0000 
     45 CA         18.5250   11.1920    3.6010 C.3       8 GLP5        0.0000 
     46 CA         15.3975    9.5125    3.9780 C.3       4 GLC5        0.0000 
     47 CA         15.9180    7.4240    3.4260 C.3       8 GLP5        0.0000 
     48 CA         13.2395   10.6800    5.0125 C.3       4 GLC5        0.0000 
     49 CA         11.6020    9.7590    5.4950 C.3       8 GLP5        0.0000 
     50 O          14.1045   10.2075    2.6395 O.2       1 ALC1        0.0000 
     51 O          14.0790   11.4850    3.4690 O.2       9 ALL1        0.0000 
     52 O          14.1300    8.9300    1.8100 O.2       5 ALP1        0.0000 
     53 N          14.5175    9.1440    4.9430 N.am      2 SEC2        0.0000 
     54 N          15.2200   10.4950    5.2720 N.am     10 SEL2        0.0000 
     55 N          13.8150    7.7930    4.6140 N.am      6 SEP2        0.0000 
     56 CA         17.5800   10.3585    7.5845 C.3       4 GLC5        0.0000 
     57 CA         16.0460   10.5980    6.3750 C.3      12 GLL5        0.0000 
     58 CA         19.1140   10.1190    8.7940 C.3       8 GLP5        0.0000 
     59 CA         17.2855   10.8950    4.9880 C.3       4 GLC5        0.0000 
     60 CA         15.9820    9.0110    4.9005 C.3       4 GLC5        0.0000 
     61 CA         14.4220    9.5300    6.8680 C.3       4 GLC5        0.0000 
     62 CA         12.7980    8.4620    7.3610 C.3       8 GLP5        0.0000 
     63 N          18.0885   11.1265    6.6110 N.am      2 SEC2        0.0000 
     64 N          16.5590   11.8200    6.7680 N.am     10 SEL2        0.0000 
     65 N          19.6180   10.4330    6.4540 N.am      6 SEP2        0.0000 
     66 CA         17.3805   12.0555    4.8170 C.3       4 GLC5        0.0000 
     67 CA         16.2360   12.9190    6.0330 C.3      12 GLL5        0.0000 
     68 CA         14.7995   13.9320    7.3120 C.3       4 GLC5        0.0000 
     69 CA         13.3630   14.9450    8.5910 C.3       8 GLP5        0.0000 
     70 CA         15.8910   16.7145    8.9262 C.3       4 GLC5        0.0000 
@<TRIPOS>BOND
@<TRIPOS>SUBSTRUCTURE
     1 ALC1        4 GROUP        1 X    ALC  0     ROOT ALC X 1
     2 SEC2        7 GROUP        1 X    SEC  0     **** SEC X 2
     3 ASC3        1 GROUP        1 X    ASC  0     **** ASC X 3
     4 GLC5       15 GROUP        1 X    GLC  0     **** GLC X 6
     5 ALP1        6 GROUP        1 Y    ALP  0     ROOT ALP Y 8
     6 SEP2        9 GROUP        1 Y    SEP  0     **** SEP Y 9
     7 ASP3        3 GROUP        1 Y    ASP  0     **** ASP Y 10
     8 GLP5       17 GROUP        1 Y    GLP  0     **** GLP Y 13
     9 ALL1        5 GROUP        1 Z    ALL  0     ROOT ALL Z 15
    10 SEL2        8 GROUP        1 Z    SEL  0     **** SEL Z 16
    11 ASL3        2 GROUP        1 Z    ASL  0     **** ASL Z 17
    12 GLL5       16 GROUP        1 Z    GLL  0     **** GLL Z 20
@<TRIPOS>SET

