#    Name: 3dou_SAM_1_ligand
#    Modification time : Mon Mar 24 23:56:25 2014

@<TRIPOS>MOLECULE
3dou_SAM_1_ligand
   50    52     1     0     0
SMALL
NO_CHARGES


@<TRIPOS>ATOM
      1 N          17.8570   17.8680   14.6450 N.4       1 SAM1        0.0000 
      2 CA         19.2030   17.7690   14.0000 C.3       1 SAM1        0.0000 
      3 C          20.2190   18.2030   15.0320 C.2       1 SAM1        0.0000 
      4 O          21.4200   18.0400   14.8220 O.co2     1 SAM1        0.0000 
      5 OXT        19.8520   18.7120   16.0930 O.co2     1 SAM1        0.0000 
      6 CB         19.3260   18.6010   12.7200 C.3       1 SAM1        0.0000 
      7 CG         18.5080   18.0940   11.5280 C.3       1 SAM1        0.0000 
      8 SD         18.8350   18.9040    9.9230 S.3       1 SAM1        0.0000 
      9 CE         17.7770   20.3550   10.1530 C.3       1 SAM1        0.0000 
     10 C5'        17.6930   17.8810    8.9080 C.3       1 SAM1        0.0000 
     11 C4'        18.0870   16.4270    8.6410 C.3       1 SAM1        0.0000 
     12 O4'        16.9910   15.7760    8.0170 O.3       1 SAM1        0.0000 
     13 C3'        19.2590   16.2790    7.6690 C.3       1 SAM1        0.0000 
     14 O3'        20.3850   15.7260    8.3370 O.3       1 SAM1        0.0000 
     15 C2'        18.7320   15.3670    6.5580 C.3       1 SAM1        0.0000 
     16 O2'        19.7040   14.4730    6.0340 O.3       1 SAM1        0.0000 
     17 C1'        17.5120   14.7160    7.2250 C.3       1 SAM1        0.0000 
     18 N9         16.5960   14.2370    6.1900 N.pl3     1 SAM1        0.0000 
     19 C8         15.9810   14.9540    5.1850 C.2       1 SAM1        0.0000 
     20 N7         15.2390   14.1110    4.4100 N.2       1 SAM1        0.0000 
     21 C5         15.3830   12.8490    4.9280 C.ar      1 SAM1        0.0000 
     22 C6         14.8770   11.6010    4.5300 C.ar      1 SAM1        0.0000 
     23 N6         14.0790   11.4850    3.4690 N.pl3     1 SAM1        0.0000 
     24 N1         15.2200   10.4950    5.2720 N.ar      1 SAM1        0.0000 
     25 C2         16.0460   10.5980    6.3750 C.ar      1 SAM1        0.0000 
     26 N3         16.5590   11.8200    6.7680 N.ar      1 SAM1        0.0000 
     27 C4         16.2360   12.9190    6.0330 C.ar      1 SAM1        0.0000 
     28 H          19.4003   16.7263   13.7607 H         1 SAM1        0.0000 
     29 H          20.3928   18.6454   12.4258 H         1 SAM1        0.0000 
     30 H          19.0221   19.6426   12.9422 H         1 SAM1        0.0000 
     31 H          17.4382   18.2496   11.6437 H         1 SAM1        0.0000 
     32 H          18.6931   17.0487   11.2933 H         1 SAM1        0.0000 
     33 H          17.6127   18.4822    7.9973 H         1 SAM1        0.0000 
     34 H          16.7569   17.9806    9.4657 H         1 SAM1        0.0000 
     35 H          18.3403   15.9499    9.5620 H         1 SAM1        0.0000 
     36 H          19.4489   17.2425    7.2446 H         1 SAM1        0.0000 
     37 H          18.3249   16.0461    5.7928 H         1 SAM1        0.0000 
     38 H          17.8833   13.9211    7.8309 H         1 SAM1        0.0000 
     39 H          16.0675   15.9060    5.0567 H         1 SAM1        0.0000 
     40 H          14.1056   10.6063    2.9923 H         1 SAM1        0.0000 
     41 H          13.5254   12.2871    3.2450 H         1 SAM1        0.0000 
     42 H          16.2849    9.7454    6.9165 H         1 SAM1        0.0000 
     43 H          17.3888   16.9846   14.6648 H         1 SAM1        0.0000 
     44 H          17.9208   18.1873   15.5905 H         1 SAM1        0.0000 
     45 H          17.2588   18.5059   14.1600 H         1 SAM1        0.0000 
     46 H          17.9408   20.7982   11.0343 H         1 SAM1        0.0000 
     47 H          17.9325   21.0440    9.4451 H         1 SAM1        0.0000 
     48 H          16.8065   20.1158   10.1211 H         1 SAM1        0.0000 
     49 H          21.1739   16.0080    7.7911 H         1 SAM1        0.0000 
     50 H          20.1050   14.0285    6.8350 H         1 SAM1        0.0000 
@<TRIPOS>BOND
     1    2    1 1    
     2   43    1 1    
     3   44    1 1    
     4   45    1 1    
     5    3    2 1    
     6    6    2 1    
     7   28    2 1    
     8    4    3 ar   
     9    5    3 ar   
    10    7    6 1    
    11   29    6 1    
    12   30    6 1    
    13    8    7 1    
    14   31    7 1    
    15   32    7 1    
    16    9    8 1    
    17   10    8 1    
    18   46    9 1    
    19   47    9 1    
    20   48    9 1    
    21   11   10 1    
    22   33   10 1    
    23   34   10 1    
    24   12   11 1    
    25   13   11 1    
    26   35   11 1    
    27   17   12 1    
    28   14   13 1    
    29   15   13 1    
    30   36   13 1    
    31   49   14 1    
    32   16   15 1    
    33   17   15 1    
    34   37   15 1    
    35   50   16 1    
    36   18   17 1    
    37   38   17 1    
    38   19   18 1    
    39   27   18 1    
    40   20   19 2    
    41   39   19 1    
    42   21   20 1    
    43   22   21 ar   
    44   27   21 ar   
    45   23   22 1    
    46   24   22 ar   
    47   40   23 1    
    48   41   23 1    
    49   25   24 ar   
    50   26   25 ar   
    51   42   25 1    
    52   27   26 ar   
@<TRIPOS>SUBSTRUCTURE
     1 SAM1        1 GROUP   
@<TRIPOS>SET

