#    Name: 3hca_SAH_3_INTS_M
#    Modification time : Tue Mar 25 13:55:41 2014

@<TRIPOS>MOLECULE
3hca_SAH_3_INTS_M
   73     0     9     0     0
SMALL
NO_CHARGES


@<TRIPOS>ATOM
      1 O          28.6225   50.1470  -28.6235 O.2       1 ALC1        0.0000 
      2 O          28.0370   50.9150  -27.5670 O.2       7 ALL1        0.0000 
      3 O          29.2080   49.3790  -29.6800 O.2       4 ALP1        0.0000 
      4 O          27.0145   51.4190  -28.3005 O.2       1 ALC1        0.0000 
      5 O          25.9920   51.9230  -29.0340 O.2       4 ALP1        0.0000 
      6 CA         30.6655   54.1560  -26.8265 C.3       3 GLC5        0.0000 
      7 CA         29.8810   52.5880  -27.6270 C.3       9 GLL5        0.0000 
      8 CA         31.4500   55.7240  -26.0260 C.3       6 GLP5        0.0000 
      9 CA         31.3830   51.2600  -27.7445 C.3       3 GLC5        0.0000 
     10 CA         32.8850   49.9320  -27.8620 C.3       6 GLP5        0.0000 
     11 CA         31.8360   52.3055  -26.8240 C.3       3 GLC5        0.0000 
     12 CA         33.7910   52.0230  -26.0210 C.3       6 GLP5        0.0000 
     13 CA         27.5565   54.1700  -29.1210 C.3       3 GLC5        0.0000 
     14 CA         29.3690   53.2310  -28.9190 C.3       9 GLL5        0.0000 
     15 CA         25.7440   55.1090  -29.3230 C.3       6 GLP5        0.0000 
     16 CA         32.7695   54.8175  -29.4850 C.3       3 GLC5        0.0000 
     17 CA         30.6610   54.1650  -29.8040 C.3       9 GLL5        0.0000 
     18 CA         34.8780   55.4700  -29.1660 C.3       6 GLP5        0.0000 
     19 N          25.7760   52.8805  -24.9505 N.am      2 SEC2        0.0000 
     20 N          26.8080   52.5380  -25.8090 N.am      8 SEL2        0.0000 
     21 N          24.7440   53.2230  -24.0920 N.am      5 SEP2        0.0000 
     22 N          28.9205   55.1010  -26.3750 N.am      2 SEC2        0.0000 
     23 N          28.4980   54.0860  -25.6500 N.am      8 SEL2        0.0000 
     24 N          29.3430   56.1160  -27.1000 N.am      5 SEP2        0.0000 
     25 N          27.8170   54.6920  -24.7550 N.am      2 SEC2        0.0000 
     26 N          27.1360   55.2980  -23.8600 N.am      5 SEP2        0.0000 
     27 CA         33.8550   53.9455  -30.4055 C.3       3 GLC5        0.0000 
     28 CA         32.8320   52.4210  -31.6450 C.3       9 GLL5        0.0000 
     29 O          33.1255   50.2810  -30.8100 O.2       1 ALC1        0.0000 
     30 O          33.3060   51.6220  -30.5900 O.2       7 ALL1        0.0000 
     31 O          32.9450   48.9400  -31.0300 O.2       4 ALP1        0.0000 
     32 O          33.7270   50.0945  -31.8980 O.2       1 ALC1        0.0000 
     33 O          34.5090   51.2490  -32.7660 O.2       7 ALL1        0.0000 
     34 O          34.8190   50.1880  -31.8835 O.2       1 ALC1        0.0000 
     35 O          35.1290   49.1270  -31.0010 O.2       4 ALP1        0.0000 
     36 CA         33.5100   49.8760  -34.5300 C.3       3 GLC5        0.0000 
     37 CA         32.2610   51.2020  -33.4220 C.3       9 GLL5        0.0000 
     38 CA         34.7590   48.5500  -35.6380 C.3       6 GLP5        0.0000 
     39 CA         31.1320   52.1880  -34.8780 C.3       3 GLC5        0.0000 
     40 CA         30.0030   53.1740  -36.3340 C.3       6 GLP5        0.0000 
     41 CA         31.6750   47.3995  -38.4830 C.3       3 GLC5        0.0000 
     42 CA         31.5710   49.3040  -37.8280 C.3       9 GLL5        0.0000 
     43 CA         31.7790   45.4950  -39.1380 C.3       6 GLP5        0.0000 
     44 CA         29.5795   48.9425  -38.3810 C.3       3 GLC5        0.0000 
     45 CA         27.5880   48.5810  -38.9340 C.3       6 GLP5        0.0000 
     46 CA         29.9850   50.7285  -37.8875 C.3       3 GLC5        0.0000 
     47 CA         28.3990   52.1530  -37.9470 C.3       6 GLP5        0.0000 
     48 O          31.7660   48.4360  -40.1925 O.2       1 ALC1        0.0000 
     49 O          31.8680   49.5230  -39.2370 O.2       7 ALL1        0.0000 
     50 O          31.6640   47.3490  -41.1480 O.2       4 ALP1        0.0000 
     51 N          30.1545   47.2570  -38.3230 N.am      2 SEC2        0.0000 
     52 N          30.8330   48.2520  -37.4560 N.am      8 SEL2        0.0000 
     53 N          29.4760   46.2620  -39.1900 N.am      5 SEP2        0.0000 
     54 CA         32.6635   48.3150  -35.8870 C.3       3 GLC5        0.0000 
     55 CA         30.5680   48.0800  -36.1360 C.3       9 GLL5        0.0000 
     56 CA         30.9480   46.4840  -35.2855 C.3       3 GLC5        0.0000 
     57 CA         31.3280   44.8880  -34.4350 C.3       6 GLP5        0.0000 
     58 CA         31.1735   46.7875  -37.6370 C.3       3 GLC5        0.0000 
     59 CA         28.9860   47.4465  -36.6590 C.3       3 GLC5        0.0000 
     60 CA         27.4040   46.8130  -37.1820 C.3       6 GLP5        0.0000 
     61 CA         29.1040   48.9225  -35.1125 C.3       3 GLC5        0.0000 
     62 CA         27.6400   49.7650  -34.0890 C.3       6 GLP5        0.0000 
     63 CA         29.7055   49.8850  -34.8390 C.3       3 GLC5        0.0000 
     64 CA         31.7710   50.0050  -35.5890 C.3       9 GLL5        0.0000 
     65 CA         30.0310   52.4303  -25.3002 C.3       3 GLC5        0.0000 
     66 CA         30.7320   52.6130  -23.3850 C.3       6 GLP5        0.0000 
     67 CA         30.3375   55.0780  -28.1262 C.3       3 GLC5        0.0000 
     68 CA         30.6600   56.4580  -26.8910 C.3       6 GLP5        0.0000 
     69 CA         33.3895   53.8352  -33.1790 C.3       3 GLC5        0.0000 
     70 CA         33.7050   55.4640  -34.1010 C.3       6 GLP5        0.0000 
     71 CA         30.9558   51.6358  -36.2855 C.3       3 GLC5        0.0000 
     72 CA         32.0460   50.1900  -36.8850 C.3       9 GLL5        0.0000 
     73 CA         33.2744   49.2130  -36.0554 C.3       3 GLC5        0.0000 
@<TRIPOS>BOND
@<TRIPOS>SUBSTRUCTURE
     1 ALC1        1 GROUP        1 X    ALC  0     ROOT ALC X 1
     2 SEC2       19 GROUP        1 X    SEC  0     **** SEC X 2
     3 GLC5        6 GROUP        1 X    GLC  0     **** GLC X 6
     4 ALP1        3 GROUP        1 Y    ALP  0     ROOT ALP Y 8
     5 SEP2       21 GROUP        1 Y    SEP  0     **** SEP Y 9
     6 GLP5        8 GROUP        1 Y    GLP  0     **** GLP Y 13
     7 ALL1        2 GROUP        1 Z    ALL  0     ROOT ALL Z 15
     8 SEL2       20 GROUP        1 Z    SEL  0     **** SEL Z 16
     9 GLL5        7 GROUP        1 Z    GLL  0     **** GLL Z 20
@<TRIPOS>SET

