#    Name: 3hca_SAH_3_ligand
#    Modification time : Tue Mar 25 13:55:41 2014

@<TRIPOS>MOLECULE
3hca_SAH_3_ligand
   46    48     1     0     0
SMALL
NO_CHARGES


@<TRIPOS>ATOM
      1 N          28.0370   50.9150  -27.5670 N.4       1 SAH3002     0.0000 
      2 CA         28.7790   51.9070  -26.8040 C.3       1 SAH3002     0.0000 
      3 CB         29.8810   52.5880  -27.6270 C.3       1 SAH3002     0.0000 
      4 CG         29.3690   53.2310  -28.9190 C.3       1 SAH3002     0.0000 
      5 SD         30.6610   54.1650  -29.8040 S.3       1 SAH3002     0.0000 
      6 C          27.8630   52.9460  -26.1600 C.2       1 SAH3002     0.0000 
      7 O          26.8080   52.5380  -25.8090 O.co2     1 SAH3002     0.0000 
      8 OXT        28.4980   54.0860  -25.6500 O.co2     1 SAH3002     0.0000 
      9 C5'        30.5360   53.5080  -31.4880 C.3       1 SAH3002     0.0000 
     10 C4'        31.3260   52.2390  -31.7680 C.3       1 SAH3002     0.0000 
     11 O4'        31.1160   51.9010  -33.0940 O.3       1 SAH3002     0.0000 
     12 C3'        32.8320   52.4210  -31.6450 C.3       1 SAH3002     0.0000 
     13 O3'        33.3060   51.6220  -30.5900 O.3       1 SAH3002     0.0000 
     14 C2'        33.3160   51.9920  -32.8690 C.3       1 SAH3002     0.0000 
     15 O2'        34.5090   51.2490  -32.7660 O.3       1 SAH3002     0.0000 
     16 C1'        32.2610   51.2020  -33.4220 C.3       1 SAH3002     0.0000 
     17 N9         32.3650   51.0340  -34.8600 N.pl3     1 SAH3002     0.0000 
     18 C8         32.9930   51.8400  -35.7090 C.2       1 SAH3002     0.0000 
     19 N7         32.8060   51.3260  -36.9770 N.2       1 SAH3002     0.0000 
     20 C5         32.0460   50.1900  -36.8850 C.ar      1 SAH3002     0.0000 
     21 C6         31.5710   49.3040  -37.8280 C.ar      1 SAH3002     0.0000 
     22 N6         31.8680   49.5230  -39.2370 N.pl3     1 SAH3002     0.0000 
     23 N1         30.8330   48.2520  -37.4560 N.ar      1 SAH3002     0.0000 
     24 C2         30.5680   48.0800  -36.1360 C.ar      1 SAH3002     0.0000 
     25 N3         31.0380   48.9560  -35.2070 N.ar      1 SAH3002     0.0000 
     26 C4         31.7710   50.0050  -35.5890 C.ar      1 SAH3002     0.0000 
     27 H          29.3016   51.3910  -25.9592 H         1 SAH3002     0.0000 
     28 H          30.6491   51.8429  -27.8780 H         1 SAH3002     0.0000 
     29 H          30.3608   53.3599  -27.0088 H         1 SAH3002     0.0000 
     30 H          28.6194   53.9804  -28.7572 H         1 SAH3002     0.0000 
     31 H          29.0584   52.5192  -29.6584 H         1 SAH3002     0.0000 
     32 H          30.8578   54.3573  -32.0884 H         1 SAH3002     0.0000 
     33 H          29.4609   53.3808  -31.6037 H         1 SAH3002     0.0000 
     34 H          31.0140   51.4667  -31.1065 H         1 SAH3002     0.0000 
     35 H          33.0068   53.4619  -31.4874 H         1 SAH3002     0.0000 
     36 H          33.4625   52.8597  -33.5297 H         1 SAH3002     0.0000 
     37 H          32.2536   50.2292  -32.9335 H         1 SAH3002     0.0000 
     38 H          33.4893   52.6335  -35.5108 H         1 SAH3002     0.0000 
     39 H          32.3792   50.3544  -39.4549 H         1 SAH3002     0.0000 
     40 H          31.5362   48.8239  -39.8704 H         1 SAH3002     0.0000 
     41 H          29.9941   47.2624  -35.8268 H         1 SAH3002     0.0000 
     42 H          27.6974   50.1764  -26.9846 H         1 SAH3002     0.0000 
     43 H          27.2434   51.3159  -28.0247 H         1 SAH3002     0.0000 
     44 H          28.6020   50.4930  -28.2760 H         1 SAH3002     0.0000 
     45 H          33.1391   50.6806  -30.8833 H         1 SAH3002     0.0000 
     46 H          34.3389   50.5863  -32.0367 H         1 SAH3002     0.0000 
@<TRIPOS>BOND
     1    2    1 1    
     2   42    1 1    
     3   43    1 1    
     4   44    1 1    
     5    3    2 1    
     6    6    2 1    
     7   27    2 1    
     8    4    3 1    
     9   28    3 1    
    10   29    3 1    
    11    5    4 1    
    12   30    4 1    
    13   31    4 1    
    14    9    5 1    
    15    7    6 ar   
    16    8    6 ar   
    17   10    9 1    
    18   32    9 1    
    19   33    9 1    
    20   11   10 1    
    21   12   10 1    
    22   34   10 1    
    23   16   11 1    
    24   13   12 1    
    25   14   12 1    
    26   35   12 1    
    27   45   13 1    
    28   15   14 1    
    29   16   14 1    
    30   36   14 1    
    31   46   15 1    
    32   17   16 1    
    33   37   16 1    
    34   18   17 1    
    35   26   17 1    
    36   19   18 2    
    37   38   18 1    
    38   20   19 1    
    39   21   20 ar   
    40   26   20 ar   
    41   22   21 1    
    42   23   21 ar   
    43   39   22 1    
    44   40   22 1    
    45   24   23 ar   
    46   25   24 ar   
    47   41   24 1    
    48   26   25 ar   
@<TRIPOS>SUBSTRUCTURE
     1 SAH3002     1 GROUP   
@<TRIPOS>SET

