#    Name: 3km0_AOM_1_INTS_M
#    Modification time : Mon Mar 24 19:47:10 2014

@<TRIPOS>MOLECULE
3km0_AOM_1_INTS_M
   68     0     9     0     0
SMALL
NO_CHARGES


@<TRIPOS>ATOM
      1 CA         20.2730   -3.1645  -42.9100 C.3       3 GLC5        0.0000 
      2 CA         21.6380   -4.1780  -41.5870 C.3       9 GLL5        0.0000 
      3 CA         18.9080   -2.1510  -44.2330 C.3       6 GLP5        0.0000 
      4 CA         22.3950   -6.2040  -43.4125 C.3       3 GLC5        0.0000 
      5 CA         22.8730   -5.0860  -41.8180 C.3       9 GLL5        0.0000 
      6 CA         21.9170   -7.3220  -45.0070 C.3       6 GLP5        0.0000 
      7 CA         21.4420   -7.3800  -42.1450 C.3       3 GLC5        0.0000 
      8 CA         21.9880   -6.8000  -40.2170 C.3       9 GLL5        0.0000 
      9 CA         20.8960   -7.9600  -44.0730 C.3       6 GLP5        0.0000 
     10 CA         25.5565   -8.0335  -38.9085 C.3       3 GLC5        0.0000 
     11 CA         23.6330   -8.4830  -39.9690 C.3       9 GLL5        0.0000 
     12 CA         27.4800   -7.5840  -37.8480 C.3       6 GLP5        0.0000 
     13 CA         25.3145   -7.1415  -42.1980 C.3       3 GLC5        0.0000 
     14 CA         23.9240   -7.4620  -41.0670 C.3       9 GLL5        0.0000 
     15 CA         26.7050   -6.8210  -43.3290 C.3       6 GLP5        0.0000 
     16 CA         25.1655   -3.6410  -39.9830 C.3       3 GLC5        0.0000 
     17 CA         24.0520   -5.4450  -39.6310 C.3       9 GLL5        0.0000 
     18 CA         26.2790   -1.8370  -40.3350 C.3       6 GLP5        0.0000 
     19 CA         25.7660   -6.5145  -38.7395 C.3       3 GLC5        0.0000 
     20 CA         26.1845   -6.0410  -39.5300 C.3       3 GLC5        0.0000 
     21 CA         28.3170   -6.6370  -39.4290 C.3       6 GLP5        0.0000 
     22 CA         20.9830   -3.2110  -37.7515 C.3       3 GLC5        0.0000 
     23 CA         20.2930   -2.8230  -39.3990 C.3       9 GLL5        0.0000 
     24 CA         21.6730   -3.5990  -36.1040 C.3       6 GLP5        0.0000 
     25 CA         17.5155   -1.9690  -42.1600 C.3       3 GLC5        0.0000 
     26 CA         17.4980   -2.2080  -40.2770 C.3       9 GLL5        0.0000 
     27 CA         17.5330   -1.7300  -44.0430 C.3       6 GLP5        0.0000 
     28 CA         17.4290   -5.6310  -36.9940 C.3       3 GLC5        0.0000 
     29 CA         17.6360   -3.8300  -38.3200 C.3       9 GLL5        0.0000 
     30 CA         17.2220   -7.4320  -35.6680 C.3       6 GLP5        0.0000 
     31 CA         17.5630   -5.7235  -40.5545 C.3       3 GLC5        0.0000 
     32 CA         18.5090   -4.7030  -39.2230 C.3       9 GLL5        0.0000 
     33 CA         16.6170   -6.7440  -41.8860 C.3       6 GLP5        0.0000 
     34 CA         20.4350   -4.5890  -37.1515 C.3       3 GLC5        0.0000 
     35 CA         19.1970   -5.5790  -38.1990 C.3       9 GLL5        0.0000 
     36 CA         18.2960   -6.6715  -40.4455 C.3       3 GLC5        0.0000 
     37 CA         19.9750   -6.5990  -39.0050 C.3       9 GLL5        0.0000 
     38 CA         21.3400   -4.6960  -37.9320 C.3       3 GLC5        0.0000 
     39 CA         21.0070   -5.7930  -39.7600 C.3       9 GLL5        0.0000 
     40 CA         18.8390   -5.4370  -41.9610 C.3       3 GLC5        0.0000 
     41 CA         20.4510   -4.8550  -40.8680 C.3       9 GLL5        0.0000 
     42 CA         17.2270   -6.0190  -43.0540 C.3       6 GLP5        0.0000 
     43 CA         20.6735   -6.4075  -42.4705 C.3       3 GLC5        0.0000 
     44 N          16.2475   -2.3085  -36.4165 N.am      2 SEC2        0.0000 
     45 N          16.4430   -1.9590  -38.0890 N.am      8 SEL2        0.0000 
     46 N          16.0520   -2.6580  -34.7440 N.am      5 SEP2        0.0000 
     47 O          16.2475   -2.3085  -36.4165 O.2       1 ALC1        0.0000 
     48 O          16.4430   -1.9590  -38.0890 O.2       7 ALL1        0.0000 
     49 O          16.0520   -2.6580  -34.7440 O.2       4 ALP1        0.0000 
     50 CA         18.1040   -4.7523  -41.8330 C.3       3 GLC5        0.0000 
     51 CA         19.4520   -3.8950  -40.1630 C.3       9 GLL5        0.0000 
     52 CA         18.9445   -2.8182  -42.4225 C.3       3 GLC5        0.0000 
     53 CA         18.5100   -3.0760  -41.0610 C.3       9 GLL5        0.0000 
     54 CA         23.0403   -3.6620  -42.8312 C.3       3 GLC5        0.0000 
     55 CA         23.8250   -2.6920  -43.9600 C.3       6 GLP5        0.0000 
     56 CA         24.8813   -6.2085  -42.2987 C.3       3 GLC5        0.0000 
     57 CA         23.4095   -7.3260  -42.8410 C.3       3 GLC5        0.0000 
     58 CA         23.2360   -7.8680  -44.7890 C.3       6 GLP5        0.0000 
     59 CA         21.3904   -8.8658  -39.8852 C.3       3 GLC5        0.0000 
     60 CA         19.8590   -9.8210  -39.9320 C.3       6 GLP5        0.0000 
     61 CA         16.1200   -3.7313  -41.1395 C.3       3 GLC5        0.0000 
     62 CA         16.7600   -2.9010  -39.1070 C.3       9 GLL5        0.0000 
     63 CA         15.1110   -4.9080  -42.5870 C.3       6 GLP5        0.0000 
     64 CA         16.5658   -5.7077  -39.0953 C.3       3 GLC5        0.0000 
     65 CA         15.0590   -7.1490  -39.4190 C.3       6 GLP5        0.0000 
     66 CA         19.1150   -7.0715  -37.0730 C.3       3 GLC5        0.0000 
     67 CA         18.6440   -8.0540  -35.5440 C.3       6 GLP5        0.0000 
     68 CA         20.1750   -8.0085  -39.6573 C.3       3 GLC5        0.0000 
@<TRIPOS>BOND
@<TRIPOS>SUBSTRUCTURE
     1 ALC1       47 GROUP        1 X    ALC  0     ROOT ALC X 1
     2 SEC2       44 GROUP        1 X    SEC  0     **** SEC X 2
     3 GLC5        1 GROUP        1 X    GLC  0     **** GLC X 6
     4 ALP1       49 GROUP        1 Y    ALP  0     ROOT ALP Y 8
     5 SEP2       46 GROUP        1 Y    SEP  0     **** SEP Y 9
     6 GLP5        3 GROUP        1 Y    GLP  0     **** GLP Y 13
     7 ALL1       48 GROUP        1 Z    ALL  0     ROOT ALL Z 15
     8 SEL2       45 GROUP        1 Z    SEL  0     **** SEL Z 16
     9 GLL5        2 GROUP        1 Z    GLL  0     **** GLL Z 20
@<TRIPOS>SET

