#    Name: 3km0_AOM_1_ligand
#    Modification time : Mon Mar 24 19:47:10 2014

@<TRIPOS>MOLECULE
3km0_AOM_1_ligand
   53    56     1     0     0
SMALL
NO_CHARGES


@<TRIPOS>ATOM
      1 C1         18.5100   -3.0760  -41.0610 C.3       1 AOM1        0.0000 
      2 C10        19.4520   -3.8950  -40.1630 C.3       1 AOM1        0.0000 
      3 C11        21.6380   -4.1780  -41.5870 C.3       1 AOM1        0.0000 
      4 C12        22.8730   -5.0860  -41.8180 C.3       1 AOM1        0.0000 
      5 C13        23.2420   -6.1060  -40.7190 C.3       1 AOM1        0.0000 
      6 C14        21.9880   -6.8000  -40.2170 C.3       1 AOM1        0.0000 
      7 C15        22.4330   -7.8760  -39.1990 C.3       1 AOM1        0.0000 
      8 C16        23.6330   -8.4830  -39.9690 C.3       1 AOM1        0.0000 
      9 C17        23.9240   -7.4620  -41.0670 C.3       1 AOM1        0.0000 
     10 C18        24.0520   -5.4450  -39.6310 C.3       1 AOM1        0.0000 
     11 C19        20.2930   -2.8230  -39.3990 C.3       1 AOM1        0.0000 
     12 C2         17.4980   -2.2080  -40.2770 C.3       1 AOM1        0.0000 
     13 C3         16.7600   -2.9010  -39.1070 C.3       1 AOM1        0.0000 
     14 C4         17.6360   -3.8300  -38.3200 C.3       1 AOM1        0.0000 
     15 C5         18.5090   -4.7030  -39.2230 C.3       1 AOM1        0.0000 
     16 C6         19.1970   -5.5790  -38.1990 C.3       1 AOM1        0.0000 
     17 C7         19.9750   -6.5990  -39.0050 C.3       1 AOM1        0.0000 
     18 C8         21.0070   -5.7930  -39.7600 C.3       1 AOM1        0.0000 
     19 C9         20.4510   -4.8550  -40.8680 C.3       1 AOM1        0.0000 
     20 O3         16.4430   -1.9590  -38.0890 O.3       1 AOM1        0.0000 
     21 O17        25.3200   -7.4230  -41.2620 O.3       1 AOM1        0.0000 
     22 H          17.9530   -3.7612  -41.7146 H         1 AOM1        0.0000 
     23 H          19.1107   -2.4197  -41.7055 H         1 AOM1        0.0000 
     24 H          21.2923   -3.8009  -42.5648 H         1 AOM1        0.0000 
     25 H          21.9541   -3.2989  -40.9995 H         1 AOM1        0.0000 
     26 H          23.7582   -4.4293  -42.0004 H         1 AOM1        0.0000 
     27 H          22.7229   -5.6400  -42.7765 H         1 AOM1        0.0000 
     28 H          21.5779   -7.3429  -41.0943 H         1 AOM1        0.0000 
     29 H          21.6858   -8.5921  -39.0934 H         1 AOM1        0.0000 
     30 H          22.7706   -7.4189  -38.3275 H         1 AOM1        0.0000 
     31 H          23.3414   -9.4064  -40.3976 H         1 AOM1        0.0000 
     32 H          24.4626   -8.5624  -39.3157 H         1 AOM1        0.0000 
     33 H          23.4144   -7.8490  -41.9718 H         1 AOM1        0.0000 
     34 H          16.7415   -1.8197  -40.9891 H         1 AOM1        0.0000 
     35 H          18.0298   -1.3193  -39.8801 H         1 AOM1        0.0000 
     36 H          15.9099   -3.4103  -39.4408 H         1 AOM1        0.0000 
     37 H          17.0164   -4.4837  -37.6931 H         1 AOM1        0.0000 
     38 H          18.2889   -3.2511  -37.6546 H         1 AOM1        0.0000 
     39 H          17.8435   -5.3253  -39.8026 H         1 AOM1        0.0000 
     40 H          18.4672   -6.0746  -37.5950 H         1 AOM1        0.0000 
     41 H          19.8699   -4.9919  -37.6112 H         1 AOM1        0.0000 
     42 H          19.3226   -7.0912  -39.6924 H         1 AOM1        0.0000 
     43 H          20.4595   -7.2869  -38.3473 H         1 AOM1        0.0000 
     44 H          21.5203   -5.1589  -39.0021 H         1 AOM1        0.0000 
     45 H          19.9085   -5.4745  -41.5592 H         1 AOM1        0.0000 
     46 H          24.2983   -6.0899  -38.9075 H         1 AOM1        0.0000 
     47 H          24.9051   -5.0610  -39.9843 H         1 AOM1        0.0000 
     48 H          23.5507   -4.6960  -39.1978 H         1 AOM1        0.0000 
     49 H          20.9539   -3.2434  -38.7773 H         1 AOM1        0.0000 
     50 H          20.8100   -2.2404  -40.0262 H         1 AOM1        0.0000 
     51 H          19.7149   -2.2206  -38.8486 H         1 AOM1        0.0000 
     52 H          16.3854   -2.4967  -37.2478 H         1 AOM1        0.0000 
     53 H          25.9353   -7.2468  -40.4935 H         1 AOM1        0.0000 
@<TRIPOS>BOND
     1    2    1 1    
     2   12    1 1    
     3   22    1 1    
     4   23    1 1    
     5   11    2 1    
     6   15    2 1    
     7   19    2 1    
     8    4    3 1    
     9   19    3 1    
    10   24    3 1    
    11   25    3 1    
    12    5    4 1    
    13   26    4 1    
    14   27    4 1    
    15    6    5 1    
    16    9    5 1    
    17   10    5 1    
    18    7    6 1    
    19   18    6 1    
    20   28    6 1    
    21    8    7 1    
    22   29    7 1    
    23   30    7 1    
    24    9    8 1    
    25   31    8 1    
    26   32    8 1    
    27   21    9 1    
    28   33    9 1    
    29   46   10 1    
    30   47   10 1    
    31   48   10 1    
    32   49   11 1    
    33   50   11 1    
    34   51   11 1    
    35   13   12 1    
    36   34   12 1    
    37   35   12 1    
    38   14   13 1    
    39   20   13 1    
    40   36   13 1    
    41   15   14 1    
    42   37   14 1    
    43   38   14 1    
    44   16   15 1    
    45   39   15 1    
    46   17   16 1    
    47   40   16 1    
    48   41   16 1    
    49   18   17 1    
    50   42   17 1    
    51   43   17 1    
    52   19   18 1    
    53   44   18 1    
    54   45   19 1    
    55   52   20 1    
    56   53   21 1    
@<TRIPOS>SUBSTRUCTURE
     1 AOM1        1 GROUP   
@<TRIPOS>SET

