#    Name: 1q6y_COA_1_INTS_M
#    Modification time : Mon Mar 24 23:11:52 2014

@<TRIPOS>MOLECULE
1q6y_COA_1_INTS_M
  111     0    12     0     0
SMALL
NO_CHARGES


@<TRIPOS>ATOM
      1 N          42.6580    4.6255   28.8330 N.am      2 SEC2        0.0000 
      2 N          42.9530    3.1500   28.3410 N.am     10 SEL2        0.0000 
      3 N          42.3630    6.1010   29.3250 N.am      6 SEP2        0.0000 
      4 N          41.9835    4.2780   27.6800 N.am      2 SEC2        0.0000 
      5 N          41.0140    5.4060   27.0190 N.am      6 SEP2        0.0000 
      6 CA         43.9885    1.4800   28.6560 C.3       4 GLC5        0.0000 
      7 CA         41.9450    2.3790   28.9150 C.3      12 GLL5        0.0000 
      8 CA         46.0320    0.5810   28.3970 C.3       8 GLP5        0.0000 
      9 CA         43.0365    3.8790   29.8675 C.3       4 GLC5        0.0000 
     10 CA         44.1280    5.3790   30.8200 C.3       8 GLP5        0.0000 
     11 CA         40.0025    2.7170   29.6860 C.3       4 GLC5        0.0000 
     12 CA         38.0600    3.0550   30.4570 C.3       8 GLP5        0.0000 
     13 CA         40.5080    2.8510   27.6150 C.3       4 GLC5        0.0000 
     14 CA         39.0710    3.3230   26.3150 C.3       8 GLP5        0.0000 
     15 CA         42.9080    5.1050   26.8865 C.3       4 GLC5        0.0000 
     16 CA         43.3020    2.9830   27.0270 C.3      12 GLL5        0.0000 
     17 CA         42.5140    7.2270   26.7460 C.3       8 GLP5        0.0000 
     18 O          44.8715    4.5710   27.4475 O.2       1 ALC1        0.0000 
     19 O          44.2120    3.8020   26.4810 O.2       9 ALL1        0.0000 
     20 O          45.5310    5.3400   28.4140 O.2       5 ALP1        0.0000 
     21 CA         37.5705   -0.5515   24.0025 C.3       4 GLC5        0.0000 
     22 CA         38.9330   -0.8600   25.4760 C.3      12 GLL5        0.0000 
     23 CA         36.2080   -0.2430   22.5290 C.3       8 GLP5        0.0000 
     24 CA         37.2970   -3.2770   24.5490 C.3       4 GLC5        0.0000 
     25 CA         38.4320   -2.1730   25.9920 C.3      12 GLL5        0.0000 
     26 CA         36.1620   -4.3810   23.1060 C.3       8 GLP5        0.0000 
     27 N          35.3250   -2.6555   25.1035 N.am      2 SEC2        0.0000 
     28 N          35.3340   -1.5680   26.2240 N.am     10 SEL2        0.0000 
     29 N          35.3160   -3.7430   23.9830 N.am      6 SEP2        0.0000 
     30 NZ         36.6330   -1.3720   29.4010 N.4       3 LYC4        0.0000 
     31 NZ         35.7210   -2.0800   28.6940 N.4      11 LYL4        0.0000 
     32 NZ         37.5450   -0.6640   30.1080 N.4       7 LYP4        0.0000 
     33 N          36.6330   -1.3720   29.4010 N.am      2 SEC2        0.0000 
     34 N          35.7210   -2.0800   28.6940 N.am     10 SEL2        0.0000 
     35 N          37.5450   -0.6640   30.1080 N.am      6 SEP2        0.0000 
     36 N          35.6540   -3.7785   25.5165 N.am      2 SEC2        0.0000 
     37 N          35.9920   -3.8140   27.0500 N.am     10 SEL2        0.0000 
     38 CA         38.0515   -4.2265   24.2300 C.3       4 GLC5        0.0000 
     39 CA         39.9410   -4.0720   25.3540 C.3      12 GLL5        0.0000 
     40 N          42.5230   -3.6990   23.7005 N.am      2 SEC2        0.0000 
     41 N          41.6880   -4.5710   22.7420 N.am     10 SEL2        0.0000 
     42 N          43.3580   -2.8270   24.6590 N.am      6 SEP2        0.0000 
     43 N          38.5905   -3.3760   20.6145 N.am      2 SEC2        0.0000 
     44 N          39.6290   -3.8440   21.5470 N.am     10 SEL2        0.0000 
     45 N          37.5520   -2.9080   19.6820 N.am      6 SEP2        0.0000 
     46 NZ         37.1395   -8.6810   23.1095 N.4       3 LYC4        0.0000 
     47 NZ         38.7330   -8.2890   23.1940 N.4      11 LYL4        0.0000 
     48 NZ         35.5460   -9.0730   23.0250 N.4       7 LYP4        0.0000 
     49 N          37.1395   -8.6810   23.1095 N.am      2 SEC2        0.0000 
     50 N          38.7330   -8.2890   23.1940 N.am     10 SEL2        0.0000 
     51 N          35.5460   -9.0730   23.0250 N.am      6 SEP2        0.0000 
     52 CA         43.3805   -6.5555   17.9605 C.3       4 GLC5        0.0000 
     53 CA         41.3050   -7.0040   17.8200 C.3      12 GLL5        0.0000 
     54 CA         45.4560   -6.1070   18.1010 C.3       8 GLP5        0.0000 
     55 CA         37.5170   -8.6425   18.7885 C.3       4 GLC5        0.0000 
     56 CA         39.1390   -8.2730   18.3210 C.3      12 GLL5        0.0000 
     57 CA         35.8950   -9.0120   19.2560 C.3       8 GLP5        0.0000 
     58 CA         40.0755   -9.9470   18.2645 C.3       4 GLC5        0.0000 
     59 CA         41.0120  -11.6210   18.2080 C.3       8 GLP5        0.0000 
     60 CA         39.2505   -3.5110   18.8645 C.3       4 GLC5        0.0000 
     61 CA         39.2840   -5.7410   18.6330 C.3      12 GLL5        0.0000 
     62 CA         39.2170   -1.2810   19.0960 C.3       8 GLP5        0.0000 
     63 CA         37.7980   -4.7060   19.0460 C.3       4 GLC5        0.0000 
     64 CA         36.3120   -3.6710   19.4590 C.3       8 GLP5        0.0000 
     65 N          37.3025   -7.9725   15.9800 N.am      2 SEC2        0.0000 
     66 N          37.7000   -6.5170   16.7450 N.am     10 SEL2        0.0000 
     67 N          36.9050   -9.4280   15.2150 N.am      6 SEP2        0.0000 
     68 O          39.8375   -3.2870   16.8100 O.2       1 ALC1        0.0000 
     69 O          39.0360   -4.4590   16.6070 O.2       9 ALL1        0.0000 
     70 O          40.6390   -2.1150   17.0130 O.2       5 ALP1        0.0000 
     71 CA         39.4300   -3.4315   12.7005 C.3       4 GLC5        0.0000 
     72 CA         38.8170   -4.9000   14.2640 C.3      12 GLL5        0.0000 
     73 CA         40.0430   -1.9630   11.1370 C.3       8 GLP5        0.0000 
     74 CA         37.1885   -5.6080   12.8925 C.3       4 GLC5        0.0000 
     75 CA         35.5600   -6.3160   11.5210 C.3       8 GLP5        0.0000 
     76 CA         39.1725   -5.8325   12.7570 C.3       4 GLC5        0.0000 
     77 CA         39.5280   -6.7650   11.2500 C.3       8 GLP5        0.0000 
     78 N          42.1335   -3.7555   13.1105 N.am      2 SEC2        0.0000 
     79 N          40.9440   -3.9580   13.7690 N.am     10 SEL2        0.0000 
     80 N          43.3230   -3.5530   12.4520 N.am      6 SEP2        0.0000 
     81 N          42.1220   -3.1625   14.4165 N.am      2 SEC2        0.0000 
     82 N          43.3000   -2.3670   15.0640 N.am      6 SEP2        0.0000 
     83 O          40.2540   -7.4910   14.3400 O.2       1 ALC1        0.0000 
     84 O          40.8720   -6.1640   14.2990 O.2       9 ALL1        0.0000 
     85 O          39.6360   -8.8180   14.3810 O.2       5 ALP1        0.0000 
     86 CA         44.2530   -6.2665   15.6635 C.3       4 GLC5        0.0000 
     87 CA         42.3030   -6.4040   14.5650 C.3      12 GLL5        0.0000 
     88 CA         46.2030   -6.1290   16.7620 C.3       8 GLP5        0.0000 
     89 CA         40.9155   -6.5845   12.9075 C.3       4 GLC5        0.0000 
     90 CA         41.8030   -7.5665   12.0900 C.3       4 GLC5        0.0000 
     91 CA         43.0140   -6.8870   13.3310 C.3      12 GLL5        0.0000 
     92 CA         40.5920   -8.2460   10.8490 C.3       8 GLP5        0.0000 
     93 CA         45.7175   -7.2065   14.9395 C.3       4 GLC5        0.0000 
     94 CA         44.8510   -6.8270   13.4960 C.3      12 GLL5        0.0000 
     95 CA         46.5840   -7.5860   16.3830 C.3       8 GLP5        0.0000 
     96 CA         46.5935   -6.5070   12.9145 C.3       4 GLC5        0.0000 
     97 CA         48.3360   -6.1870   12.3330 C.3       8 GLP5        0.0000 
     98 CA         45.4365   -7.1585   11.5985 C.3       4 GLC5        0.0000 
     99 CA         46.0220   -7.4900    9.7010 C.3       8 GLP5        0.0000 
    100 CA         44.5023    1.5245   27.5340 C.3       4 GLC5        0.0000 
    101 CA         42.6430    1.9530   26.3150 C.3      12 GLL5        0.0000 
    102 CA         40.8970    2.7996   26.5703 C.3       4 GLC5        0.0000 
    103 CA         39.3083    1.2597   26.1167 C.3       4 GLC5        0.0000 
    104 CA         40.1580   -0.7470   26.3610 C.3      12 GLL5        0.0000 
    105 CA         41.4686   -9.0073   18.5942 C.3       4 GLC5        0.0000 
    106 CA         40.5910   -7.2870   20.0710 C.3      12 GLL5        0.0000 
    107 CA         42.1200  -10.9220   18.5920 C.3       8 GLP5        0.0000 
    108 CA         37.3580   -3.5568   13.6960 C.3       4 GLC5        0.0000 
    109 CA         36.1280   -2.6250   12.5560 C.3       8 GLP5        0.0000 
    110 CA         43.8667   -5.2390   12.2848 C.3       4 GLC5        0.0000 
    111 CA         43.8010   -3.6210   11.1560 C.3       8 GLP5        0.0000 
@<TRIPOS>BOND
@<TRIPOS>SUBSTRUCTURE
     1 ALC1       18 GROUP        1 X    ALC  0     ROOT ALC X 1
     2 SEC2        1 GROUP        1 X    SEC  0     **** SEC X 2
     3 LYC4       30 GROUP        1 X    LYC  0     **** LYC X 4
     4 GLC5        6 GROUP        1 X    GLC  0     **** GLC X 6
     5 ALP1       20 GROUP        1 Y    ALP  0     ROOT ALP Y 8
     6 SEP2        3 GROUP        1 Y    SEP  0     **** SEP Y 9
     7 LYP4       32 GROUP        1 Y    LYP  0     **** LYP Y 11
     8 GLP5        8 GROUP        1 Y    GLP  0     **** GLP Y 13
     9 ALL1       19 GROUP        1 Z    ALL  0     ROOT ALL Z 15
    10 SEL2        2 GROUP        1 Z    SEL  0     **** SEL Z 16
    11 LYL4       31 GROUP        1 Z    LYL  0     **** LYL Z 18
    12 GLL5        7 GROUP        1 Z    GLL  0     **** GLL Z 20
@<TRIPOS>SET

