#    Name: 1q6y_COA_1_ligand
#    Modification time : Mon Mar 24 23:11:53 2014

@<TRIPOS>MOLECULE
1q6y_COA_1_ligand
   79    81     1     0     0
SMALL
NO_CHARGES


@<TRIPOS>ATOM
      1 N1A        42.9530    3.1500   28.3410 N.ar      1 COA500      0.0000 
      2 C2A        41.9450    2.3790   28.9150 C.ar      1 COA500      0.0000 
      3 N3A        41.2660    1.3780   28.2200 N.ar      1 COA500      0.0000 
      4 C4A        41.6450    1.1860   26.9330 C.ar      1 COA500      0.0000 
      5 C5A        42.6430    1.9530   26.3150 C.ar      1 COA500      0.0000 
      6 C6A        43.3020    2.9830   27.0270 C.ar      1 COA500      0.0000 
      7 N6A        44.2120    3.8020   26.4810 N.pl3     1 COA500      0.0000 
      8 N7A        42.6970    1.5200   25.0310 N.2       1 COA500      0.0000 
      9 C8A        41.8040    0.5270   24.8430 C.2       1 COA500      0.0000 
     10 N9A        41.1460    0.3080   26.0090 N.pl3     1 COA500      0.0000 
     11 C1B        40.1580   -0.7470   26.3610 C.3       1 COA500      0.0000 
     12 C2B        38.9330   -0.8600   25.4760 C.3       1 COA500      0.0000 
     13 O2B        37.9160    0.0660   25.6360 O.3       1 COA500      0.0000 
     14 C3B        38.4320   -2.1730   25.9920 C.3       1 COA500      0.0000 
     15 O3B        37.6610   -1.8690   27.1120 O.3       1 COA500      0.0000 
     16 P3B        36.1020   -2.3010   27.2340 P.3       1 COA500      0.0000 
     17 O7A        35.3340   -1.5680   26.2240 O.co2     1 COA500      0.0000 
     18 O8A        35.7210   -2.0800   28.6940 O.co2     1 COA500      0.0000 
     19 O9A        35.9920   -3.8140   27.0500 O.co2     1 COA500      0.0000 
     20 C4B        39.6780   -2.9740   26.3410 C.3       1 COA500      0.0000 
     21 O4B        40.7380   -2.0310   26.2650 O.3       1 COA500      0.0000 
     22 C5B        39.9410   -4.0720   25.3540 C.3       1 COA500      0.0000 
     23 O5B        39.6390   -3.6260   24.0250 O.3       1 COA500      0.0000 
     24 P1A        40.1980   -4.5140   22.7870 P.3       1 COA500      0.0000 
     25 O1A        41.6880   -4.5710   22.7420 O.co2     1 COA500      0.0000 
     26 O2A        39.6290   -3.8440   21.5470 O.co2     1 COA500      0.0000 
     27 O3A        39.4030   -5.9000   23.0720 O.3       1 COA500      0.0000 
     28 P2A        39.8020   -7.3290   22.5810 P.3       1 COA500      0.0000 
     29 O4A        41.2420   -7.6150   22.9140 O.co2     1 COA500      0.0000 
     30 O5A        38.7330   -8.2890   23.1940 O.co2     1 COA500      0.0000 
     31 O6A        39.5200   -7.2830   20.9610 O.3       1 COA500      0.0000 
     32 CBP        40.0680   -7.0750   18.6750 C.3       1 COA500      0.0000 
     33 CCP        40.5910   -7.2870   20.0710 C.3       1 COA500      0.0000 
     34 CDP        41.3050   -7.0040   17.8200 C.3       1 COA500      0.0000 
     35 CEP        39.1390   -8.2730   18.3210 C.3       1 COA500      0.0000 
     36 CAP        39.2840   -5.7410   18.6330 C.3       1 COA500      0.0000 
     37 OAP        40.0900   -4.6220   19.0870 O.3       1 COA500      0.0000 
     38 C9P        38.6500   -5.5690   17.2690 C.2       1 COA500      0.0000 
     39 O9P        37.7000   -6.5170   16.7450 O.2       1 COA500      0.0000 
     40 N8P        39.0360   -4.4590   16.6070 N.am      1 COA500      0.0000 
     41 C7P        38.3590   -4.0770   15.4080 C.3       1 COA500      0.0000 
     42 C6P        38.8170   -4.9000   14.2640 C.3       1 COA500      0.0000 
     43 C5P        40.3040   -4.9530   14.1090 C.2       1 COA500      0.0000 
     44 O5P        40.9440   -3.9580   13.7690 O.2       1 COA500      0.0000 
     45 N4P        40.8720   -6.1640   14.2990 N.am      1 COA500      0.0000 
     46 C3P        42.3030   -6.4040   14.5650 C.3       1 COA500      0.0000 
     47 C2P        43.0140   -6.8870   13.3310 C.3       1 COA500      0.0000 
     48 S1P        44.8510   -6.8270   13.4960 S.3       1 COA500      0.0000 
     49 H          41.6842    2.5583   29.9142 H         1 COA500      0.0000 
     50 H          44.4394    3.6305   25.5224 H         1 COA500      0.0000 
     51 H          44.5820    4.5111   27.0812 H         1 COA500      0.0000 
     52 H          41.6543    0.0484   24.0173 H         1 COA500      0.0000 
     53 H          39.8018   -0.5999   27.3852 H         1 COA500      0.0000 
     54 H          39.2548   -1.0339   24.4789 H         1 COA500      0.0000 
     55 H          37.9034   -2.6589   25.2207 H         1 COA500      0.0000 
     56 H          39.5759   -3.3621   27.3204 H         1 COA500      0.0000 
     57 H          39.3275   -4.9427   25.6291 H         1 COA500      0.0000 
     58 H          40.9952   -4.3741   25.4410 H         1 COA500      0.0000 
     59 H          41.1415   -8.2390   20.0825 H         1 COA500      0.0000 
     60 H          41.3151   -6.4870   20.2836 H         1 COA500      0.0000 
     61 H          38.4341   -5.8910   19.3578 H         1 COA500      0.0000 
     62 H          39.8094   -3.8665   16.9341 H         1 COA500      0.0000 
     63 H          38.5399   -3.0126   15.1752 H         1 COA500      0.0000 
     64 H          37.2665   -4.1965   15.5171 H         1 COA500      0.0000 
     65 H          38.3709   -4.5090   13.3246 H         1 COA500      0.0000 
     66 H          38.4295   -5.9354   14.3742 H         1 COA500      0.0000 
     67 H          40.2813   -7.0446   14.2633 H         1 COA500      0.0000 
     68 H          42.4186   -7.1543   15.3600 H         1 COA500      0.0000 
     69 H          42.7826   -5.4785   14.9138 H         1 COA500      0.0000 
     70 H          42.8623   -6.2753   12.4602 H         1 COA500      0.0000 
     71 H          42.8584   -7.9262   13.1041 H         1 COA500      0.0000 
     72 H          41.9046   -6.2527   18.0959 H         1 COA500      0.0000 
     73 H          41.8438   -7.8446   17.8758 H         1 COA500      0.0000 
     74 H          41.0822   -6.8621   16.8555 H         1 COA500      0.0000 
     75 H          39.6271   -9.1450   18.3579 H         1 COA500      0.0000 
     76 H          38.3662   -8.3427   18.9518 H         1 COA500      0.0000 
     77 H          38.7589   -8.1887   17.3999 H         1 COA500      0.0000 
     78 H          37.0974   -0.4780   25.8201 H         1 COA500      0.0000 
     79 H          39.7912   -4.4521   20.0261 H         1 COA500      0.0000 
@<TRIPOS>BOND
     1    2    1 ar   
     2    6    1 ar   
     3    3    2 ar   
     4   49    2 1    
     5    4    3 ar   
     6    5    4 ar   
     7   10    4 1    
     8    6    5 ar   
     9    8    5 1    
    10    7    6 1    
    11   50    7 1    
    12   51    7 1    
    13    9    8 2    
    14   10    9 1    
    15   52    9 1    
    16   11   10 1    
    17   12   11 1    
    18   21   11 1    
    19   53   11 1    
    20   13   12 1    
    21   14   12 1    
    22   54   12 1    
    23   78   13 1    
    24   15   14 1    
    25   20   14 1    
    26   55   14 1    
    27   16   15 1    
    28   17   16 ar   
    29   18   16 ar   
    30   19   16 ar   
    31   21   20 1    
    32   22   20 1    
    33   56   20 1    
    34   23   22 1    
    35   57   22 1    
    36   58   22 1    
    37   24   23 1    
    38   25   24 ar   
    39   26   24 ar   
    40   27   24 1    
    41   28   27 1    
    42   29   28 ar   
    43   30   28 ar   
    44   31   28 1    
    45   33   31 1    
    46   33   32 1    
    47   34   32 1    
    48   35   32 1    
    49   36   32 1    
    50   59   33 1    
    51   60   33 1    
    52   72   34 1    
    53   73   34 1    
    54   74   34 1    
    55   75   35 1    
    56   76   35 1    
    57   77   35 1    
    58   37   36 1    
    59   38   36 1    
    60   61   36 1    
    61   79   37 1    
    62   39   38 2    
    63   40   38 am   
    64   41   40 1    
    65   62   40 1    
    66   42   41 1    
    67   63   41 1    
    68   64   41 1    
    69   43   42 1    
    70   65   42 1    
    71   66   42 1    
    72   44   43 2    
    73   45   43 am   
    74   46   45 1    
    75   67   45 1    
    76   47   46 1    
    77   68   46 1    
    78   69   46 1    
    79   48   47 1    
    80   70   47 1    
    81   71   47 1    
@<TRIPOS>SUBSTRUCTURE
     1 COA500      1 GROUP   
@<TRIPOS>SET

