#    Name: 3G8C_1_CAVITY_N1_6.mol2
#    Modification time : Mon Mar 10 18:37:12 2014

@<TRIPOS>MOLECULE
3G8C_1_CAVITY_N1_6.mol2
  126     0     7     0     0
SMALL
NO_CHARGES


@<TRIPOS>ATOM
      1 CA         40.4052   -7.3406   -6.1685 C.3       6 GLY6        0.0000 
      2 CA         40.7699   -6.7917   -7.5160 C.3       6 GLY6        0.0000 
      3 CZ         41.1346   -6.2429   -8.8634 C.ar      5 PHE5        0.0000 
      4 CZ         41.4993   -5.6940  -10.2109 C.ar      5 PHE5        0.0000 
      5 DU         38.9516   -7.1413   -6.4807 H         7 CUB7        0.0000 
      6 DU         39.6811   -6.0436   -9.1757 H         7 CUB7        0.0000 
      7 O          40.0458   -5.4948  -10.5232 O.2       2 ALA2        0.0000 
      8 N          37.4981   -6.9421   -6.7930 N.2       2 ALA2        0.0000 
      9 N          37.8628   -6.3932   -8.1405 N.2       2 ALA2        0.0000 
     10 N          38.2275   -5.8444   -9.4880 N.2       2 ALA2        0.0000 
     11 N          36.0446   -6.7428   -7.1052 N.2       2 ALA2        0.0000 
     12 N          46.0952   -8.5063  -11.7823 N.2       2 ALA2        0.0000 
     13 N          46.4599   -7.9575  -13.1298 N.2       2 ALA2        0.0000 
     14 N          43.9122   -9.4048   -9.3995 N.2       2 ALA2        0.0000 
     15 CZ         44.2769   -8.8559  -10.7470 C.ar      5 PHE5        0.0000 
     16 CZ         44.6417   -8.3071  -12.0945 C.ar      5 PHE5        0.0000 
     17 OG         45.0064   -7.7582  -13.4420 O.2       1 SER1        0.0000 
     18 CA         42.0940   -9.7544   -8.3643 C.3       6 GLY6        0.0000 
     19 CA         42.4587   -9.2055   -9.7118 C.3       6 GLY6        0.0000 
     20 CZ         42.8234   -8.6567  -11.0593 C.ar      5 PHE5        0.0000 
     21 CZ         43.1881   -8.1078  -12.4068 C.ar      5 PHE5        0.0000 
     22 N          43.5528   -7.5590  -13.7543 N.2       2 ALA2        0.0000 
     23 CA         40.2757  -10.1040   -7.3291 C.3       6 GLY6        0.0000 
     24 CA         40.6404   -9.5551   -8.6766 C.3       6 GLY6        0.0000 
     25 CA         41.0051   -9.0062  -10.0241 C.3       6 GLY6        0.0000 
     26 CA         41.3698   -8.4574  -11.3715 C.3       6 GLY6        0.0000 
     27 DU         39.1869   -9.3558   -8.9888 H         7 CUB7        0.0000 
     28 NZ         39.5516   -8.8070  -10.3363 N.2       4 LYS4        0.0000 
     29 CZ         44.1474  -11.6193  -11.9076 C.ar      5 PHE5        0.0000 
     30 O          44.5122  -11.0704  -13.2551 O.2       2 ALA2        0.0000 
     31 CZ         41.5997  -13.0666   -8.1774 C.ar      5 PHE5        0.0000 
     32 CZ         41.9645  -12.5177   -9.5249 C.ar      5 PHE5        0.0000 
     33 CZ         42.3292  -11.9689  -10.8724 C.ar      5 PHE5        0.0000 
     34 CA         42.6939  -11.4200  -12.2199 C.3       6 GLY6        0.0000 
     35 CA         43.0586  -10.8712  -13.5674 C.3       6 GLY6        0.0000 
     36 DU         40.5109  -12.3185   -9.8372 H         7 CUB7        0.0000 
     37 CA         40.8756  -11.7696  -11.1847 C.3       6 GLY6        0.0000 
     38 CA         39.4221  -11.5704  -11.4969 C.3       6 GLY6        0.0000 
     39 N          45.6657  -10.4369  -11.0151 N.2       2 ALA2        0.0000 
     40 N          46.0305   -9.8880  -12.3626 N.2       2 ALA2        0.0000 
     41 N          46.3952   -9.3392  -13.7101 N.2       2 ALA2        0.0000 
     42 O          43.4827  -11.3353   -8.6323 O.2       2 ALA2        0.0000 
     43 CZ         43.8475  -10.7865   -9.9798 C.ar      5 PHE5        0.0000 
     44 CZ         44.2122  -10.2376  -11.3273 C.ar      5 PHE5        0.0000 
     45 CA         44.5769   -9.6888  -12.6748 C.3       6 GLY6        0.0000 
     46 O          44.9416   -9.1399  -14.0223 O.2       2 ALA2        0.0000 
     47 O          45.3063   -8.5911  -15.3698 O.2       2 ALA2        0.0000 
     48 O          41.6645  -11.6849   -7.5971 O.2       2 ALA2        0.0000 
     49 O          42.0292  -11.1360   -8.9446 O.2       2 ALA2        0.0000 
     50 CA         42.3939  -10.5872  -10.2921 C.3       6 GLY6        0.0000 
     51 CA         42.7586  -10.0383  -11.6396 C.3       6 GLY6        0.0000 
     52 CA         43.1234   -9.4895  -12.9871 C.3       6 GLY6        0.0000 
     53 N          43.4881   -8.9406  -14.3346 N.2       2 ALA2        0.0000 
     54 DU         40.2109  -11.4856   -7.9094 H         7 CUB7        0.0000 
     55 DU         40.5757  -10.9368   -9.2569 H         7 CUB7        0.0000 
     56 CA         40.9404  -10.3879  -10.6044 C.3       6 GLY6        0.0000 
     57 DU         39.1221  -10.7375   -9.5691 H         7 CUB7        0.0000 
     58 CA         39.4868  -10.1887  -10.9166 C.3       6 GLY6        0.0000 
     59 CZ         41.8997  -13.8994  -10.1052 C.ar      5 PHE5        0.0000 
     60 CZ         42.2644  -13.3506  -11.4527 C.ar      5 PHE5        0.0000 
     61 CA         42.6292  -12.8017  -12.8002 C.3       6 GLY6        0.0000 
     62 DU         40.4462  -13.7002  -10.4175 H         7 CUB7        0.0000 
     63 O          40.8109  -13.1513  -11.7650 O.2       2 ALA2        0.0000 
     64 CA         41.2641   -3.4795   -7.7028 C.3       6 GLY6        0.0000 
     65 O          38.7164   -4.9268   -3.9726 O.2       2 ALA2        0.0000 
     66 O          39.4459   -3.8291   -6.6676 O.2       2 ALA2        0.0000 
     67 CA         39.8106   -3.2802   -8.0151 C.3       6 GLY6        0.0000 
     68 N          36.8981   -5.2764   -2.9374 N.2       2 ALA2        0.0000 
     69 N          37.2629   -4.7275   -4.2849 N.2       2 ALA2        0.0000 
     70 O          37.6276   -4.1787   -5.6324 O.2       2 ALA2        0.0000 
     71 DU         37.9923   -3.6298   -6.9799 H         7 CUB7        0.0000 
     72 O          38.3570   -3.0810   -8.3274 O.2       2 ALA2        0.0000 
     73 N          35.8093   -4.5283   -4.5971 N.2       2 ALA2        0.0000 
     74 DU         36.1740   -3.9794   -5.9446 H         7 CUB7        0.0000 
     75 N          36.5388   -3.4306   -7.2921 N.2       2 ALA2        0.0000 
     76 N          36.9035   -2.8817   -8.6396 N.2       2 ALA2        0.0000 
     77 N          34.7205   -3.7802   -6.2569 N.2       2 ALA2        0.0000 
     78 N          35.0852   -3.2313   -7.6044 N.2       2 ALA2        0.0000 
     79 N          38.4164   -4.0940   -2.0448 N.2       2 ALA2        0.0000 
     80 O          39.8753   -1.8986   -7.4348 O.2       2 ALA2        0.0000 
     81 OD1        37.3276   -3.3458   -3.7046 O.3       3 ASP3        0.0000 
     82 O          37.6923   -2.7970   -5.0521 O.2       2 ALA2        0.0000 
     83 O          38.0571   -2.2481   -6.3996 O.2       2 ALA2        0.0000 
     84 O          38.4218   -1.6993   -7.7471 O.2       2 ALA2        0.0000 
     85 OD1        35.8741   -3.1466   -4.0168 O.3       3 ASP3        0.0000 
     86 OD1        36.2388   -2.5977   -5.3643 O.3       3 ASP3        0.0000 
     87 DU         36.6035   -2.0489   -6.7118 H         7 CUB7        0.0000 
     88 CA         36.9682   -1.5000   -8.0593 C.3       6 GLY6        0.0000 
     89 N          34.7852   -2.3985   -5.6766 N.2       2 ALA2        0.0000 
     90 N          35.1500   -1.8496   -7.0241 N.2       2 ALA2        0.0000 
     91 CZ         42.5234   -7.8238   -9.1315 C.ar      5 PHE5        0.0000 
     92 CA         40.3404   -8.7223   -6.7488 C.3       6 GLY6        0.0000 
     93 CA         40.7052   -8.1734   -8.0963 C.3       6 GLY6        0.0000 
     94 DU         41.0699   -7.6246   -9.4438 H         7 CUB7        0.0000 
     95 CZ         41.4346   -7.0757  -10.7912 C.ar      5 PHE5        0.0000 
     96 NZ         41.7993   -6.5269  -12.1387 N.2       4 LYS4        0.0000 
     97 DU         38.8869   -8.5230   -7.0610 H         7 CUB7        0.0000 
     98 DU         39.2516   -7.9742   -8.4085 H         7 CUB7        0.0000 
     99 NZ         39.6163   -7.4253   -9.7560 N.2       4 LYS4        0.0000 
    100 NZ         39.9811   -6.8764  -11.1035 N.2       4 LYS4        0.0000 
    101 DU         37.7981   -7.7749   -8.7208 H         7 CUB7        0.0000 
    102 NZ         38.1628   -7.2260  -10.0683 N.2       4 LYS4        0.0000 
    103 O          41.9235   -6.1582   -5.2759 O.2       2 ALA2        0.0000 
    104 O          42.2882   -5.6093   -6.6234 O.2       2 ALA2        0.0000 
    105 O          40.1052   -6.5077   -4.2407 O.2       2 ALA2        0.0000 
    106 O          40.4699   -5.9589   -5.5882 O.2       2 ALA2        0.0000 
    107 O          40.8346   -5.4100   -6.9357 O.2       2 ALA2        0.0000 
    108 CA         41.1994   -4.8612   -8.2831 C.3       6 GLY6        0.0000 
    109 O          38.6517   -6.3085   -4.5529 O.2       2 ALA2        0.0000 
    110 O          39.0164   -5.7596   -5.9004 O.2       2 ALA2        0.0000 
    111 O          39.3811   -5.2108   -7.2479 O.2       2 ALA2        0.0000 
    112 CA         39.7458   -4.6619   -8.5954 C.3       6 GLY6        0.0000 
    113 CA         40.1105   -4.1131   -9.9429 C.3       6 GLY6        0.0000 
    114 N          37.1981   -6.1092   -4.8652 N.2       2 ALA2        0.0000 
    115 DU         37.5628   -5.5604   -6.2127 H         7 CUB7        0.0000 
    116 N          37.9276   -5.0115   -7.5602 N.2       2 ALA2        0.0000 
    117 N          38.2923   -4.4627   -8.9077 N.2       2 ALA2        0.0000 
    118 N          36.1093   -5.3611   -6.5249 N.2       2 ALA2        0.0000 
    119 N          34.6558   -5.1618   -6.8372 N.2       2 ALA2        0.0000 
    120 OD1        37.7571   -1.4153   -4.4718 O.3       3 ASP3        0.0000 
    121 OD1        38.1218   -0.8665   -5.8193 O.3       3 ASP3        0.0000 
    122 OD1        36.6683   -0.6672   -6.1315 O.3       3 ASP3        0.0000 
    123 CA         35.2147   -0.4679   -6.4438 C.3       6 GLY6        0.0000 
    124 OG         40.3814  -15.0818  -10.9978 O.2       1 SER1        0.0000 
    125 CA         40.7461  -14.5330  -12.3453 C.3       6 GLY6        0.0000 
    126 CZ         42.1997  -14.7323  -12.0330 C.ar      5 PHE5        0.0000 
@<TRIPOS>BOND
@<TRIPOS>SUBSTRUCTURE
     1 SER1       17 GROUP   
     2 ALA2        7 GROUP   
     3 ASP3       81 GROUP   
     4 LYS4       28 GROUP   
     5 PHE5        3 GROUP   
     6 GLY6        1 GROUP   
     7 CUB7        5 GROUP   
@<TRIPOS>SET

