#    Name: 3g8c_BTN_1_INTS_M
#    Modification time : Tue Mar 25 07:20:31 2014

@<TRIPOS>MOLECULE
3g8c_BTN_1_INTS_M
   26     0     6     0     0
SMALL
NO_CHARGES


@<TRIPOS>ATOM
      1 N          41.5795  -12.2670  -13.4105 N.am      1 SEC2        0.0000 
      2 N          42.7240  -12.1160  -12.3710 N.am      5 SEL2        0.0000 
      3 N          40.4350  -12.4180  -14.4500 N.am      3 SEP2        0.0000 
      4 CA         44.3000  -12.2215  -10.3875 C.3       2 GLC5        0.0000 
      5 CA         43.3690  -10.7630  -10.4700 C.3       6 GLL5        0.0000 
      6 CA         45.2310  -13.6800  -10.3050 C.3       4 GLP5        0.0000 
      7 CA         43.7855   -7.5325  -10.5915 C.3       2 GLC5        0.0000 
      8 CA         42.7760   -9.3670  -10.6270 C.3       6 GLL5        0.0000 
      9 CA         44.7950   -5.6980  -10.5560 C.3       4 GLP5        0.0000 
     10 N          38.3970   -2.9685  -10.8490 N.am      1 SEC2        0.0000 
     11 N          38.2190   -3.6220   -9.6540 N.am      5 SEL2        0.0000 
     12 N          38.5750   -2.3150  -12.0440 N.am      3 SEP2        0.0000 
     13 N          38.6820   -2.0440  -10.2345 N.am      1 SEC2        0.0000 
     14 N          39.1450   -0.4660  -10.8150 N.am      3 SEP2        0.0000 
     15 CA         41.6112  -10.1235  -12.0478 C.3       2 GLC5        0.0000 
     16 CA         40.1500  -10.1820  -13.5470 C.3       4 GLP5        0.0000 
     17 CA         40.6283   -9.3805  -11.7803 C.3       2 GLC5        0.0000 
     18 CA         41.3790   -9.2910  -10.0130 C.3       6 GLL5        0.0000 
     19 CA         42.1306   -7.7441   -6.6801 C.3       2 GLC5        0.0000 
     20 CA         41.2360   -7.1110   -8.7530 C.3       6 GLL5        0.0000 
     21 CA         43.4820   -8.8490   -6.0020 C.3       4 GLP5        0.0000 
     22 CA         42.9618   -5.7043   -8.7205 C.3       2 GLC5        0.0000 
     23 CA         44.8140   -5.7770   -9.1780 C.3       4 GLP5        0.0000 
     24 CA         41.7765   -3.8355   -9.0942 C.3       2 GLC5        0.0000 
     25 CA         41.2220   -5.6050   -8.9870 C.3       6 GLL5        0.0000 
     26 CA         42.4470   -2.4160   -9.8670 C.3       4 GLP5        0.0000 
@<TRIPOS>BOND
@<TRIPOS>SUBSTRUCTURE
     1 SEC2        1 GROUP        1 X    SEC  0     ROOT SEC X 2
     2 GLC5        4 GROUP        1 X    GLC  0     **** GLC X 6
     3 SEP2        3 GROUP        1 Y    SEP  0     ROOT SEP Y 9
     4 GLP5        6 GROUP        1 Y    GLP  0     **** GLP Y 13
     5 SEL2        2 GROUP        1 Z    SEL  0     ROOT SEL Z 16
     6 GLL5        5 GROUP        1 Z    GLL  0     **** GLL Z 20
@<TRIPOS>SET

