#    Name: 3g8c_BTN_1_ligand
#    Modification time : Tue Mar 25 07:20:31 2014

@<TRIPOS>MOLECULE
3g8c_BTN_1_ligand
   31    32     1     0     0
SMALL
NO_CHARGES


@<TRIPOS>ATOM
      1 C11        42.5270  -11.8120  -11.1690 C.2       1 BTN1004     0.0000 
      2 O11        41.6230  -12.4020  -10.5340 O.co2     1 BTN1004     0.0000 
      3 O12        42.7240  -12.1160  -12.3710 O.co2     1 BTN1004     0.0000 
      4 C10        43.3690  -10.7630  -10.4700 C.3       1 BTN1004     0.0000 
      5 C9         42.7760   -9.3670  -10.6270 C.3       1 BTN1004     0.0000 
      6 C8         41.3790   -9.2910  -10.0130 C.3       1 BTN1004     0.0000 
      7 C7         40.8340   -7.8670  -10.0140 C.3       1 BTN1004     0.0000 
      8 C2         41.2360   -7.1110   -8.7530 C.3       1 BTN1004     0.0000 
      9 S1         40.2270   -7.4700   -7.4580 S.3       1 BTN1004     0.0000 
     10 C6         40.8270   -5.9880   -6.6110 C.3       1 BTN1004     0.0000 
     11 C5         40.9900   -4.9050   -7.6560 C.3       1 BTN1004     0.0000 
     12 N1         39.7380   -4.2040   -7.8610 N.am      1 BTN1004     0.0000 
     13 C3         39.3240   -4.3160   -9.1210 C.2       1 BTN1004     0.0000 
     14 O3         38.2190   -3.6220   -9.6540 O.2       1 BTN1004     0.0000 
     15 N2         40.1030   -5.1540   -9.8010 N.am      1 BTN1004     0.0000 
     16 C4         41.2220   -5.6050   -8.9870 C.3       1 BTN1004     0.0000 
     17 H          44.3801  -10.7706  -10.8881 H         1 BTN1004     0.0000 
     18 H          43.4390  -11.0036   -9.4049 H         1 BTN1004     0.0000 
     19 H          42.7157   -9.1180  -11.6866 H         1 BTN1004     0.0000 
     20 H          43.4241   -8.6425  -10.1336 H         1 BTN1004     0.0000 
     21 H          41.4196   -9.6603   -8.9844 H         1 BTN1004     0.0000 
     22 H          40.7027   -9.9358  -10.5813 H         1 BTN1004     0.0000 
     23 H          39.7437   -7.8995  -10.0817 H         1 BTN1004     0.0000 
     24 H          41.2171   -7.3362  -10.8891 H         1 BTN1004     0.0000 
     25 H          42.2191   -7.4141   -8.4321 H         1 BTN1004     0.0000 
     26 H          41.7330   -6.3197   -6.1900 H         1 BTN1004     0.0000 
     27 H          40.0613   -5.8011   -5.9133 H         1 BTN1004     0.0000 
     28 H          41.7803   -4.2795   -7.4475 H         1 BTN1004     0.0000 
     29 H          39.3072   -3.7321   -7.1313 H         1 BTN1004     0.0000 
     30 H          39.9983   -5.4629  -10.7123 H         1 BTN1004     0.0000 
     31 H          42.1461   -5.2750   -9.3766 H         1 BTN1004     0.0000 
@<TRIPOS>BOND
     1    2    1 ar   
     2    3    1 ar   
     3    4    1 1    
     4    5    4 1    
     5   17    4 1    
     6   18    4 1    
     7    6    5 1    
     8   19    5 1    
     9   20    5 1    
    10    7    6 1    
    11   21    6 1    
    12   22    6 1    
    13    8    7 1    
    14   23    7 1    
    15   24    7 1    
    16    9    8 1    
    17   16    8 1    
    18   25    8 1    
    19   10    9 1    
    20   11   10 1    
    21   26   10 1    
    22   27   10 1    
    23   12   11 1    
    24   16   11 1    
    25   28   11 1    
    26   13   12 am   
    27   29   12 1    
    28   14   13 2    
    29   15   13 am   
    30   16   15 1    
    31   30   15 1    
    32   31   16 1    
@<TRIPOS>SUBSTRUCTURE
     1 BTN1004     1 GROUP   
@<TRIPOS>SET

