#    Name: 3ivc_FG4_2_INTS_M
#    Modification time : Tue Mar 25 17:31:16 2014

@<TRIPOS>MOLECULE
3ivc_FG4_2_INTS_M
   63     0     6     0     0
SMALL
NO_CHARGES


@<TRIPOS>ATOM
      1 N          -0.5375  -14.2275   39.2575 N.am      1 SEC2        0.0000 
      2 N           0.5310  -14.1960   38.5050 N.am      5 SEL2        0.0000 
      3 N          -1.6060  -14.2590   40.0100 N.am      3 SEP2        0.0000 
      4 CA          2.8605  -11.4080   40.7310 C.3       2 GLC5        0.0000 
      5 CA          1.8620  -12.3160   39.1550 C.3       6 GLL5        0.0000 
      6 CA          3.8590  -10.5000   42.3070 C.3       4 GLP5        0.0000 
      7 CA          1.7255  -13.7760   40.7105 C.3       2 GLC5        0.0000 
      8 CA          1.5890  -15.2360   42.2660 C.3       4 GLP5        0.0000 
      9 CA         -2.8405   -6.0230   39.6730 C.3       2 GLC5        0.0000 
     10 CA         -1.9220   -6.3870   41.4430 C.3       6 GLL5        0.0000 
     11 CA         -3.7590   -5.6590   37.9030 C.3       4 GLP5        0.0000 
     12 CA         -0.8780   -5.7970   40.1385 C.3       2 GLC5        0.0000 
     13 CA          0.1660   -5.2070   38.8340 C.3       4 GLP5        0.0000 
     14 CA         -3.2380   -4.8365   41.0985 C.3       2 GLC5        0.0000 
     15 CA         -4.5540   -3.2860   40.7540 C.3       4 GLP5        0.0000 
     16 CA         -1.1545   -6.1155   43.0245 C.3       2 GLC5        0.0000 
     17 CA         -0.3870   -5.8440   44.6060 C.3       4 GLP5        0.0000 
     18 CA         -3.5085   -7.0400   42.8565 C.3       2 GLC5        0.0000 
     19 CA         -5.0950   -7.6930   44.2700 C.3       4 GLP5        0.0000 
     20 CA          0.2710   -8.6350   43.5515 C.3       2 GLC5        0.0000 
     21 CA         -0.6820   -9.4820   41.7990 C.3       6 GLL5        0.0000 
     22 CA          1.2240   -7.7880   45.3040 C.3       4 GLP5        0.0000 
     23 CA          0.4710   -8.8740   29.2765 C.3       2 GLC5        0.0000 
     24 CA          2.0710  -10.1600   29.6360 C.3       6 GLL5        0.0000 
     25 CA         -1.1290   -7.5880   28.9170 C.3       4 GLP5        0.0000 
     26 CA          2.0045  -10.4465   41.7165 C.3       2 GLC5        0.0000 
     27 CA          0.1500  -10.3930   41.1260 C.3       6 GLL5        0.0000 
     28 CA          0.8070  -13.6140   32.5735 C.3       2 GLC5        0.0000 
     29 CA          0.5510  -11.9660   34.0110 C.3       6 GLL5        0.0000 
     30 CA          1.0630  -15.2620   31.1360 C.3       4 GLP5        0.0000 
     31 CA         -1.3410  -11.9015   34.9060 C.3       2 GLC5        0.0000 
     32 CA         -3.2330  -11.8370   35.8010 C.3       4 GLP5        0.0000 
     33 N          -2.2470   -7.5920   43.3750 N.am      1 SEC2        0.0000 
     34 N          -2.3110   -7.7530   41.7310 N.am      5 SEL2        0.0000 
     35 N          -2.1830   -7.4310   45.0190 N.am      3 SEP2        0.0000 
     36 N          -1.1265  -12.0930   35.5090 N.am      1 SEC2        0.0000 
     37 N           0.0160  -11.3850   35.1220 N.am      5 SEL2        0.0000 
     38 N          -2.2690  -12.8010   35.8960 N.am      3 SEP2        0.0000 
     39 CA         -0.0170  -11.0875   31.0755 C.3       2 GLC5        0.0000 
     40 CA          2.0080  -10.4760   31.0010 C.3       6 GLL5        0.0000 
     41 CA         -2.0420  -11.6990   31.1500 C.3       4 GLP5        0.0000 
     42 CA          4.0925   -9.3507   27.6043 C.3       2 GLC5        0.0000 
     43 CA          4.1520   -9.0830   30.0390 C.3       6 GLL5        0.0000 
     44 CA          4.5310   -9.4320   25.6150 C.3       4 GLP5        0.0000 
     45 CA          3.7645   -7.6237   28.5922 C.3       2 GLC5        0.0000 
     46 CA          3.1560   -9.4560   29.1480 C.3       6 GLL5        0.0000 
     47 CA          3.8750   -5.9780   27.5910 C.3       4 GLP5        0.0000 
     48 CA          5.7073   -8.2295   30.2030 C.3       2 GLC5        0.0000 
     49 CA          7.2830   -7.2110   29.6920 C.3       4 GLP5        0.0000 
     50 CA          2.0173  -12.3015   30.3747 C.3       2 GLC5        0.0000 
     51 CA          1.9950  -14.2850   30.4310 C.3       4 GLP5        0.0000 
     52 CA         -2.9510   -9.7153   40.9368 C.3       2 GLC5        0.0000 
     53 CA         -1.5320   -8.7100   39.6620 C.3       6 GLL5        0.0000 
     54 CA         -4.5850  -10.5470   41.3270 C.3       4 GLP5        0.0000 
     55 CA         -0.6805   -6.9390   39.5983 C.3       2 GLC5        0.0000 
     56 CA          1.6325  -12.7368   31.3845 C.3       2 GLC5        0.0000 
     57 CA          1.0940  -11.1540   31.7000 C.3       6 GLL5        0.0000 
     58 CA         -1.6365  -11.1115   36.7218 C.3       2 GLC5        0.0000 
     59 CA          0.4190  -10.8700   37.5850 C.3       6 GLL5        0.0000 
     60 CA         -2.0241   -8.4651   37.3686 C.3       2 GLC5        0.0000 
     61 CA         -0.4990   -9.9020   37.7000 C.3       6 GLL5        0.0000 
     62 CA         -3.2430   -7.3950   36.2220 C.3       4 GLP5        0.0000 
     63 CA         -0.5657  -11.6381   32.1623 C.3       2 GLC5        0.0000 
@<TRIPOS>BOND
@<TRIPOS>SUBSTRUCTURE
     1 SEC2        1 GROUP        1 X    SEC  0     ROOT SEC X 2
     2 GLC5        4 GROUP        1 X    GLC  0     **** GLC X 6
     3 SEP2        3 GROUP        1 Y    SEP  0     ROOT SEP Y 9
     4 GLP5        6 GROUP        1 Y    GLP  0     **** GLP Y 13
     5 SEL2        2 GROUP        1 Z    SEL  0     ROOT SEL Z 16
     6 GLL5        5 GROUP        1 Z    GLL  0     **** GLL Z 20
@<TRIPOS>SET

