#    Name: 3ivc_FG4_2_ligand
#    Modification time : Tue Mar 25 17:31:16 2014

@<TRIPOS>MOLECULE
3ivc_FG4_2_ligand
   44    47     1     0     0
SMALL
NO_CHARGES


@<TRIPOS>ATOM
      1 C           1.6600  -13.7510   38.5610 C.2       1 FG4302      0.0000 
      2 N           0.8230  -11.2590   38.8250 N.pl3     1 FG4302      0.0000 
      3 O           0.5310  -14.1960   38.5050 O.co2     1 FG4302      0.0000 
      4 CA          1.8620  -12.3160   39.1550 C.3       1 FG4302      0.0000 
      5 CAA        -1.9220   -6.3870   41.4430 C.3       1 FG4302      0.0000 
      6 OAC         2.0260  -11.9160   36.0500 O.2       1 FG4302      0.0000 
      7 CAE         3.1560   -9.4560   29.1480 C.ar      1 FG4302      0.0000 
      8 CAF         4.1520   -9.0830   30.0390 C.ar      1 FG4302      0.0000 
      9 CAG        -0.6820   -9.4820   41.7990 C.ar      1 FG4302      0.0000 
     10 CAH         2.0710  -10.1600   29.6360 C.ar      1 FG4302      0.0000 
     11 CAI         4.1110   -9.4130   31.3890 C.ar      1 FG4302      0.0000 
     12 CAJ         0.1500  -10.3930   41.1260 C.ar      1 FG4302      0.0000 
     13 CAK        -1.5320   -8.7100   39.6620 C.ar      1 FG4302      0.0000 
     14 CAL         1.0940  -11.1540   31.7000 C.2       1 FG4302      0.0000 
     15 CAM        -0.4990   -9.9020   37.7000 C.2       1 FG4302      0.0000 
     16 CAN         0.5510  -11.9660   34.0110 C.3       1 FG4302      0.0000 
     17 OAP        -2.3110   -7.7530   41.7310 O.3       1 FG4302      0.0000 
     18 OAQ         0.0160  -11.3850   35.1220 O.3       1 FG4302      0.0000 
     19 OAR         2.6710  -10.5820   33.1480 O.3       1 FG4302      0.0000 
     20 CAT         0.8830  -11.4360   36.1990 C.2       1 FG4302      0.0000 
     21 CAU        -1.5220   -8.6320   41.0630 C.ar      1 FG4302      0.0000 
     22 CAV         1.4460  -11.2230   32.9760 C.2       1 FG4302      0.0000 
     23 CAW         0.4190  -10.8700   37.5850 C.2       1 FG4302      0.0000 
     24 CAX         2.0080  -10.4760   31.0010 C.ar      1 FG4302      0.0000 
     25 CAY        -0.6910   -9.6270   38.9990 C.ar      1 FG4302      0.0000 
     26 CAZ         3.0170  -10.1050   31.8920 C.ar      1 FG4302      0.0000 
     27 CBA         0.1570  -10.4870   39.7230 C.ar      1 FG4302      0.0000 
     28 OXT         2.6390  -14.4180   38.1980 O.co2     1 FG4302      0.0000 
     29 H           2.8683  -11.9577   38.8280 H         1 FG4302      0.0000 
     30 H           1.9402  -12.4217   40.2644 H         1 FG4302      0.0000 
     31 H           3.2246   -9.2163   28.1608 H         1 FG4302      0.0000 
     32 H           4.9671   -8.5313   29.6819 H         1 FG4302      0.0000 
     33 H          -0.6748   -9.4393   42.8198 H         1 FG4302      0.0000 
     34 H           1.3130  -10.4532   29.0119 H         1 FG4302      0.0000 
     35 H           4.8836   -9.1469   32.0085 H         1 FG4302      0.0000 
     36 H           0.7727  -11.0097   41.6759 H         1 FG4302      0.0000 
     37 H          -2.1497   -8.1015   39.1179 H         1 FG4302      0.0000 
     38 H           0.2752  -11.5456   31.3159 H         1 FG4302      0.0000 
     39 H          -0.9561   -9.4654   36.9584 H         1 FG4302      0.0000 
     40 H          -0.2746  -12.4726   33.3591 H         1 FG4302      0.0000 
     41 H           1.1680  -12.9181   34.2868 H         1 FG4302      0.0000 
     42 H          -0.9764   -6.2054   41.7129 H         1 FG4302      0.0000 
     43 H          -1.9937   -6.1782   40.4677 H         1 FG4302      0.0000 
     44 H          -2.4968   -5.7272   41.9270 H         1 FG4302      0.0000 
@<TRIPOS>BOND
     1    3    1 ar   
     2    4    1 1    
     3   28    1 ar   
     4    4    2 1    
     5   23    2 1    
     6   27    2 1    
     7   29    4 1    
     8   30    4 1    
     9   17    5 1    
    10   42    5 1    
    11   43    5 1    
    12   44    5 1    
    13   20    6 2    
    14    8    7 ar   
    15   10    7 ar   
    16   31    7 1    
    17   11    8 ar   
    18   32    8 1    
    19   12    9 ar   
    20   21    9 ar   
    21   33    9 1    
    22   24   10 ar   
    23   34   10 1    
    24   26   11 ar   
    25   35   11 1    
    26   27   12 ar   
    27   36   12 1    
    28   21   13 ar   
    29   25   13 ar   
    30   37   13 1    
    31   22   14 2    
    32   24   14 1    
    33   38   14 1    
    34   23   15 2    
    35   25   15 1    
    36   39   15 1    
    37   18   16 1    
    38   22   16 1    
    39   40   16 1    
    40   41   16 1    
    41   21   17 1    
    42   20   18 1    
    43   22   19 1    
    44   26   19 1    
    45   23   20 1    
    46   26   24 ar   
    47   27   25 ar   
@<TRIPOS>SUBSTRUCTURE
     1 FG4302      1 GROUP   
@<TRIPOS>SET

