#    Name: 2j2p_SC2_7_INTS_M
#    Modification time : Tue Mar 25 19:06:46 2014

@<TRIPOS>MOLECULE
2j2p_SC2_7_INTS_M
   19     0     6     0     0
SMALL
NO_CHARGES


@<TRIPOS>ATOM
      1 CA         -3.2305   15.6285  -28.8365 C.3       2 GLC5        0.0000 
      2 CA         -4.9680   15.1250  -29.1950 C.3       6 GLL5        0.0000 
      3 CA         -1.4930   16.1320  -28.4780 C.3       4 GLP5        0.0000 
      4 N          -3.3945   16.4495  -26.7275 N.am      1 SEC2        0.0000 
      5 N          -4.2920   15.1380  -26.4580 N.am      5 SEL2        0.0000 
      6 N          -2.4970   17.7610  -26.9970 N.am      3 SEP2        0.0000 
      7 CA         -4.3385   18.0395  -25.5575 C.3       2 GLC5        0.0000 
      8 CA         -5.3490   17.2060  -26.0690 C.3       6 GLL5        0.0000 
      9 CA         -3.3280   18.8730  -25.0460 C.3       4 GLP5        0.0000 
     10 CA         -3.5535   17.4075  -27.1520 C.3       2 GLC5        0.0000 
     11 CA         -1.7580   17.6090  -28.2350 C.3       4 GLP5        0.0000 
     12 CA         -6.5290   17.5390  -26.2590 C.3       2 GLC5        0.0000 
     13 CA         -7.7090   17.8720  -26.4490 C.3       4 GLP5        0.0000 
     14 CA         -4.5950   15.7795  -24.5800 C.3       2 GLC5        0.0000 
     15 CA         -3.8410   14.3530  -23.0910 C.3       4 GLP5        0.0000 
     16 CA         -7.9695   13.7915  -26.4890 C.3       2 GLC5        0.0000 
     17 CA         -6.1960   13.7690  -27.1450 C.3       6 GLL5        0.0000 
     18 CA         -9.7430   13.8140  -25.8330 C.3       4 GLP5        0.0000 
     19 CA         -6.9525   15.8205  -26.7970 C.3       2 GLC5        0.0000 
@<TRIPOS>BOND
@<TRIPOS>SUBSTRUCTURE
     1 SEC2        4 GROUP        1 X    SEC  0     ROOT SEC X 2
     2 GLC5        1 GROUP        1 X    GLC  0     **** GLC X 6
     3 SEP2        6 GROUP        1 Y    SEP  0     ROOT SEP Y 9
     4 GLP5        3 GROUP        1 Y    GLP  0     **** GLP Y 13
     5 SEL2        5 GROUP        1 Z    SEL  0     ROOT SEL Z 16
     6 GLL5        2 GROUP        1 Z    GLL  0     **** GLL Z 20
@<TRIPOS>SET

