#    Name: 2j2p_SC2_7_ligand
#    Modification time : Tue Mar 25 19:06:47 2014

@<TRIPOS>MOLECULE
2j2p_SC2_7_ligand
   17    16     1     0     0
SMALL
NO_CHARGES


@<TRIPOS>ATOM
      1 C          -5.5000   15.4290  -30.5740 C.2       1 SC21290     0.0000 
      2 CB         -5.3800   13.7220  -28.7680 C.3       1 SC21290     0.0000 
      3 CT         -4.9650   16.0410  -26.9210 C.2       1 SC21290     0.0000 
      4 CA         -4.9680   15.1250  -29.1950 C.3       1 SC21290     0.0000 
      5 N          -5.4060   16.0740  -28.1820 N.am      1 SC21290     0.0000 
      6 O          -4.7240   15.3210  -31.5540 O.co2     1 SC21290     0.0000 
      7 OXT        -6.6980   15.7770  -30.6980 O.co2     1 SC21290     0.0000 
      8 OT         -4.2920   15.1380  -26.4580 O.2       1 SC21290     0.0000 
      9 CM         -5.3490   17.2060  -26.0690 C.3       1 SC21290     0.0000 
     10 SG         -6.1960   13.7690  -27.1450 S.3       1 SC21290     0.0000 
     11 H          -4.5604   13.0687  -28.5900 H         1 SC21290     0.0000 
     12 H          -6.1289   13.2874  -29.3849 H         1 SC21290     0.0000 
     13 H          -3.8691   15.1259  -29.2451 H         1 SC21290     0.0000 
     14 H          -6.0960   16.7933  -28.5041 H         1 SC21290     0.0000 
     15 H          -4.9909   17.1202  -25.1393 H         1 SC21290     0.0000 
     16 H          -5.0008   18.0674  -26.4389 H         1 SC21290     0.0000 
     17 H          -6.3417   17.2995  -25.9933 H         1 SC21290     0.0000 
@<TRIPOS>BOND
     1    4    1 1    
     2    6    1 ar   
     3    7    1 ar   
     4    4    2 1    
     5   10    2 1    
     6   11    2 1    
     7   12    2 1    
     8    5    3 am   
     9    8    3 2    
    10    9    3 1    
    11    5    4 1    
    12   13    4 1    
    13   14    5 1    
    14   15    9 1    
    15   16    9 1    
    16   17    9 1    
@<TRIPOS>SUBSTRUCTURE
     1 SC21290     1 GROUP   
@<TRIPOS>SET

