#    Name: 4DVV_2_CAVITY_N1_ALL.mol2
#    Modification time : Mon Mar 10 15:15:12 2014

@<TRIPOS>MOLECULE
4DVV_2_CAVITY_N1_ALL.mol2
   63     0     6     0     0
SMALL
NO_CHARGES


@<TRIPOS>ATOM
      1 CA         -8.5062  -34.9461   -6.1503 C.3       5 GLY6        0.0000 
      2 N          -7.5876  -33.6385   -3.2014 N.2       2 ALA2        0.0000 
      3 CA         -9.0957  -36.4749   -2.2368 C.3       5 GLY6        0.0000 
      4 CA         -9.0786  -35.1057   -2.8492 C.3       5 GLY6        0.0000 
      5 N          -9.0615  -33.7365   -3.4617 N.2       2 ALA2        0.0000 
      6 NZ        -10.5697  -36.5729   -2.4971 N.2       3 LYS4        0.0000 
      7 NZ        -10.5526  -35.2037   -3.1096 N.2       3 LYS4        0.0000 
      8 DU        -10.5355  -33.8346   -3.7220 H         6 CUB7        0.0000 
      9 N         -10.5184  -32.4654   -4.3345 N.2       2 ALA2        0.0000 
     10 NZ        -12.0437  -36.6710   -2.7574 N.2       3 LYS4        0.0000 
     11 N          -7.8823  -34.4028   -1.2446 N.2       2 ALA2        0.0000 
     12 N          -7.8652  -33.0337   -1.8571 N.2       2 ALA2        0.0000 
     13 CA         -9.3734  -35.8700   -0.8925 C.3       5 GLY6        0.0000 
     14 CA         -9.3563  -34.5009   -1.5050 C.3       5 GLY6        0.0000 
     15 N          -9.3392  -33.1317   -2.1174 N.2       2 ALA2        0.0000 
     16 CA        -10.8303  -34.5989   -1.7653 C.3       5 GLY6        0.0000 
     17 N         -10.8132  -33.2298   -2.3778 N.2       2 ALA2        0.0000 
     18 N         -10.7961  -31.8606   -2.9902 N.2       2 ALA2        0.0000 
     19 CA        -12.3213  -36.0662   -1.4132 C.3       5 GLY6        0.0000 
     20 CA        -12.3043  -34.6970   -2.0256 C.3       5 GLY6        0.0000 
     21 N         -12.2872  -33.3278   -2.6381 N.2       2 ALA2        0.0000 
     22 N          -3.7380  -33.5039    0.8807 N.2       2 ALA2        0.0000 
     23 N          -3.7210  -32.1347    0.2682 N.2       2 ALA2        0.0000 
     24 N          -5.2120  -33.6019    0.6203 N.2       2 ALA2        0.0000 
     25 N          -6.6860  -33.7000    0.3600 N.2       2 ALA2        0.0000 
     26 CA         -8.1600  -33.7980    0.0997 C.3       5 GLY6        0.0000 
     27 CA         -9.6340  -33.8961   -0.1607 C.3       5 GLY6        0.0000 
     28 CA         -9.6169  -32.5269   -0.7731 C.3       5 GLY6        0.0000 
     29 CA        -11.1079  -33.9941   -0.4210 C.3       5 GLY6        0.0000 
     30 N         -11.0738  -31.2558   -1.6459 N.2       2 ALA2        0.0000 
     31 CA        -12.5819  -34.0922   -0.6813 C.3       5 GLY6        0.0000 
     32 N         -12.5477  -31.3539   -1.9063 N.2       2 ALA2        0.0000 
     33 CZ         -2.5588  -34.1702    3.0977 C.ar      4 PHE5        0.0000 
     34 CZ         -2.5417  -32.8010    2.4853 C.ar      4 PHE5        0.0000 
     35 CZ         -2.5246  -31.4318    1.8728 C.ar      4 PHE5        0.0000 
     36 CA         -4.0328  -34.2682    2.8374 C.3       5 GLY6        0.0000 
     37 DU         -4.0157  -32.8991    2.2250 H         6 CUB7        0.0000 
     38 CA         -3.9986  -31.5299    1.6125 C.3       5 GLY6        0.0000 
     39 OG         -5.5068  -34.3663    2.5771 O.2       1 SER1        0.0000 
     40 CA         -5.4897  -32.9971    1.9646 C.3       5 GLY6        0.0000 
     41 CA         -5.4726  -31.6280    1.3522 C.3       5 GLY6        0.0000 
     42 CA         -6.9808  -34.4643    2.3167 C.3       5 GLY6        0.0000 
     43 CA         -6.9637  -33.0952    1.7043 C.3       5 GLY6        0.0000 
     44 CA         -8.4547  -34.5624    2.0564 C.3       5 GLY6        0.0000 
     45 CA         -8.4376  -33.1932    1.4440 C.3       5 GLY6        0.0000 
     46 NZ         -8.8181  -37.0797   -3.5811 N.2       3 LYS4        0.0000 
     47 CA         -8.8010  -35.7105   -4.1935 C.3       5 GLY6        0.0000 
     48 CA         -8.7839  -34.3413   -4.8060 C.3       5 GLY6        0.0000 
     49 NZ        -10.2750  -35.8086   -4.4539 N.2       3 LYS4        0.0000 
     50 CZ         -2.8365  -33.5654    4.4420 C.ar      4 PHE5        0.0000 
     51 CZ         -2.8194  -32.1962    3.8296 C.ar      4 PHE5        0.0000 
     52 CZ         -2.8023  -30.8270    3.2171 C.ar      4 PHE5        0.0000 
     53 OG         -4.3105  -33.6634    4.1817 O.2       1 SER1        0.0000 
     54 DU         -4.2934  -32.2943    3.5692 H         6 CUB7        0.0000 
     55 CA         -4.2763  -30.9251    2.9568 C.3       5 GLY6        0.0000 
     56 OG         -5.7673  -32.3923    3.3089 O.2       1 SER1        0.0000 
     57 CA         -5.7503  -31.0231    2.6964 C.3       5 GLY6        0.0000 
     58 CA         -7.2413  -32.4904    3.0486 C.3       5 GLY6        0.0000 
     59 CA         -7.2242  -31.1212    2.4361 C.3       5 GLY6        0.0000 
     60 O          -3.0970  -31.5914    5.1739 O.2       2 ALA2        0.0000 
     61 O          -4.5881  -33.0586    5.5260 O.2       2 ALA2        0.0000 
     62 N          -4.5710  -31.6894    4.9135 N.2       2 ALA2        0.0000 
     63 CA         -6.0450  -31.7875    4.6532 C.3       5 GLY6        0.0000 
@<TRIPOS>BOND
@<TRIPOS>SUBSTRUCTURE
     1 SER1       39 GROUP   
     2 ALA2        2 GROUP   
     3 LYS4        6 GROUP   
     4 PHE5       33 GROUP   
     5 GLY6        1 GROUP   
     6 CUB7        8 GROUP   
@<TRIPOS>SET

