#    Name: 4dvv_0M1_2_INTS_M
#    Modification time : Mon Apr  7 23:12:25 2014

@<TRIPOS>MOLECULE
4dvv_0M1_2_INTS_M
   41     0     6     0     0
SMALL
NO_CHARGES


@<TRIPOS>ATOM
      1 CA         -2.7645  -30.0990    4.4040 C.3       2 GLC5        0.0000 
      2 CA         -3.4290  -32.0810    4.8410 C.3       6 GLL5        0.0000 
      3 CA         -2.1000  -28.1170    3.9670 C.3       4 GLP5        0.0000 
      4 CA         -4.9650  -30.4750    4.7815 C.3       2 GLC5        0.0000 
      5 CA         -6.5010  -28.8690    4.7220 C.3       4 GLP5        0.0000 
      6 CA         -3.3570  -32.8155    6.4955 C.3       2 GLC5        0.0000 
      7 CA         -3.2850  -33.5500    8.1500 C.3       4 GLP5        0.0000 
      8 CA         -1.7525  -31.1530    5.9370 C.3       2 GLC5        0.0000 
      9 CA         -0.0760  -30.2250    7.0330 C.3       4 GLP5        0.0000 
     10 CA         -1.7460  -32.2495    3.9635 C.3       2 GLC5        0.0000 
     11 CA         -0.0630  -32.4180    3.0860 C.3       4 GLP5        0.0000 
     12 CA         -6.9195  -32.2770    6.4695 C.3       2 GLC5        0.0000 
     13 CA         -6.2860  -32.6250    4.9220 C.3       6 GLL5        0.0000 
     14 CA         -7.5530  -31.9290    8.0170 C.3       4 GLP5        0.0000 
     15 O          -6.0265  -33.4905   -0.9185 O.2       1 ALC1        0.0000 
     16 O          -6.9240  -33.3990    0.2080 O.2       5 ALL1        0.0000 
     17 O          -5.1290  -33.5820   -2.0450 O.2       3 ALP1        0.0000 
     18 O         -11.3765  -32.7120   -0.2305 O.2       1 ALC1        0.0000 
     19 O         -10.4550  -33.7880   -1.0930 O.2       5 ALL1        0.0000 
     20 O         -12.2980  -31.6360    0.6320 O.2       3 ALP1        0.0000 
     21 CA        -12.9665  -35.6015    0.2080 C.3       2 GLC5        0.0000 
     22 CA        -14.5990  -34.5640   -0.6380 C.3       6 GLL5        0.0000 
     23 CA        -11.3340  -36.6390    1.0540 C.3       4 GLP5        0.0000 
     24 CA         -5.6176  -34.7163    1.0427 C.3       2 GLC5        0.0000 
     25 CA         -6.6020  -33.0050    2.6290 C.3       6 GLL5        0.0000 
     26 CA         -5.7160  -36.4950    0.5200 C.3       4 GLP5        0.0000 
     27 CA         -2.5000  -32.5623    0.4317 C.3       2 GLC5        0.0000 
     28 CA         -4.6970  -32.8340    1.1500 C.3       6 GLL5        0.0000 
     29 CA         -0.7110  -32.4440   -0.8290 C.3       4 GLP5        0.0000 
     30 CA         -6.6781  -31.4078    0.9227 C.3       2 GLC5        0.0000 
     31 CA         -7.8370  -29.8780    0.2800 C.3       4 GLP5        0.0000 
     32 CA         -6.0947  -30.7340    4.4941 C.3       2 GLC5        0.0000 
     33 CA         -5.7700  -32.6920    3.7080 C.3       6 GLL5        0.0000 
     34 CA         -7.8660  -33.7244    4.3856 C.3       2 GLC5        0.0000 
     35 CA         -9.4960  -34.7120    4.7260 C.3       4 GLP5        0.0000 
     36 CA         -5.4787  -34.5355    4.7401 C.3       2 GLC5        0.0000 
     37 CA         -5.2690  -36.4720    5.2140 C.3       4 GLP5        0.0000 
     38 CA        -11.5925  -35.6073   -0.5633 C.3       2 GLC5        0.0000 
     39 CA        -11.2250  -34.1320   -2.3010 C.3       6 GLL5        0.0000 
     40 CA        -13.1235  -34.0795    0.3602 C.3       2 GLC5        0.0000 
     41 CA        -12.3690  -33.5630    2.0420 C.3       4 GLP5        0.0000 
@<TRIPOS>BOND
@<TRIPOS>SUBSTRUCTURE
     1 ALC1       15 GROUP        1 X    ALC  0     ROOT ALC X 1
     2 GLC5        1 GROUP        1 X    GLC  0     **** GLC X 6
     3 ALP1       17 GROUP        1 Y    ALP  0     ROOT ALP Y 8
     4 GLP5        3 GROUP        1 Y    GLP  0     **** GLP Y 13
     5 ALL1       16 GROUP        1 Z    ALL  0     ROOT ALL Z 15
     6 GLL5        2 GROUP        1 Z    GLL  0     **** GLL Z 20
@<TRIPOS>SET

