#    Name: 4dvv_0M1_2_ligand
#    Modification time : Mon Apr  7 23:12:25 2014

@<TRIPOS>MOLECULE
4dvv_0M1_2_ligand
   44    45     1     0     0
SMALL
NO_CHARGES


@<TRIPOS>ATOM
      1 C01        -4.4120  -32.4540    3.5130 C.ar      1 0M1513      0.0000 
      2 C02        -5.7700  -32.6920    3.7080 C.ar      1 0M1513      0.0000 
      3 C03        -6.6020  -33.0050    2.6290 C.ar      1 0M1513      0.0000 
      4 C04        -6.0810  -33.0770    1.3330 C.ar      1 0M1513      0.0000 
      5 C05        -4.6970  -32.8340    1.1500 C.ar      1 0M1513      0.0000 
      6 C06        -3.8810  -32.5270    2.2350 C.ar      1 0M1513      0.0000 
      7 CL1        -3.4290  -32.0810    4.8410 Cl        1 0M1513      0.0000 
      8 F08        -6.2860  -32.6250    4.9220 F         1 0M1513      0.0000 
      9 N09        -6.9240  -33.3990    0.2080 N.am      1 0M1513      0.0000 
     10 C10        -8.3320  -33.4120    0.1960 C.2       1 0M1513      0.0000 
     11 C11        -9.0690  -33.7880   -1.1230 C.2       1 0M1513      0.0000 
     12 N12       -10.4550  -33.7880   -1.0930 N.am      1 0M1513      0.0000 
     13 O13        -8.4340  -34.0680   -2.1330 O.2       1 0M1513      0.0000 
     14 O14        -9.0340  -33.1440    1.1610 O.2       1 0M1513      0.0000 
     15 C15       -11.2250  -34.1320   -2.3010 C.3       1 0M1513      0.0000 
     16 C16       -12.4770  -35.0190   -2.0600 C.3       1 0M1513      0.0000 
     17 C17       -13.8370  -34.2370   -1.9500 C.3       1 0M1513      0.0000 
     18 O18       -14.5940  -34.6750   -3.0470 O.3       1 0M1513      0.0000 
     19 C19       -14.0070  -35.8200   -3.6250 C.3       1 0M1513      0.0000 
     20 O20       -12.6610  -35.8340   -3.2010 O.3       1 0M1513      0.0000 
     21 C21       -14.5990  -34.5640   -0.6380 C.3       1 0M1513      0.0000 
     22 N22       -15.5700  -33.5540   -0.2440 N.4       1 0M1513      0.0000 
     23 C23       -14.7450  -37.0880   -3.1890 C.3       1 0M1513      0.0000 
     24 C24       -14.0940  -35.6890   -5.1480 C.3       1 0M1513      0.0000 
     25 H          -7.6018  -33.1832    2.7886 H         1 0M1513      0.0000 
     26 H          -4.3022  -32.8876    0.2020 H         1 0M1513      0.0000 
     27 H          -2.8754  -32.3532    2.0842 H         1 0M1513      0.0000 
     28 H          -6.4208  -33.6493   -0.6948 H         1 0M1513      0.0000 
     29 H         -10.9785  -33.5548   -0.2514 H         1 0M1513      0.0000 
     30 H         -10.5796  -34.6638   -3.0340 H         1 0M1513      0.0000 
     31 H         -11.5685  -33.2093   -2.8179 H         1 0M1513      0.0000 
     32 H         -12.3536  -35.5991   -1.1848 H         1 0M1513      0.0000 
     33 H         -13.6218  -33.2016   -1.9908 H         1 0M1513      0.0000 
     34 H         -13.8369  -34.7123    0.1545 H         1 0M1513      0.0000 
     35 H         -15.0875  -35.5498   -0.7806 H         1 0M1513      0.0000 
     36 H         -15.1398  -32.6638   -0.0940 H         1 0M1513      0.0000 
     37 H         -16.2753  -33.4250   -0.9411 H         1 0M1513      0.0000 
     38 H         -16.0382  -33.8000    0.6047 H         1 0M1513      0.0000 
     39 H         -14.3406  -37.9097   -3.5905 H         1 0M1513      0.0000 
     40 H         -14.7250  -37.2065   -2.1963 H         1 0M1513      0.0000 
     41 H         -15.7066  -37.0708   -3.4629 H         1 0M1513      0.0000 
     42 H         -13.6149  -34.8760   -5.4788 H         1 0M1513      0.0000 
     43 H         -13.6894  -36.4769   -5.6122 H         1 0M1513      0.0000 
     44 H         -15.0411  -35.6188   -5.4612 H         1 0M1513      0.0000 
@<TRIPOS>BOND
     1    2    1 ar   
     2    6    1 ar   
     3    7    1 1    
     4    3    2 ar   
     5    8    2 1    
     6    4    3 ar   
     7   25    3 1    
     8    5    4 ar   
     9    9    4 1    
    10    6    5 ar   
    11   26    5 1    
    12   27    6 1    
    13   10    9 am   
    14   28    9 1    
    15   11   10 1    
    16   14   10 2    
    17   12   11 am   
    18   13   11 2    
    19   15   12 1    
    20   29   12 1    
    21   16   15 1    
    22   30   15 1    
    23   31   15 1    
    24   17   16 1    
    25   20   16 1    
    26   32   16 1    
    27   18   17 1    
    28   21   17 1    
    29   33   17 1    
    30   19   18 1    
    31   20   19 1    
    32   23   19 1    
    33   24   19 1    
    34   22   21 1    
    35   34   21 1    
    36   35   21 1    
    37   36   22 1    
    38   37   22 1    
    39   38   22 1    
    40   39   23 1    
    41   40   23 1    
    42   41   23 1    
    43   42   24 1    
    44   43   24 1    
    45   44   24 1    
@<TRIPOS>SUBSTRUCTURE
     1 0M1513      1 GROUP   
@<TRIPOS>SET

