#    Name: 1n7h_GDP_2_INTS_M
#    Modification time : Mon Mar 24 17:49:43 2014

@<TRIPOS>MOLECULE
1n7h_GDP_2_INTS_M
   62     0    12     0     0
SMALL
NO_CHARGES


@<TRIPOS>ATOM
      1 NZ         55.7115   46.1160    2.5030 N.4       3 LYC4        0.0000 
      2 NZ         55.6960   44.7660    2.0320 N.4      11 LYL4        0.0000 
      3 NZ         54.6170   48.1510    3.2140 N.4       7 LYP4        0.0000 
      4 N          55.7115   46.1160    2.5030 N.am      2 SEC2        0.0000 
      5 N          55.6960   44.7660    2.0320 N.am     10 SEL2        0.0000 
      6 N          55.7270   47.4660    2.9740 N.am      6 SEP2        0.0000 
      7 N          57.0020   45.0925    1.8495 N.am      2 SEC2        0.0000 
      8 N          58.3080   45.4190    1.6670 N.am      6 SEP2        0.0000 
      9 NZ         57.0230   43.4785   -1.0490 N.4       3 LYC4        0.0000 
     10 NZ         56.2240   43.0960    0.1130 N.4      11 LYL4        0.0000 
     11 NZ         58.5070   44.9980   -2.2620 N.4       7 LYP4        0.0000 
     12 N          55.7130   41.9440   -0.6190 N.am      2 SEC2        0.0000 
     13 N          56.2240   43.0960    0.1130 N.am     10 SEL2        0.0000 
     14 N          55.2020   40.7920   -1.3510 N.am      6 SEP2        0.0000 
     15 N          57.0230   43.4785   -1.0490 N.am      2 SEC2        0.0000 
     16 N          57.8220   43.8610   -2.2110 N.am      6 SEP2        0.0000 
     17 N          50.4515   44.5145   -0.1565 N.am      2 SEC2        0.0000 
     18 N          51.7860   44.0180   -0.0490 N.am     10 SEL2        0.0000 
     19 N          49.1170   45.0110   -0.2640 N.am      6 SEP2        0.0000 
     20 N          51.9740   42.8415   -0.9035 N.am      2 SEC2        0.0000 
     21 N          52.1620   41.6650   -1.7580 N.am      6 SEP2        0.0000 
     22 NZ         52.9420   46.3245    2.7350 N.4       3 LYC4        0.0000 
     23 NZ         52.4280   45.1330    2.1650 N.4      11 LYL4        0.0000 
     24 N          52.9420   46.3245    2.7350 N.am      2 SEC2        0.0000 
     25 N          52.4280   45.1330    2.1650 N.am     10 SEL2        0.0000 
     26 N          53.4560   47.5160    3.3050 N.am      6 SEP2        0.0000 
     27 CA         53.9035   47.4255   -3.6785 C.3       4 GLC5        0.0000 
     28 CA         54.7080   46.8320   -1.7530 C.3      12 GLL5        0.0000 
     29 CA         53.0990   48.0190   -5.6040 C.3       8 GLP5        0.0000 
     30 O          57.7835   48.7430   -0.6410 O.2       1 ALC1        0.0000 
     31 O          56.6840   48.2100   -1.4620 O.2       9 ALL1        0.0000 
     32 O          58.8830   49.2760    0.1800 O.2       5 ALP1        0.0000 
     33 CA         55.2440   49.5000    1.5030 C.3       4 GLC5        0.0000 
     34 CA         54.6260   48.7110   -0.2770 C.3      12 GLL5        0.0000 
     35 CA         55.8620   50.2890    3.2830 C.3       8 GLP5        0.0000 
     36 O          56.5675   50.4305   -0.3195 O.2       1 ALC1        0.0000 
     37 O          55.3180   49.8910    0.1080 O.2       9 ALL1        0.0000 
     38 O          57.8170   50.9700   -0.7470 O.2       5 ALP1        0.0000 
     39 CA         55.5565   48.8975   -2.9635 C.3       4 GLC5        0.0000 
     40 CA         53.8230   48.9810   -1.5440 C.3      12 GLL5        0.0000 
     41 CA         57.2900   48.8140   -4.3830 C.3       8 GLP5        0.0000 
     42 CA         53.4610   48.5000   -3.5740 C.3       4 GLC5        0.0000 
     43 N          50.6510   52.5995   -1.6000 N.am      2 SEC2        0.0000 
     44 N          50.9610   51.2170   -1.5760 N.am     10 SEL2        0.0000 
     45 N          50.3410   53.9820   -1.6240 N.am      6 SEP2        0.0000 
     46 CA         48.8815   50.6240   -1.6345 C.3       4 GLC5        0.0000 
     47 CA         50.6260   50.3510   -0.5460 C.3      12 GLL5        0.0000 
     48 CA         47.1370   50.8970   -2.7230 C.3       8 GLP5        0.0000 
     49 CA         51.1180   52.4935   -0.9580 C.3       4 GLC5        0.0000 
     50 CA         51.6100   54.6360   -1.3700 C.3       8 GLP5        0.0000 
     51 N          47.2625   51.3290    0.8380 N.am      2 SEC2        0.0000 
     52 N          48.5500   51.1380    0.3500 N.am     10 SEL2        0.0000 
     53 N          45.9750   51.5200    1.3260 N.am      6 SEP2        0.0000 
     54 O          49.2760   46.6435    2.8055 O.2       1 ALC1        0.0000 
     55 O          50.3780   47.3470    2.1560 O.2       9 ALL1        0.0000 
     56 O          48.1740   45.9400    3.4550 O.2       5 ALP1        0.0000 
     57 CA         52.6135   45.8260   -2.2222 C.3       4 GLC5        0.0000 
     58 CA         50.8080   45.4610   -2.9650 C.3       8 GLP5        0.0000 
     59 CA         56.2170   48.0212   -2.8232 C.3       4 GLC5        0.0000 
     60 CA         50.3845   48.7812   -1.6595 C.3       4 GLC5        0.0000 
     61 CA         51.5820   49.3680   -0.4020 C.3      12 GLL5        0.0000 
     62 CA         49.6650   47.7030   -2.8450 C.3       8 GLP5        0.0000 
@<TRIPOS>BOND
@<TRIPOS>SUBSTRUCTURE
     1 ALC1       30 GROUP        1 X    ALC  0     ROOT ALC X 1
     2 SEC2        4 GROUP        1 X    SEC  0     **** SEC X 2
     3 LYC4        1 GROUP        1 X    LYC  0     **** LYC X 4
     4 GLC5       27 GROUP        1 X    GLC  0     **** GLC X 6
     5 ALP1       32 GROUP        1 Y    ALP  0     ROOT ALP Y 8
     6 SEP2        6 GROUP        1 Y    SEP  0     **** SEP Y 9
     7 LYP4        3 GROUP        1 Y    LYP  0     **** LYP Y 11
     8 GLP5       29 GROUP        1 Y    GLP  0     **** GLP Y 13
     9 ALL1       31 GROUP        1 Z    ALL  0     ROOT ALL Z 15
    10 SEL2        5 GROUP        1 Z    SEL  0     **** SEL Z 16
    11 LYL4        2 GROUP        1 Z    LYL  0     **** LYL Z 18
    12 GLL5       28 GROUP        1 Z    GLL  0     **** GLL Z 20
@<TRIPOS>SET

