#    Name: 1n7h_GDP_2_ligand
#    Modification time : Mon Mar 24 17:49:43 2014

@<TRIPOS>MOLECULE
1n7h_GDP_2_ligand
   40    42     1     0     0
SMALL
NO_CHARGES


@<TRIPOS>ATOM
      1 PB         55.5340   43.3680    1.4480 P.3       1 GDP602      0.0000 
      2 O1B        55.4840   42.2140    2.4370 O.co2     1 GDP602      0.0000 
      3 O2B        55.6960   44.7660    2.0320 O.co2     1 GDP602      0.0000 
      4 O3B        56.2240   43.0960    0.1130 O.co2     1 GDP602      0.0000 
      5 O3A        53.9570   43.4210    1.0300 O.3       1 GDP602      0.0000 
      6 PA         52.8290   44.5830    0.8490 P.3       1 GDP602      0.0000 
      7 O1A        51.7860   44.0180   -0.0490 O.co2     1 GDP602      0.0000 
      8 O2A        52.4280   45.1330    2.1650 O.co2     1 GDP602      0.0000 
      9 O5'        53.5380   45.7760    0.0670 O.3       1 GDP602      0.0000 
     10 C5'        54.1300   45.5500   -1.2060 C.3       1 GDP602      0.0000 
     11 C4'        54.7080   46.8320   -1.7530 C.3       1 GDP602      0.0000 
     12 O4'        53.6110   47.7120   -2.1260 O.3       1 GDP602      0.0000 
     13 C3'        55.5800   47.6250   -0.7740 C.3       1 GDP602      0.0000 
     14 O3'        56.6840   48.2100   -1.4620 O.3       1 GDP602      0.0000 
     15 C2'        54.6260   48.7110   -0.2770 C.3       1 GDP602      0.0000 
     16 O2'        55.3180   49.8910    0.1080 O.3       1 GDP602      0.0000 
     17 C1'        53.8230   48.9810   -1.5440 C.3       1 GDP602      0.0000 
     18 N9         52.5270   49.6330   -1.3710 N.pl3     1 GDP602      0.0000 
     19 C8         52.0910   50.7560   -2.0340 C.2       1 GDP602      0.0000 
     20 N7         50.9610   51.2170   -1.5760 N.2       1 GDP602      0.0000 
     21 C5         50.6260   50.3510   -0.5460 C.2       1 GDP602      0.0000 
     22 C6         49.4970   50.3400    0.3110 C.2       1 GDP602      0.0000 
     23 O6         48.5500   51.1380    0.3500 O.2       1 GDP602      0.0000 
     24 N1         49.5360   49.2640    1.1980 N.am      1 GDP602      0.0000 
     25 C2         50.5370   48.3250    1.2530 C.2       1 GDP602      0.0000 
     26 N2         50.3780   47.3470    2.1560 N.pl3     1 GDP602      0.0000 
     27 N3         51.6060   48.3370    0.4730 N.2       1 GDP602      0.0000 
     28 C4         51.5820   49.3680   -0.4020 C.2       1 GDP602      0.0000 
     29 H          53.3942   45.1702   -1.9325 H         1 GDP602      0.0000 
     30 H          54.9414   44.8072   -1.1486 H         1 GDP602      0.0000 
     31 H          55.2984   46.6170   -2.6345 H         1 GDP602      0.0000 
     32 H          55.8381   47.0053    0.0268 H         1 GDP602      0.0000 
     33 H          53.9899   48.3044    0.4400 H         1 GDP602      0.0000 
     34 H          54.4564   49.5708   -2.2115 H         1 GDP602      0.0000 
     35 H          52.6165   51.1513   -2.7887 H         1 GDP602      0.0000 
     36 H          48.7238   49.1709    1.8813 H         1 GDP602      0.0000 
     37 H          49.5278   47.3678    2.6820 H         1 GDP602      0.0000 
     38 H          51.1238   46.6842    2.2227 H         1 GDP602      0.0000 
     39 H          57.3230   48.4814   -0.7422 H         1 GDP602      0.0000 
     40 H          56.0699   49.9749   -0.5459 H         1 GDP602      0.0000 
@<TRIPOS>BOND
     1    2    1 ar   
     2    3    1 ar   
     3    4    1 ar   
     4    5    1 1    
     5    6    5 1    
     6    7    6 ar   
     7    8    6 ar   
     8    9    6 1    
     9   10    9 1    
    10   11   10 1    
    11   29   10 1    
    12   30   10 1    
    13   12   11 1    
    14   13   11 1    
    15   31   11 1    
    16   17   12 1    
    17   14   13 1    
    18   15   13 1    
    19   32   13 1    
    20   39   14 1    
    21   16   15 1    
    22   17   15 1    
    23   33   15 1    
    24   40   16 1    
    25   18   17 1    
    26   34   17 1    
    27   19   18 1    
    28   28   18 1    
    29   20   19 2    
    30   35   19 1    
    31   21   20 1    
    32   22   21 1    
    33   28   21 2    
    34   23   22 2    
    35   24   22 am   
    36   25   24 1    
    37   36   24 1    
    38   26   25 1    
    39   27   25 2    
    40   37   26 1    
    41   38   26 1    
    42   28   27 1    
@<TRIPOS>SUBSTRUCTURE
     1 GDP602      1 GROUP   
@<TRIPOS>SET

