#    Name: 3o1d_G72_1_INTS_M
#    Modification time : Tue Mar 25 03:08:23 2014

@<TRIPOS>MOLECULE
3o1d_G72_1_INTS_M
  148     0     9     0     0
SMALL
NO_CHARGES


@<TRIPOS>ATOM
      1 CA          4.2690   39.6750   40.1680 C.3       3 GLC5        0.0000 
      2 CA          2.8720   39.3640   38.8760 C.3       9 GLL5        0.0000 
      3 CA          5.6660   39.9860   41.4600 C.3       6 GLP5        0.0000 
      4 CA          6.8205   31.5065   34.1660 C.3       3 GLC5        0.0000 
      5 CA          6.6000   29.6110   34.3110 C.3       9 GLL5        0.0000 
      6 CA          7.0410   33.4020   34.0210 C.3       6 GLP5        0.0000 
      7 CA          6.9230   30.2320   36.3545 C.3       3 GLC5        0.0000 
      8 CA          7.2460   30.8530   38.3980 C.3       6 GLP5        0.0000 
      9 CA          6.5980   28.2395   35.8745 C.3       3 GLC5        0.0000 
     10 CA          6.5960   26.8680   37.4380 C.3       6 GLP5        0.0000 
     11 N           5.0505   40.7175   38.6365 N.am      2 SEC2        0.0000 
     12 N           4.2390   39.4530   38.4630 N.am      8 SEL2        0.0000 
     13 N           5.8620   41.9820   38.8100 N.am      5 SEP2        0.0000 
     14 O           4.5850   39.1625   37.1070 O.2       1 ALC1        0.0000 
     15 O           4.2390   39.4530   38.4630 O.2       7 ALL1        0.0000 
     16 O           4.9310   38.8720   35.7510 O.2       4 ALP1        0.0000 
     17 CA          2.5965   42.0410   39.6715 C.3       3 GLC5        0.0000 
     18 CA          2.1000   40.5270   38.2650 C.3       9 GLL5        0.0000 
     19 CA          3.0930   43.5550   41.0780 C.3       6 GLP5        0.0000 
     20 CA          4.6110   31.4875   31.0955 C.3       3 GLC5        0.0000 
     21 CA          5.3710   30.4210   32.7270 C.3       9 GLL5        0.0000 
     22 CA          3.8510   32.5540   29.4640 C.3       6 GLP5        0.0000 
     23 N           0.6495   41.8820   40.7825 N.am      2 SEC2        0.0000 
     24 N           0.5370   40.4880   40.1060 N.am      8 SEL2        0.0000 
     25 N           0.7620   43.2760   41.4590 N.am      5 SEP2        0.0000 
     26 O          -0.8060   40.1920   40.6380 O.2       1 ALC1        0.0000 
     27 O           0.5370   40.4880   40.1060 O.2       7 ALL1        0.0000 
     28 O          -2.1490   39.8960   41.1700 O.2       4 ALP1        0.0000 
     29 CA         -0.1720   42.1835   38.6200 C.3       3 GLC5        0.0000 
     30 CA          0.6340   40.4750   38.6760 C.3       9 GLL5        0.0000 
     31 CA         -0.9780   43.8920   38.5640 C.3       6 GLP5        0.0000 
     32 CA          1.1860   39.5845   40.6525 C.3       3 GLC5        0.0000 
     33 CA          1.7380   38.6940   42.6290 C.3       6 GLP5        0.0000 
     34 CA         -0.9680   40.8565   40.0065 C.3       3 GLC5        0.0000 
     35 CA         -2.5700   41.2380   41.3370 C.3       6 GLP5        0.0000 
     36 CA          6.5405   28.4125   30.2635 C.3       3 GLC5        0.0000 
     37 CA          6.6820   28.7660   32.3460 C.3       9 GLL5        0.0000 
     38 CA          6.3990   28.0590   28.1810 C.3       6 GLP5        0.0000 
     39 CA          8.0240   29.6030   31.3480 C.3       3 GLC5        0.0000 
     40 CA          9.3660   30.4400   30.3500 C.3       6 GLP5        0.0000 
     41 CA          8.5860   29.2770   33.0550 C.3       3 GLC5        0.0000 
     42 CA         10.4900   29.7880   33.7640 C.3       6 GLP5        0.0000 
     43 N           4.0705   26.3775   34.8405 N.am      2 SEC2        0.0000 
     44 N           5.3520   27.1080   34.1170 N.am      8 SEL2        0.0000 
     45 N           2.7890   25.6470   35.5640 N.am      5 SEP2        0.0000 
     46 O           6.3620   27.3025   35.3050 O.2       1 ALC1        0.0000 
     47 O           5.3520   27.1080   34.1170 O.2       7 ALL1        0.0000 
     48 O           7.3720   27.4970   36.4930 O.2       4 ALP1        0.0000 
     49 CA          1.6465   30.4445   32.0235 C.3       3 GLC5        0.0000 
     50 CA          3.2420   29.0420   32.0200 C.3       9 GLL5        0.0000 
     51 CA          0.0510   31.8470   32.0270 C.3       6 GLP5        0.0000 
     52 CA          3.5465   30.7980   30.7420 C.3       3 GLC5        0.0000 
     53 CA          6.7400   26.8225   31.9775 C.3       3 GLC5        0.0000 
     54 CA          4.7460   27.6490   31.3800 C.3       9 GLL5        0.0000 
     55 CA          8.7340   25.9960   32.5750 C.3       6 GLP5        0.0000 
     56 CA          5.5725   27.8540   29.7805 C.3       3 GLC5        0.0000 
     57 CA          0.9615   27.2525   32.2365 C.3       3 GLC5        0.0000 
     58 CA          3.1450   26.9770   32.6510 C.3       9 GLL5        0.0000 
     59 CA         -1.2220   27.5280   31.8220 C.3       6 GLP5        0.0000 
     60 CA          2.3125   26.1770   33.9485 C.3       3 GLC5        0.0000 
     61 CA          1.4800   25.3770   35.2460 C.3       6 GLP5        0.0000 
     62 CA         -0.7955   34.4130   40.6140 C.3       3 GLC5        0.0000 
     63 CA          0.3080   34.4350   39.0270 C.3       9 GLL5        0.0000 
     64 CA         -1.8990   34.3910   42.2010 C.3       6 GLP5        0.0000 
     65 CA         -1.9990   34.5215   39.8390 C.3       3 GLC5        0.0000 
     66 CA         -1.0290   34.3340   38.3380 C.3       9 GLL5        0.0000 
     67 CA         -2.9690   34.7090   41.3400 C.3       6 GLP5        0.0000 
     68 CA         -2.4795   35.5100   37.2975 C.3       3 GLC5        0.0000 
     69 CA         -3.9300   36.6860   36.2570 C.3       6 GLP5        0.0000 
     70 CA          1.3560   37.3050   36.6590 C.3       3 GLC5        0.0000 
     71 CA          2.3190   38.0320   38.3840 C.3       9 GLL5        0.0000 
     72 CA          0.3930   36.5780   34.9340 C.3       6 GLP5        0.0000 
     73 CA          3.9805   36.7090   38.7285 C.3       3 GLC5        0.0000 
     74 CA          5.6420   35.3860   39.0730 C.3       6 GLP5        0.0000 
     75 CA         -1.3165   33.2325   35.2295 C.3       3 GLC5        0.0000 
     76 CA         -0.9460   33.2840   37.2200 C.3       9 GLL5        0.0000 
     77 CA         -1.6870   33.1810   33.2390 C.3       6 GLP5        0.0000 
     78 CA         -0.3465   33.0990   40.9970 C.3       3 GLC5        0.0000 
     79 CA          0.9160   33.1180   39.4130 C.3       9 GLL5        0.0000 
     80 CA         -1.6090   33.0800   42.5810 C.3       6 GLP5        0.0000 
     81 CA          3.9350   34.2530   39.6260 C.3       3 GLC5        0.0000 
     82 CA          2.2280   33.1200   40.1790 C.3       9 GLL5        0.0000 
     83 CA          1.2065   34.8555   36.0690 C.3       3 GLC5        0.0000 
     84 CA          2.0200   33.1330   37.2040 C.3       9 GLL5        0.0000 
     85 CA          3.2930   33.1835   35.7505 C.3       3 GLC5        0.0000 
     86 CA          4.5660   33.2340   34.2970 C.3       6 GLP5        0.0000 
     87 CA          0.3355   28.8295   36.6625 C.3       3 GLC5        0.0000 
     88 CA          2.2310   29.8380   36.5100 C.3       9 GLL5        0.0000 
     89 CA         -1.5600   27.8210   36.8150 C.3       6 GLP5        0.0000 
     90 CA          1.6765   29.0580   40.6290 C.3       3 GLC5        0.0000 
     91 CA          2.8650   28.2480   39.1220 C.3       9 GLL5        0.0000 
     92 CA          0.4880   29.8680   42.1360 C.3       6 GLP5        0.0000 
     93 CA          3.0800   23.7745   41.6485 C.3       3 GLC5        0.0000 
     94 CA          3.9250   25.7920   41.8200 C.3       9 GLL5        0.0000 
     95 CA          2.2350   21.7570   41.4770 C.3       6 GLP5        0.0000 
     96 CA          3.7945   26.1320   43.7860 C.3       3 GLC5        0.0000 
     97 CA          3.6640   26.4720   45.7520 C.3       6 GLP5        0.0000 
     98 CA          3.1830   28.0040   41.8425 C.3       3 GLC5        0.0000 
     99 CA          1.7240   26.7680   41.1770 C.3       9 GLL5        0.0000 
    100 CA          4.6420   29.2400   42.5080 C.3       6 GLP5        0.0000 
    101 CA         -0.1165   26.8325   40.6850 C.3       3 GLC5        0.0000 
    102 CA         -1.9570   26.8970   40.1930 C.3       6 GLP5        0.0000 
    103 CA          1.1060   28.3180   41.6565 C.3       3 GLC5        0.0000 
    104 CA          2.0823   38.0075   40.3125 C.3       3 GLC5        0.0000 
    105 CA          1.5690   37.3170   41.9950 C.3       6 GLP5        0.0000 
    106 CA          8.0295   30.0992   34.1450 C.3       3 GLC5        0.0000 
    107 CA          9.8180   30.7370   34.5130 C.3       6 GLP5        0.0000 
    108 CA          5.0963   31.5503   33.6410 C.3       3 GLC5        0.0000 
    109 CA         -1.3918   40.2528   38.0042 C.3       3 GLC5        0.0000 
    110 CA         -0.0070   39.2080   38.1110 C.3       9 GLL5        0.0000 
    111 CA         -3.0970   40.6640   37.6150 C.3       6 GLP5        0.0000 
    112 CA          7.5080   27.5175   32.6848 C.3       3 GLC5        0.0000 
    113 CA          5.8820   29.3120   33.2430 C.3       9 GLL5        0.0000 
    114 CA          0.2475   40.8568   36.5209 C.3       3 GLC5        0.0000 
    115 CA         -0.1850   41.8590   34.7510 C.3       6 GLP5        0.0000 
    116 CA          0.3980   37.5888   36.6145 C.3       3 GLC5        0.0000 
    117 CA          1.0345   37.3720   40.3307 C.3       3 GLC5        0.0000 
    118 CA          0.1870   36.8630   38.8540 C.3       9 GLL5        0.0000 
    119 CA          0.4640   36.4128   36.9917 C.3       3 GLC5        0.0000 
    120 CA          0.8830   35.6320   39.2450 C.3       9 GLL5        0.0000 
    121 CA         -0.6965   36.4273   40.4827 C.3       3 GLC5        0.0000 
    122 CA         -1.9280   36.6070   41.9160 C.3       6 GLP5        0.0000 
    123 CA          2.9446   27.5651   30.5417 C.3       3 GLC5        0.0000 
    124 CA          2.2310   27.6010   28.8630 C.3       6 GLP5        0.0000 
    125 CA          3.9630   25.9471   31.5186 C.3       3 GLC5        0.0000 
    126 CA          4.1790   24.4970   30.7720 C.3       6 GLP5        0.0000 
    127 CA          1.0822   36.1753   40.5655 C.3       3 GLC5        0.0000 
    128 CA         -0.2972   35.1935   36.3565 C.3       3 GLC5        0.0000 
    129 CA         -1.8612   31.1683   37.3530 C.3       3 GLC5        0.0000 
    130 CA         -3.1510   29.6980   37.3000 C.3       6 GLP5        0.0000 
    131 CA          3.7973   32.1912   41.4830 C.3       3 GLC5        0.0000 
    132 CA          2.8390   31.7570   39.8390 C.3       9 GLL5        0.0000 
    133 CA          5.0610   31.9440   42.9570 C.3       6 GLP5        0.0000 
    134 CA          5.2940   30.3623   38.2465 C.3       3 GLC5        0.0000 
    135 CA          2.9520   30.4190   37.7260 C.3       9 GLL5        0.0000 
    136 CA          4.0475   31.1593   34.6872 C.3       3 GLC5        0.0000 
    137 CA          3.1720   29.3030   35.4990 C.3       9 GLL5        0.0000 
    138 CA          2.5045   27.2308   35.1617 C.3       3 GLC5        0.0000 
    139 CA          5.4627   27.7315   35.7852 C.3       3 GLC5        0.0000 
    140 CA          3.8860   28.8660   34.6560 C.3       9 GLL5        0.0000 
    141 CA          3.9703   29.0130   40.6505 C.3       3 GLC5        0.0000 
    142 CA          3.7320   29.3240   38.4640 C.3       9 GLL5        0.0000 
    143 CA          4.9473   27.8270   38.1155 C.3       3 GLC5        0.0000 
    144 CA          4.1523   27.7405   41.7595 C.3       3 GLC5        0.0000 
    145 CA          3.7670   27.1860   39.7520 C.3       9 GLL5        0.0000 
    146 CA          5.3963   26.0310   40.3830 C.3       3 GLC5        0.0000 
    147 CA          7.1300   25.8210   39.7550 C.3       6 GLP5        0.0000 
    148 CA          1.2440   31.0760   40.8346 C.3       3 GLC5        0.0000 
@<TRIPOS>BOND
@<TRIPOS>SUBSTRUCTURE
     1 ALC1       14 GROUP        1 X    ALC  0     ROOT ALC X 1
     2 SEC2       11 GROUP        1 X    SEC  0     **** SEC X 2
     3 GLC5        1 GROUP        1 X    GLC  0     **** GLC X 6
     4 ALP1       16 GROUP        1 Y    ALP  0     ROOT ALP Y 8
     5 SEP2       13 GROUP        1 Y    SEP  0     **** SEP Y 9
     6 GLP5        3 GROUP        1 Y    GLP  0     **** GLP Y 13
     7 ALL1       15 GROUP        1 Z    ALL  0     ROOT ALL Z 15
     8 SEL2       12 GROUP        1 Z    SEL  0     **** SEL Z 16
     9 GLL5        2 GROUP        1 Z    GLL  0     **** GLL Z 20
@<TRIPOS>SET

