#    Name: 3o1d_G72_1_ligand
#    Modification time : Tue Mar 25 03:08:23 2014

@<TRIPOS>MOLECULE
3o1d_G72_1_ligand
   85    87     1     0     0
SMALL
NO_CHARGES


@<TRIPOS>ATOM
      1 C1          2.8720   39.3640   38.8760 C.3       1 G721        0.0000 
      2 F1          6.6000   29.6110   34.3110 F         1 G721        0.0000 
      3 O1          4.2390   39.4530   38.4630 O.3       1 G721        0.0000 
      4 C2          2.1000   40.5270   38.2650 C.3       1 G721        0.0000 
      5 F2          5.3710   30.4210   32.7270 F         1 G721        0.0000 
      6 O2          0.5370   40.4880   40.1060 O.3       1 G721        0.0000 
      7 C3          0.6340   40.4750   38.6760 C.3       1 G721        0.0000 
      8 F3          6.6820   28.7660   32.3460 F         1 G721        0.0000 
      9 O3          5.3520   27.1080   34.1170 O.3       1 G721        0.0000 
     10 C4         -0.0070   39.2080   38.1110 C.3       1 G721        0.0000 
     11 F4          3.2420   29.0420   32.0200 F         1 G721        0.0000 
     12 O4          2.7410   25.0090   39.9030 O.3       1 G721        0.0000 
     13 C5          0.8130   37.9910   38.4790 C.2       1 G721        0.0000 
     14 F5          4.7460   27.6490   31.3800 F         1 G721        0.0000 
     15 C6          0.1870   36.8630   38.8540 C.2       1 G721        0.0000 
     16 F6          3.1450   26.9770   32.6510 F         1 G721        0.0000 
     17 C7          0.8830   35.6320   39.2450 C.2       1 G721        0.0000 
     18 C8          0.3080   34.4350   39.0270 C.2       1 G721        0.0000 
     19 C9         -1.0290   34.3340   38.3380 C.3       1 G721        0.0000 
     20 C10         2.3190   38.0320   38.3840 C.3       1 G721        0.0000 
     21 C11        -0.9460   33.2840   37.2200 C.3       1 G721        0.0000 
     22 C12        -0.1970   31.9930   37.5920 C.3       1 G721        0.0000 
     23 C13         1.1800   32.3040   38.1680 C.3       1 G721        0.0000 
     24 C14         0.9160   33.1180   39.4130 C.3       1 G721        0.0000 
     25 C15         2.2280   33.1200   40.1790 C.3       1 G721        0.0000 
     26 C16         2.8390   31.7570   39.8390 C.3       1 G721        0.0000 
     27 C17         2.0170   31.1410   38.7020 C.3       1 G721        0.0000 
     28 C18         2.0200   33.1330   37.2040 C.3       1 G721        0.0000 
     29 C20         2.9520   30.4190   37.7260 C.3       1 G721        0.0000 
     30 C21         2.2310   29.8380   36.5100 C.3       1 G721        0.0000 
     31 C22         3.1720   29.3030   35.4990 C.1       1 G721        0.0000 
     32 C23         3.8860   28.8660   34.6560 C.1       1 G721        0.0000 
     33 C24         4.7730   28.3240   33.6090 C.3       1 G721        0.0000 
     34 C25         3.9520   27.9860   32.3790 C.3       1 G721        0.0000 
     35 C26         5.8820   29.3120   33.2430 C.3       1 G721        0.0000 
     36 C27         3.7320   29.3240   38.4640 C.3       1 G721        0.0000 
     37 C28         2.8650   28.2480   39.1220 C.3       1 G721        0.0000 
     38 C29         3.7670   27.1860   39.7520 C.3       1 G721        0.0000 
     39 C30         3.0330   26.1940   40.6520 C.3       1 G721        0.0000 
     40 C31         3.9250   25.7920   41.8200 C.3       1 G721        0.0000 
     41 C32         1.7240   26.7680   41.1770 C.3       1 G721        0.0000 
     42 H           2.7826   39.4046   39.9387 H         1 G721        0.0000 
     43 H           2.1718   40.4761   37.1795 H         1 G721        0.0000 
     44 H           2.5359   41.4659   38.6034 H         1 G721        0.0000 
     45 H           0.1342   41.3268   38.2423 H         1 G721        0.0000 
     46 H          -0.0690   39.2940   37.0273 H         1 G721        0.0000 
     47 H          -1.0130   39.1079   38.5154 H         1 G721        0.0000 
     48 H          -0.8638   36.8084   38.8856 H         1 G721        0.0000 
     49 H           1.8043   35.7409   39.6801 H         1 G721        0.0000 
     50 H          -1.2953   35.2899   37.9023 H         1 G721        0.0000 
     51 H          -1.7903   34.0315   39.0475 H         1 G721        0.0000 
     52 H           2.7462   37.2248   38.9860 H         1 G721        0.0000 
     53 H           2.6248   37.8815   37.3446 H         1 G721        0.0000 
     54 H          -0.4529   33.7385   36.3413 H         1 G721        0.0000 
     55 H          -1.9717   33.0195   36.9038 H         1 G721        0.0000 
     56 H          -0.0870   31.3785   36.6995 H         1 G721        0.0000 
     57 H          -0.7829   31.4440   38.3279 H         1 G721        0.0000 
     58 H           0.1859   32.5353   39.9995 H         1 G721        0.0000 
     59 H           2.0419   33.1762   41.2202 H         1 G721        0.0000 
     60 H           2.8585   33.8916   39.8197 H         1 G721        0.0000 
     61 H           2.7925   31.1172   40.7027 H         1 G721        0.0000 
     62 H           3.8562   31.8903   39.5149 H         1 G721        0.0000 
     63 H           1.3467   30.4224   39.1704 H         1 G721        0.0000 
     64 H           3.6904   31.1507   37.3665 H         1 G721        0.0000 
     65 H           1.6065   30.6288   36.0673 H         1 G721        0.0000 
     66 H           1.5531   29.0432   36.8566 H         1 G721        0.0000 
     67 H           4.3619   29.7982   39.2390 H         1 G721        0.0000 
     68 H           4.4231   28.8386   37.7506 H         1 G721        0.0000 
     69 H           2.2355   27.7866   38.3725 H         1 G721        0.0000 
     70 H           2.2523   28.7012   39.8902 H         1 G721        0.0000 
     71 H           4.5529   27.6894   40.3407 H         1 G721        0.0000 
     72 H           4.2776   26.6293   38.9477 H         1 G721        0.0000 
     73 H           2.9220   33.3414   37.5821 H         1 G721        0.0000 
     74 H           2.1684   32.6572   36.3370 H         1 G721        0.0000 
     75 H           1.5838   34.0065   36.9880 H         1 G721        0.0000 
     76 H           4.7799   25.3769   41.5087 H         1 G721        0.0000 
     77 H           4.1704   26.5779   42.3875 H         1 G721        0.0000 
     78 H           3.4770   25.1272   42.4178 H         1 G721        0.0000 
     79 H           1.8715   27.5992   41.7130 H         1 G721        0.0000 
     80 H           1.0981   27.0055   40.4341 H         1 G721        0.0000 
     81 H           1.2446   26.1193   41.7681 H         1 G721        0.0000 
     82 H           4.2376   39.1756   37.5022 H         1 G721        0.0000 
     83 H          -0.4273   40.3096   40.3015 H         1 G721        0.0000 
     84 H           5.9294   27.6854   34.6944 H         1 G721        0.0000 
     85 H           3.3184   25.5864   40.4804 H         1 G721        0.0000 
@<TRIPOS>BOND
     1    3    1 1    
     2    4    1 1    
     3   20    1 1    
     4   42    1 1    
     5   35    2 1    
     6   82    3 1    
     7    7    4 1    
     8   43    4 1    
     9   44    4 1    
    10   35    5 1    
    11    7    6 1    
    12   83    6 1    
    13   10    7 1    
    14   45    7 1    
    15   35    8 1    
    16   33    9 1    
    17   84    9 1    
    18   13   10 1    
    19   46   10 1    
    20   47   10 1    
    21   34   11 1    
    22   39   12 1    
    23   85   12 1    
    24   15   13 2    
    25   20   13 1    
    26   34   14 1    
    27   17   15 1    
    28   48   15 1    
    29   34   16 1    
    30   18   17 2    
    31   49   17 1    
    32   19   18 1    
    33   24   18 1    
    34   21   19 1    
    35   50   19 1    
    36   51   19 1    
    37   52   20 1    
    38   53   20 1    
    39   22   21 1    
    40   54   21 1    
    41   55   21 1    
    42   23   22 1    
    43   56   22 1    
    44   57   22 1    
    45   24   23 1    
    46   27   23 1    
    47   28   23 1    
    48   25   24 1    
    49   58   24 1    
    50   26   25 1    
    51   59   25 1    
    52   60   25 1    
    53   27   26 1    
    54   61   26 1    
    55   62   26 1    
    56   29   27 1    
    57   63   27 1    
    58   73   28 1    
    59   74   28 1    
    60   75   28 1    
    61   30   29 1    
    62   36   29 1    
    63   64   29 1    
    64   31   30 1    
    65   65   30 1    
    66   66   30 1    
    67   32   31 3    
    68   33   32 1    
    69   34   33 1    
    70   35   33 1    
    71   37   36 1    
    72   67   36 1    
    73   68   36 1    
    74   38   37 1    
    75   69   37 1    
    76   70   37 1    
    77   39   38 1    
    78   71   38 1    
    79   72   38 1    
    80   40   39 1    
    81   41   39 1    
    82   76   40 1    
    83   77   40 1    
    84   78   40 1    
    85   79   41 1    
    86   80   41 1    
    87   81   41 1    
@<TRIPOS>SUBSTRUCTURE
     1 G721        1 GROUP   
@<TRIPOS>SET

