#    Name: 4iiu_NAP_3_INTS_M
#    Modification time : Tue Mar 25 04:02:47 2014

@<TRIPOS>MOLECULE
4iiu_NAP_3_INTS_M
  105     0    12     0     0
SMALL
NO_CHARGES


@<TRIPOS>ATOM
      1 CA         27.1405   24.3225   -1.7345 C.3       4 GLC5        0.0000 
      2 CA         27.3900   25.5870   -3.1140 C.3      12 GLL5        0.0000 
      3 CA         26.8910   23.0580   -0.3550 C.3       8 GLP5        0.0000 
      4 O          25.9200   23.5690   -3.6740 O.2       1 ALC1        0.0000 
      5 O          26.1410   24.9060   -3.3020 O.2       9 ALL1        0.0000 
      6 O          25.6990   22.2320   -4.0460 O.2       5 ALP1        0.0000 
      7 CA         25.7045   26.8970   -4.7405 C.3       4 GLC5        0.0000 
      8 CA         27.7000   27.1270   -4.9080 C.3      12 GLL5        0.0000 
      9 CA         23.7090   26.6670   -4.5730 C.3       8 GLP5        0.0000 
     10 CA         26.6330   28.7345   -5.3795 C.3       4 GLC5        0.0000 
     11 CA         25.5660   30.3420   -5.8510 C.3       8 GLP5        0.0000 
     12 CA         28.7280   30.7925   -9.0375 C.3       4 GLC5        0.0000 
     13 CA         29.9340   29.2390   -8.7560 C.3      12 GLL5        0.0000 
     14 CA         27.5220   32.3460   -9.3190 C.3       8 GLP5        0.0000 
     15 O          30.9000   30.0175  -10.7255 O.2       1 ALC1        0.0000 
     16 O          31.0570   29.8010   -9.2470 O.2       9 ALL1        0.0000 
     17 O          30.7430   30.2340  -12.2040 O.2       5 ALP1        0.0000 
     18 N          28.2740   29.8575  -10.6950 N.am      2 SEC2        0.0000 
     19 N          28.8210   29.1210   -9.5180 N.am     10 SEL2        0.0000 
     20 N          27.7270   30.5940  -11.8720 N.am      6 SEP2        0.0000 
     21 CA         28.2200   26.8950   -9.0545 C.3       4 GLC5        0.0000 
     22 CA         27.6820   28.5720   -9.0550 C.3      12 GLL5        0.0000 
     23 CA         28.7580   25.2180   -9.0540 C.3       8 GLP5        0.0000 
     24 CA         28.1485   28.6010  -11.0540 C.3       4 GLC5        0.0000 
     25 CA         28.6150   28.6300  -13.0530 C.3       8 GLP5        0.0000 
     26 CA         26.5445   29.8930   -9.5555 C.3       4 GLC5        0.0000 
     27 CA         25.4070   31.2140  -10.0560 C.3       8 GLP5        0.0000 
     28 CA         26.6240   29.4570   -7.4530 C.3       4 GLC5        0.0000 
     29 CA         28.6870   26.6910   -7.9960 C.3       4 GLC5        0.0000 
     30 CA         28.6160   28.1640   -6.9380 C.3      12 GLL5        0.0000 
     31 CA         27.0910   29.2530   -6.3945 C.3       4 GLC5        0.0000 
     32 N          27.8395   28.0370    4.6225 N.am      2 SEC2        0.0000 
     33 N          27.5360   28.7910    3.6330 N.am     10 SEL2        0.0000 
     34 N          28.1430   27.2830    5.6120 N.am      6 SEP2        0.0000 
     35 N          24.2425   27.2195    2.7595 N.am      2 SEC2        0.0000 
     36 N          25.4570   27.8380    2.3610 N.am     10 SEL2        0.0000 
     37 N          23.0280   26.6010    3.1580 N.am      6 SEP2        0.0000 
     38 CA         24.4470   30.5035    2.8030 C.3       4 GLC5        0.0000 
     39 CA         25.3450   30.4860    0.8790 C.3      12 GLL5        0.0000 
     40 CA         23.5490   30.5210    4.7270 C.3       8 GLP5        0.0000 
     41 CA         27.5100   30.7745    1.0595 C.3       4 GLC5        0.0000 
     42 CA         29.6750   31.0630    1.2400 C.3       8 GLP5        0.0000 
     43 CA         23.7035   33.4715    0.3545 C.3       4 GLC5        0.0000 
     44 CA         25.1470   31.9980    0.7330 C.3      12 GLL5        0.0000 
     45 CA         22.2600   34.9450   -0.0240 C.3       8 GLP5        0.0000 
     46 CA         27.4410   32.6100   -1.4425 C.3       4 GLC5        0.0000 
     47 CA         26.4010   32.6520    0.1560 C.3      12 GLL5        0.0000 
     48 CA         28.4810   32.5680   -3.0410 C.3       8 GLP5        0.0000 
     49 N          26.4085   34.9795   -0.7835 N.am      2 SEC2        0.0000 
     50 N          26.0830   33.6780   -0.7840 N.am     10 SEL2        0.0000 
     51 N          26.7340   36.2810   -0.7830 N.am      6 SEP2        0.0000 
     52 O          25.2440   32.8295   -1.4725 O.2       1 ALC1        0.0000 
     53 O          26.0830   33.6780   -0.7840 O.2       9 ALL1        0.0000 
     54 O          24.4050   31.9810   -2.1610 O.2       5 ALP1        0.0000 
     55 CA         27.4785   35.2105    0.4685 C.3       4 GLC5        0.0000 
     56 CA         27.0590   33.2780    1.3690 C.3      12 GLL5        0.0000 
     57 CA         27.8980   37.1430   -0.4320 C.3       8 GLP5        0.0000 
     58 N          28.5675   34.9855    1.8615 N.am      2 SEC2        0.0000 
     59 N          27.9160   34.3640    1.0030 N.am     10 SEL2        0.0000 
     60 N          29.2190   35.6070    2.7200 N.am      6 SEP2        0.0000 
     61 N          27.3250   35.3225    0.1100 N.am      2 SEC2        0.0000 
     62 CA         24.0645   34.2935    1.1175 C.3       4 GLC5        0.0000 
     63 CA         25.8690   33.6420    2.2590 C.3      12 GLL5        0.0000 
     64 CA         28.5760   32.0715    3.5840 C.3       4 GLC5        0.0000 
     65 CA         26.7210   32.6830    4.3780 C.3      12 GLL5        0.0000 
     66 CA         30.4310   31.4600    2.7900 C.3       8 GLP5        0.0000 
     67 CA         25.5685   32.2420    7.1955 C.3       4 GLC5        0.0000 
     68 CA         27.1360   32.8320    5.7110 C.3      12 GLL5        0.0000 
     69 CA         24.0010   31.6520    8.6800 C.3       8 GLP5        0.0000 
     70 N          27.2365   31.6765    8.9230 N.am      2 SEC2        0.0000 
     71 N          27.9380   31.9300    7.7240 N.am     10 SEL2        0.0000 
     72 N          26.5350   31.4230   10.1220 N.am      6 SEP2        0.0000 
     73 O          27.5935   29.7045    7.5780 O.2       1 ALC1        0.0000 
     74 O          27.6470   30.4380    6.0500 O.2       9 ALL1        0.0000 
     75 O          27.5400   28.9710    9.1060 O.2       5 ALP1        0.0000 
     76 CA         24.4890   35.5485    4.7255 C.3       4 GLC5        0.0000 
     77 CA         26.2710   34.9700    4.2430 C.3      12 GLL5        0.0000 
     78 CA         22.7070   36.1270    5.2080 C.3       8 GLP5        0.0000 
     79 NZ         29.0330   22.0615   -3.1385 N.4       3 LYC4        0.0000 
     80 NZ         29.1180   22.7730   -4.1760 N.4      11 LYL4        0.0000 
     81 NZ         28.9480   21.3500   -2.1010 N.4       7 LYP4        0.0000 
     82 N          29.0330   22.0615   -3.1385 N.am      2 SEC2        0.0000 
     83 N          29.1180   22.7730   -4.1760 N.am     10 SEL2        0.0000 
     84 N          28.9480   21.3500   -2.1010 N.am      6 SEP2        0.0000 
     85 N          27.4265   23.2545   -7.7030 N.am      2 SEC2        0.0000 
     86 N          28.1130   22.6590   -6.5340 N.am     10 SEL2        0.0000 
     87 N          26.7400   23.8500   -8.8720 N.am      6 SEP2        0.0000 
     88 N          28.6735   22.4830   -7.8775 N.am      2 SEC2        0.0000 
     89 N          29.2340   22.3070   -9.2210 N.am      6 SEP2        0.0000 
     90 N          28.4555   21.3950   -7.0360 N.am      2 SEC2        0.0000 
     91 N          28.7980   20.1310   -7.5380 N.am      6 SEP2        0.0000 
     92 CA         25.4865   26.4853   -3.7258 C.3       4 GLC5        0.0000 
     93 CA         29.9265   27.3063   -8.9668 C.3       4 GLC5        0.0000 
     94 CA         29.8880   28.7540   -7.3690 C.3      12 GLL5        0.0000 
     95 CA         29.9420   25.6160   -9.8710 C.3       8 GLP5        0.0000 
     96 CA         30.3435   30.9977   -7.7317 C.3       4 GLC5        0.0000 
     97 CA         30.7760   32.9990   -7.4010 C.3       8 GLP5        0.0000 
     98 CA         28.2025   32.0140    1.0012 C.3       4 GLC5        0.0000 
     99 CA         25.2387   31.6393    4.8857 C.3       4 GLC5        0.0000 
    100 CA         24.9300   34.6543    6.4980 C.3       4 GLC5        0.0000 
    101 CA         27.1060   34.0980    6.3090 C.3      12 GLL5        0.0000 
    102 CA         22.9750   34.6730    7.0560 C.3       8 GLP5        0.0000 
    103 CA         26.8473   36.7653    4.6340 C.3       4 GLC5        0.0000 
    104 CA         26.6640   35.1730    5.5710 C.3      12 GLL5        0.0000 
    105 CA         27.2270   38.4590    4.3610 C.3       8 GLP5        0.0000 
@<TRIPOS>BOND
@<TRIPOS>SUBSTRUCTURE
     1 ALC1        4 GROUP        1 X    ALC  0     ROOT ALC X 1
     2 SEC2       18 GROUP        1 X    SEC  0     **** SEC X 2
     3 LYC4       79 GROUP        1 X    LYC  0     **** LYC X 4
     4 GLC5        1 GROUP        1 X    GLC  0     **** GLC X 6
     5 ALP1        6 GROUP        1 Y    ALP  0     ROOT ALP Y 8
     6 SEP2       20 GROUP        1 Y    SEP  0     **** SEP Y 9
     7 LYP4       81 GROUP        1 Y    LYP  0     **** LYP Y 11
     8 GLP5        3 GROUP        1 Y    GLP  0     **** GLP Y 13
     9 ALL1        5 GROUP        1 Z    ALL  0     ROOT ALL Z 15
    10 SEL2       19 GROUP        1 Z    SEL  0     **** SEL Z 16
    11 LYL4       80 GROUP        1 Z    LYL  0     **** LYL Z 18
    12 GLL5        2 GROUP        1 Z    GLL  0     **** GLL Z 20
@<TRIPOS>SET

