#    Name: 4iiu_NAP_3_ligand
#    Modification time : Tue Mar 25 04:02:47 2014

@<TRIPOS>MOLECULE
4iiu_NAP_3_ligand
   73    77     1     0     0
SMALL
NO_CHARGES


@<TRIPOS>ATOM
      1 PA         28.4510   26.9140    1.0180 P.3       1 NAP2901     0.0000 
      2 O1A        29.9370   27.2430    0.9700 O.co2     1 NAP2901     0.0000 
      3 O2A        27.9450   25.8770    2.0100 O.co2     1 NAP2901     0.0000 
      4 O5B        27.8750   26.5440   -0.4320 O.3       1 NAP2901     0.0000 
      5 C5B        28.1380   27.3880   -1.5580 C.3       1 NAP2901     0.0000 
      6 C4B        27.1380   27.0200   -2.6430 C.3       1 NAP2901     0.0000 
      7 O4B        27.2760   27.9020   -3.7720 O.3       1 NAP2901     0.0000 
      8 C3B        27.3900   25.5870   -3.1140 C.3       1 NAP2901     0.0000 
      9 O3B        26.1410   24.9060   -3.3020 O.3       1 NAP2901     0.0000 
     10 C2B        28.1730   25.7610   -4.4040 C.3       1 NAP2901     0.0000 
     11 O2B        27.9600   24.7070   -5.3630 O.3       1 NAP2901     0.0000 
     12 C1B        27.7000   27.1270   -4.9080 C.3       1 NAP2901     0.0000 
     13 N9A        28.7890   27.7830   -5.6830 N.pl3     1 NAP2901     0.0000 
     14 C8A        30.0540   28.0860   -5.2930 C.2       1 NAP2901     0.0000 
     15 N7A        30.7340   28.6770   -6.3230 N.2       1 NAP2901     0.0000 
     16 C5A        29.8880   28.7540   -7.3690 C.ar      1 NAP2901     0.0000 
     17 C6A        29.9340   29.2390   -8.7560 C.ar      1 NAP2901     0.0000 
     18 N6A        31.0570   29.8010   -9.2470 N.pl3     1 NAP2901     0.0000 
     19 N1A        28.8210   29.1210   -9.5180 N.ar      1 NAP2901     0.0000 
     20 C2A        27.6820   28.5720   -9.0550 C.ar      1 NAP2901     0.0000 
     21 N3A        27.5680   28.1060   -7.7900 N.ar      1 NAP2901     0.0000 
     22 C4A        28.6160   28.1640   -6.9380 C.ar      1 NAP2901     0.0000 
     23 O3         27.6850   28.3370    1.1630 O.3       1 NAP2901     0.0000 
     24 PN         26.6990   28.7210    2.3810 P.3       1 NAP2901     0.0000 
     25 O1N        27.5360   28.7910    3.6330 O.co2     1 NAP2901     0.0000 
     26 O2N        25.4570   27.8380    2.3610 O.co2     1 NAP2901     0.0000 
     27 O5D        26.3050   30.2210    1.9050 O.3       1 NAP2901     0.0000 
     28 C5D        25.3450   30.4860    0.8790 C.3       1 NAP2901     0.0000 
     29 C4D        25.1470   31.9980    0.7330 C.3       1 NAP2901     0.0000 
     30 O4D        24.8990   32.6070    2.0170 O.3       1 NAP2901     0.0000 
     31 C3D        26.4010   32.6520    0.1560 C.3       1 NAP2901     0.0000 
     32 O3D        26.0830   33.6780   -0.7840 O.3       1 NAP2901     0.0000 
     33 C2D        27.0590   33.2780    1.3690 C.3       1 NAP2901     0.0000 
     34 O2D        27.9160   34.3640    1.0030 O.3       1 NAP2901     0.0000 
     35 C1D        25.8690   33.6420    2.2590 C.3       1 NAP2901     0.0000 
     36 N1N        26.2940   33.7510    3.6680 N.pl3     1 NAP2901     0.0000 
     37 C2N        26.7210   32.6830    4.3780 C.ar      1 NAP2901     0.0000 
     38 C3N        27.1360   32.8320    5.7110 C.ar      1 NAP2901     0.0000 
     39 C7N        27.6040   31.6850    6.5550 C.2       1 NAP2901     0.0000 
     40 O7N        27.9380   31.9300    7.7240 O.2       1 NAP2901     0.0000 
     41 N7N        27.6470   30.4380    6.0500 N.am      1 NAP2901     0.0000 
     42 C4N        27.1060   34.0980    6.3090 C.ar      1 NAP2901     0.0000 
     43 C5N        26.6640   35.1730    5.5710 C.ar      1 NAP2901     0.0000 
     44 C6N        26.2710   34.9700    4.2430 C.ar      1 NAP2901     0.0000 
     45 P2B        28.9440   23.4150   -5.5250 P.3       1 NAP2901     0.0000 
     46 O1X        30.2600   23.9080   -6.0780 O.co2     1 NAP2901     0.0000 
     47 O2X        29.1180   22.7730   -4.1760 O.co2     1 NAP2901     0.0000 
     48 O3X        28.1130   22.6590   -6.5340 O.co2     1 NAP2901     0.0000 
     49 H          29.1388   27.2354   -1.9526 H         1 NAP2901     0.0000 
     50 H          28.0047   28.4387   -1.3155 H         1 NAP2901     0.0000 
     51 H          26.1466   27.0670   -2.2325 H         1 NAP2901     0.0000 
     52 H          28.0212   25.1190   -2.3933 H         1 NAP2901     0.0000 
     53 H          29.2155   25.8748   -4.1336 H         1 NAP2901     0.0000 
     54 H          26.8549   26.9378   -5.5715 H         1 NAP2901     0.0000 
     55 H          30.4269   27.9113   -4.4137 H         1 NAP2901     0.0000 
     56 H          31.8417   29.8297   -8.6278 H         1 NAP2901     0.0000 
     57 H          31.0053   30.1391  -10.1867 H         1 NAP2901     0.0000 
     58 H          26.8471   28.5015   -9.6996 H         1 NAP2901     0.0000 
     59 H          24.3698   30.0434    1.1102 H         1 NAP2901     0.0000 
     60 H          25.6701   30.0976   -0.0925 H         1 NAP2901     0.0000 
     61 H          24.3329   32.1802    0.0581 H         1 NAP2901     0.0000 
     62 H          27.0357   31.9020   -0.2214 H         1 NAP2901     0.0000 
     63 H          27.5961   32.4748    1.8733 H         1 NAP2901     0.0000 
     64 H          25.4971   34.5937    1.8991 H         1 NAP2901     0.0000 
     65 H          26.7510   31.7367    3.9559 H         1 NAP2901     0.0000 
     66 H          28.0036   29.7290    6.6584 H         1 NAP2901     0.0000 
     67 H          27.3185   30.3318    5.1115 H         1 NAP2901     0.0000 
     68 H          27.4095   34.2108    7.2779 H         1 NAP2901     0.0000 
     69 H          26.6196   36.1101    5.9775 H         1 NAP2901     0.0000 
     70 H          25.9523   35.8064    3.6968 H         1 NAP2901     0.0000 
     71 H          26.3206   23.9585   -3.0374 H         1 NAP2901     0.0000 
     72 H          25.1540   33.4697   -1.0899 H         1 NAP2901     0.0000 
     73 H          28.5966   33.9615    0.3909 H         1 NAP2901     0.0000 
@<TRIPOS>BOND
     1    2    1 ar   
     2    3    1 ar   
     3    4    1 1    
     4   23    1 1    
     5    5    4 1    
     6    6    5 1    
     7   49    5 1    
     8   50    5 1    
     9    7    6 1    
    10    8    6 1    
    11   51    6 1    
    12   12    7 1    
    13    9    8 1    
    14   10    8 1    
    15   52    8 1    
    16   71    9 1    
    17   11   10 1    
    18   12   10 1    
    19   53   10 1    
    20   45   11 1    
    21   13   12 1    
    22   54   12 1    
    23   14   13 1    
    24   22   13 1    
    25   15   14 2    
    26   55   14 1    
    27   16   15 1    
    28   17   16 ar   
    29   22   16 ar   
    30   18   17 1    
    31   19   17 ar   
    32   56   18 1    
    33   57   18 1    
    34   20   19 ar   
    35   21   20 ar   
    36   58   20 1    
    37   22   21 ar   
    38   24   23 1    
    39   25   24 ar   
    40   26   24 ar   
    41   27   24 1    
    42   28   27 1    
    43   29   28 1    
    44   59   28 1    
    45   60   28 1    
    46   30   29 1    
    47   31   29 1    
    48   61   29 1    
    49   35   30 1    
    50   32   31 1    
    51   33   31 1    
    52   62   31 1    
    53   72   32 1    
    54   34   33 1    
    55   35   33 1    
    56   63   33 1    
    57   73   34 1    
    58   36   35 1    
    59   64   35 1    
    60   37   36 ar   
    61   44   36 ar   
    62   38   37 ar   
    63   65   37 1    
    64   39   38 1    
    65   42   38 ar   
    66   40   39 2    
    67   41   39 am   
    68   66   41 1    
    69   67   41 1    
    70   43   42 ar   
    71   68   42 1    
    72   44   43 ar   
    73   69   43 1    
    74   70   44 1    
    75   46   45 ar   
    76   47   45 ar   
    77   48   45 ar   
@<TRIPOS>SUBSTRUCTURE
     1 NAP2901     1 GROUP   
@<TRIPOS>SET

