#    Name: 3l54_LXX_1_INTS_M
#    Modification time : Mon Mar 24 21:00:40 2014

@<TRIPOS>MOLECULE
3l54_LXX_1_INTS_M
   60     0     6     0     0
SMALL
NO_CHARGES


@<TRIPOS>ATOM
      1 N          29.3720   13.6875   17.9460 N.am      1 SEC2        0.0000 
      2 N          28.5530   13.3400   19.0890 N.am      5 SEL2        0.0000 
      3 N          30.1910   14.0350   16.8030 N.am      3 SEP2        0.0000 
      4 CA         29.1055   13.9085   22.1545 C.3       2 GLC5        0.0000 
      5 CA         27.9490   12.9630   21.0730 C.3       6 GLL5        0.0000 
      6 CA         30.2620   14.8540   23.2360 C.3       4 GLP5        0.0000 
      7 N          28.5675   13.5685   23.3065 N.am      1 SEC2        0.0000 
      8 N          27.8690   12.6710   22.3760 N.am      5 SEL2        0.0000 
      9 N          29.2660   14.4660   24.2370 N.am      3 SEP2        0.0000 
     10 CA         28.4290   13.8020   23.0120 C.3       2 GLC5        0.0000 
     11 CA         26.5960   12.7500   22.7880 C.3       6 GLL5        0.0000 
     12 CA         24.6660   13.3415   24.9855 C.3       2 GLC5        0.0000 
     13 CA         23.8100   11.9710   23.4920 C.3       6 GLL5        0.0000 
     14 CA         25.5220   14.7120   26.4790 C.3       4 GLP5        0.0000 
     15 N          19.5670   11.7250   24.8370 N.am      1 SEC2        0.0000 
     16 N          20.4470   12.8030   24.4790 N.am      5 SEL2        0.0000 
     17 N          18.6870   10.6470   25.1950 N.am      3 SEP2        0.0000 
     18 CA         18.3120   12.5835   23.2925 C.3       2 GLC5        0.0000 
     19 CA         19.6030   13.8140   24.2920 C.3       6 GLL5        0.0000 
     20 CA         17.0210   11.3530   22.2930 C.3       4 GLP5        0.0000 
     21 CA         18.8325   12.2725   25.3990 C.3       2 GLC5        0.0000 
     22 CA         18.0620   10.7310   26.5060 C.3       4 GLP5        0.0000 
     23 CA         18.7875   14.7660   25.9440 C.3       2 GLC5        0.0000 
     24 CA         17.9720   15.7180   27.5960 C.3       4 GLP5        0.0000 
     25 CA         21.7905   17.7450   23.5260 C.3       2 GLC5        0.0000 
     26 CA         22.7970   18.1250   21.7560 C.3       6 GLL5        0.0000 
     27 CA         20.7840   17.3650   25.2960 C.3       4 GLP5        0.0000 
     28 CA         22.4195   16.7235   24.0950 C.3       2 GLC5        0.0000 
     29 CA         22.5640   16.9750   22.4720 C.3       6 GLL5        0.0000 
     30 CA         22.2750   16.4720   25.7180 C.3       4 GLP5        0.0000 
     31 CA         24.3585   15.4980   23.4990 C.3       2 GLC5        0.0000 
     32 CA         23.2630   14.0740   22.5660 C.3       6 GLL5        0.0000 
     33 CA         25.4540   16.9220   24.4320 C.3       4 GLP5        0.0000 
     34 CA         25.4087   11.0335   22.1910 C.3       2 GLC5        0.0000 
     35 CA         24.7960    9.1570   21.9450 C.3       4 GLP5        0.0000 
     36 CA         23.8600   12.8540   20.4303 C.3       2 GLC5        0.0000 
     37 CA         25.4470   13.0700   22.0860 C.3       6 GLL5        0.0000 
     38 CA         22.2520   12.4860   19.4470 C.3       4 GLP5        0.0000 
     39 CA         26.6085   11.5441   20.1705 C.3       2 GLC5        0.0000 
     40 CA         25.4890   13.3740   20.7410 C.3       6 GLL5        0.0000 
     41 CA         26.7860    9.8370   19.6170 C.3       4 GLP5        0.0000 
     42 CA         25.9086   14.0010   24.0912 C.3       2 GLC5        0.0000 
     43 CA         24.1670   13.0540   22.7320 C.3       6 GLL5        0.0000 
     44 CA         26.7230   15.0200   25.5980 C.3       4 GLP5        0.0000 
     45 CA         24.0361   10.6839   22.7658 C.3       2 GLC5        0.0000 
     46 CA         20.5215   11.1295   23.4507 C.3       2 GLC5        0.0000 
     47 CA         22.5640   11.9090   24.0610 C.3       6 GLL5        0.0000 
     48 CA         18.9390    9.8460   22.9210 C.3       4 GLP5        0.0000 
     49 CA         20.2655   15.8697   24.6103 C.3       2 GLC5        0.0000 
     50 CA         19.8910   14.9350   23.5570 C.3       6 GLL5        0.0000 
     51 CA         21.9123   13.5078   21.2520 C.3       2 GLC5        0.0000 
     52 CA         21.1260   15.0460   22.9650 C.3       6 GLL5        0.0000 
     53 CA         20.8565   16.7683   23.6049 C.3       2 GLC5        0.0000 
     54 CA         20.5800   16.7010   21.2380 C.3       6 GLL5        0.0000 
     55 CA         21.1977   16.7221   19.4970 C.3       2 GLC5        0.0000 
     56 CA         21.4300   16.2380   22.2140 C.3       6 GLL5        0.0000 
     57 CA         21.4400   16.2790   17.8440 C.3       4 GLP5        0.0000 
     58 CA         24.0673   17.2360   23.2730 C.3       2 GLC5        0.0000 
     59 CA         22.9389   12.8896   21.1430 C.3       2 GLC5        0.0000 
     60 CA         22.4111   15.1208   24.3816 C.3       2 GLC5        0.0000 
@<TRIPOS>BOND
@<TRIPOS>SUBSTRUCTURE
     1 SEC2        1 GROUP        1 X    SEC  0     ROOT SEC X 2
     2 GLC5        4 GROUP        1 X    GLC  0     **** GLC X 6
     3 SEP2        3 GROUP        1 Y    SEP  0     ROOT SEP Y 9
     4 GLP5        6 GROUP        1 Y    GLP  0     **** GLP Y 13
     5 SEL2        2 GROUP        1 Z    SEL  0     ROOT SEL Z 16
     6 GLL5        5 GROUP        1 Z    GLL  0     **** GLL Z 20
@<TRIPOS>SET

