#    Name: 3l54_LXX_1_ligand
#    Modification time : Mon Mar 24 21:00:40 2014

@<TRIPOS>MOLECULE
3l54_LXX_1_ligand
   38    42     1     0     0
SMALL
NO_CHARGES


@<TRIPOS>ATOM
      1 C1         27.2000   13.5330   19.0520 C.2       1 LXX1        0.0000 
      2 N2         28.5530   13.3400   19.0890 N.2       1 LXX1        0.0000 
      3 N3         29.0360   12.9930   20.2950 N.pl3     1 LXX1        0.0000 
      4 C4         27.9490   12.9630   21.0730 C.ar      1 LXX1        0.0000 
      5 N5         27.8690   12.6710   22.3760 N.ar      1 LXX1        0.0000 
      6 C6         26.5960   12.7500   22.7880 C.ar      1 LXX1        0.0000 
      7 C7         25.4470   13.0700   22.0860 C.ar      1 LXX1        0.0000 
      8 C8         25.4890   13.3740   20.7410 C.ar      1 LXX1        0.0000 
      9 C9         26.7970   13.2940   20.3410 C.ar      1 LXX1        0.0000 
     10 C10        24.1670   13.0540   22.7320 C.ar      1 LXX1        0.0000 
     11 C11        23.8100   11.9710   23.4920 C.ar      1 LXX1        0.0000 
     12 C12        22.5640   11.9090   24.0610 C.ar      1 LXX1        0.0000 
     13 C13        21.6440   12.9170   23.9000 C.ar      1 LXX1        0.0000 
     14 N14        20.4470   12.8030   24.4790 N.ar      1 LXX1        0.0000 
     15 C15        19.6030   13.8140   24.2920 C.ar      1 LXX1        0.0000 
     16 C16        19.8910   14.9350   23.5570 C.ar      1 LXX1        0.0000 
     17 C17        21.1260   15.0460   22.9650 C.ar      1 LXX1        0.0000 
     18 C18        21.4300   16.2380   22.2140 C.ar      1 LXX1        0.0000 
     19 C19        20.5800   16.7010   21.2380 C.ar      1 LXX1        0.0000 
     20 C20        20.9060   17.8610   20.5740 C.ar      1 LXX1        0.0000 
     21 N21        21.9940   18.6000   20.8020 N.ar      1 LXX1        0.0000 
     22 C22        22.7970   18.1250   21.7560 C.ar      1 LXX1        0.0000 
     23 C23        22.5640   16.9750   22.4720 C.ar      1 LXX1        0.0000 
     24 C24        22.0190   14.0130   23.1490 C.ar      1 LXX1        0.0000 
     25 C25        23.2630   14.0740   22.5660 C.ar      1 LXX1        0.0000 
     26 H          26.6734   13.7708   18.3242 H         1 LXX1        0.0000 
     27 H          29.9276   12.8147   20.5304 H         1 LXX1        0.0000 
     28 H          26.4195   12.5258   23.8607 H         1 LXX1        0.0000 
     29 H          24.7436   13.5974   20.1963 H         1 LXX1        0.0000 
     30 H          24.4831   11.1968   23.6373 H         1 LXX1        0.0000 
     31 H          22.3054   11.0720   24.6336 H         1 LXX1        0.0000 
     32 H          18.6303   13.7649   24.7382 H         1 LXX1        0.0000 
     33 H          19.1939   15.6826   23.4495 H         1 LXX1        0.0000 
     34 H          19.7205   16.1927   21.0091 H         1 LXX1        0.0000 
     35 H          20.2179   18.1853   19.8121 H         1 LXX1        0.0000 
     36 H          23.6915   18.6671   21.9929 H         1 LXX1        0.0000 
     37 H          23.2295   16.6673   23.1934 H         1 LXX1        0.0000 
     38 H          23.5208   14.9019   21.9935 H         1 LXX1        0.0000 
@<TRIPOS>BOND
     1    2    1 2    
     2    9    1 1    
     3   26    1 1    
     4    3    2 1    
     5    4    3 1    
     6   27    3 1    
     7    5    4 ar   
     8    9    4 ar   
     9    6    5 ar   
    10    7    6 ar   
    11   28    6 1    
    12    8    7 ar   
    13   10    7 1    
    14    9    8 ar   
    15   29    8 1    
    16   11   10 ar   
    17   25   10 ar   
    18   12   11 ar   
    19   30   11 1    
    20   13   12 ar   
    21   31   12 1    
    22   14   13 ar   
    23   24   13 ar   
    24   15   14 ar   
    25   16   15 ar   
    26   32   15 1    
    27   17   16 ar   
    28   33   16 1    
    29   18   17 1    
    30   24   17 ar   
    31   19   18 ar   
    32   23   18 ar   
    33   20   19 ar   
    34   34   19 1    
    35   21   20 ar   
    36   35   20 1    
    37   22   21 ar   
    38   23   22 ar   
    39   36   22 1    
    40   37   23 1    
    41   25   24 ar   
    42   38   25 1    
@<TRIPOS>SUBSTRUCTURE
     1 LXX1        1 GROUP   
@<TRIPOS>SET

