#    Name: 4heu_15J_1_INTS_M
#    Modification time : Tue Mar 25 00:55:36 2014

@<TRIPOS>MOLECULE
4heu_15J_1_INTS_M
   68     0     9     0     0
SMALL
NO_CHARGES


@<TRIPOS>ATOM
      1 O          16.0890   84.1830   33.0930 O.2       1 ALC1        0.0000 
      2 O          15.0720   84.5850   33.9290 O.2       7 ALL1        0.0000 
      3 O          17.1060   83.7810   32.2570 O.2       4 ALP1        0.0000 
      4 CA         14.7770   86.8590   31.9210 C.3       3 GLC5        0.0000 
      5 CA         14.6680   85.9170   33.5850 C.3       9 GLL5        0.0000 
      6 CA         14.8860   87.8010   30.2570 C.3       6 GLP5        0.0000 
      7 CA         16.4490   86.5345   33.7910 C.3       3 GLC5        0.0000 
      8 CA         18.2300   87.1520   33.9970 C.3       6 GLP5        0.0000 
      9 CA         14.9525   88.1105   35.8440 C.3       3 GLC5        0.0000 
     10 CA         13.7500   86.3400   35.8990 C.3       9 GLL5        0.0000 
     11 CA         16.1550   89.8810   35.7890 C.3       6 GLP5        0.0000 
     12 CA         11.4465   86.0665   38.1275 C.3       3 GLC5        0.0000 
     13 CA         12.5340   86.7960   36.7190 C.3       9 GLL5        0.0000 
     14 CA         10.3590   85.3370   39.5360 C.3       6 GLP5        0.0000 
     15 CA         12.9015   89.1230   32.6865 C.3       3 GLC5        0.0000 
     16 CA         13.0880   87.7980   33.9680 C.3       9 GLL5        0.0000 
     17 CA         12.7150   90.4480   31.4050 C.3       6 GLP5        0.0000 
     18 CA         13.9870   87.7995   32.1125 C.3       3 GLC5        0.0000 
     19 CA         14.6215   88.8395   34.8785 C.3       3 GLC5        0.0000 
     20 CA         11.7245   89.5640   33.4165 C.3       3 GLC5        0.0000 
     21 CA         11.9320   88.4100   34.7750 C.3       9 GLL5        0.0000 
     22 CA         11.5170   90.7180   32.0580 C.3       6 GLP5        0.0000 
     23 CA         13.2295   90.0640   35.5055 C.3       3 GLC5        0.0000 
     24 CA         14.5270   91.7180   36.2360 C.3       6 GLP5        0.0000 
     25 CA          9.3205   88.2930   37.0705 C.3       3 GLC5        0.0000 
     26 CA         11.4140   89.0080   37.1510 C.3       9 GLL5        0.0000 
     27 CA          7.2270   87.5780   36.9900 C.3       6 GLP5        0.0000 
     28 CA          8.3855   88.9450   37.3450 C.3       3 GLC5        0.0000 
     29 CA          9.5440   90.3120   37.7000 C.3       9 GLL5        0.0000 
     30 CA         15.6290   90.3455   42.7035 C.3       3 GLC5        0.0000 
     31 CA         15.5620   88.9840   41.4800 C.3       9 GLL5        0.0000 
     32 CA         15.6960   91.7070   43.9270 C.3       6 GLP5        0.0000 
     33 N          17.9650   87.8545   42.2580 N.am      2 SEC2        0.0000 
     34 N          17.6030   88.2900   43.4920 N.am      8 SEL2        0.0000 
     35 N          18.3270   87.4190   41.0240 N.am      5 SEP2        0.0000 
     36 CA         22.4160   89.8975   46.2740 C.3       3 GLC5        0.0000 
     37 CA         20.7870   88.6600   45.3660 C.3       9 GLL5        0.0000 
     38 CA         24.0450   91.1350   47.1820 C.3       6 GLP5        0.0000 
     39 CA         12.2001   84.9085   35.7454 C.3       3 GLC5        0.0000 
     40 CA         13.4430   86.3640   34.3940 C.3       9 GLL5        0.0000 
     41 CA         11.3350   83.2430   35.5580 C.3       6 GLP5        0.0000 
     42 CA         12.6574   86.3121   32.4939 C.3       3 GLC5        0.0000 
     43 CA         11.7430   85.6550   31.0090 C.3       6 GLP5        0.0000 
     44 CA         13.1335   90.4588   36.9877 C.3       3 GLC5        0.0000 
     45 CA          8.2695   90.2047   39.6700 C.3       3 GLC5        0.0000 
     46 CA         10.1440   90.7350   38.8840 C.3       9 GLL5        0.0000 
     47 CA          6.6950   89.8860   41.0480 C.3       6 GLP5        0.0000 
     48 CA         12.8358   86.1817   42.0335 C.3       3 GLC5        0.0000 
     49 CA         13.0510   87.9940   40.7830 C.3       9 GLL5        0.0000 
     50 CA         12.3670   84.4720   42.6430 C.3       6 GLP5        0.0000 
     51 CA         14.0470   89.7728   43.1620 C.3       3 GLC5        0.0000 
     52 CA         13.5580   87.7890   42.0650 C.3       9 GLL5        0.0000 
     53 CA         13.9080   91.5150   44.0780 C.3       6 GLP5        0.0000 
     54 CA         18.5933   90.2415   44.7722 C.3       3 GLC5        0.0000 
     55 CA         18.5950   88.4070   44.3760 C.3       9 GLL5        0.0000 
     56 CA         17.9020   91.9950   45.2400 C.3       6 GLP5        0.0000 
     57 CA         19.2020   90.3105   45.6220 C.3       3 GLC5        0.0000 
     58 CA         20.2170   88.5920   46.6420 C.3       9 GLL5        0.0000 
     59 CA         21.8010   87.5455   46.6215 C.3       3 GLC5        0.0000 
     60 CA         23.1000   86.4650   47.2390 C.3       6 GLP5        0.0000 
     61 CA         20.9014   87.1445   43.7536 C.3       3 GLC5        0.0000 
     62 CA         21.7670   85.7150   42.6720 C.3       6 GLP5        0.0000 
     63 CA         19.7910   89.8612   47.9393 C.3       3 GLC5        0.0000 
     64 CA         20.0550   91.2090   49.1660 C.3       6 GLP5        0.0000 
     65 CA         18.1673   90.1920   45.7278 C.3       3 GLC5        0.0000 
     66 CA         18.8370   88.4350   46.7830 C.3       9 GLL5        0.0000 
     67 CA         18.1536   86.5650   45.5063 C.3       3 GLC5        0.0000 
     68 CA         17.7330   84.7250   45.1150 C.3       6 GLP5        0.0000 
@<TRIPOS>BOND
@<TRIPOS>SUBSTRUCTURE
     1 ALC1        1 GROUP        1 X    ALC  0     ROOT ALC X 1
     2 SEC2       33 GROUP        1 X    SEC  0     **** SEC X 2
     3 GLC5        4 GROUP        1 X    GLC  0     **** GLC X 6
     4 ALP1        3 GROUP        1 Y    ALP  0     ROOT ALP Y 8
     5 SEP2       35 GROUP        1 Y    SEP  0     **** SEP Y 9
     6 GLP5        6 GROUP        1 Y    GLP  0     **** GLP Y 13
     7 ALL1        2 GROUP        1 Z    ALL  0     ROOT ALL Z 15
     8 SEL2       34 GROUP        1 Z    SEL  0     **** SEL Z 16
     9 GLL5        5 GROUP        1 Z    GLL  0     **** GLL Z 20
@<TRIPOS>SET

