#    Name: 4heu_15J_1_ligand
#    Modification time : Tue Mar 25 00:55:36 2014

@<TRIPOS>MOLECULE
4heu_15J_1_ligand
   56    60     1     0     0
SMALL
NO_CHARGES


@<TRIPOS>ATOM
      1 O2         15.0720   84.5850   33.9290 O.3       1 15J1009     0.0000 
      2 C24        14.6680   85.9170   33.5850 C.3       1 15J1009     0.0000 
      3 C21        13.4430   86.3640   34.3940 C.3       1 15J1009     0.0000 
      4 C22        13.7500   86.3400   35.8990 C.3       1 15J1009     0.0000 
      5 C23        12.5340   86.7960   36.7190 C.3       1 15J1009     0.0000 
      6 C20        13.0880   87.7980   33.9680 C.3       1 15J1009     0.0000 
      7 C19        11.9320   88.4100   34.7750 C.3       1 15J1009     0.0000 
      8 N2         12.0050   88.1120   36.2330 N.3       1 15J1009     0.0000 
      9 C4         11.4140   89.0080   37.1510 C.ar      1 15J1009     0.0000 
     10 N1         10.1770   89.4790   36.8830 N.ar      1 15J1009     0.0000 
     11 C3          9.5440   90.3120   37.7000 C.ar      1 15J1009     0.0000 
     12 C2         10.1440   90.7350   38.8840 C.ar      1 15J1009     0.0000 
     13 C1         11.4210   90.2730   39.1980 C.ar      1 15J1009     0.0000 
     14 C5         12.0660   89.3910   38.3280 C.ar      1 15J1009     0.0000 
     15 O1         13.3280   88.9150   38.5750 O.3       1 15J1009     0.0000 
     16 C6         13.7940   88.7100   39.8450 C.ar      1 15J1009     0.0000 
     17 C11        15.0560   89.1930   40.1940 C.ar      1 15J1009     0.0000 
     18 C10        15.5620   88.9840   41.4800 C.ar      1 15J1009     0.0000 
     19 C7         13.0510   87.9940   40.7830 C.ar      1 15J1009     0.0000 
     20 C8         13.5580   87.7890   42.0650 C.ar      1 15J1009     0.0000 
     21 C9         14.8140   88.2720   42.4270 C.ar      1 15J1009     0.0000 
     22 N3         15.2300   88.0270   43.6820 N.pl3     1 15J1009     0.0000 
     23 C12        16.4680   88.1670   44.1810 C.2       1 15J1009     0.0000 
     24 N5         17.6030   88.2900   43.4920 N.2       1 15J1009     0.0000 
     25 C14        18.5950   88.4070   44.3760 C.ar      1 15J1009     0.0000 
     26 C18        19.9740   88.5690   44.2330 C.ar      1 15J1009     0.0000 
     27 C17        20.7870   88.6600   45.3660 C.ar      1 15J1009     0.0000 
     28 C16        20.2170   88.5920   46.6420 C.ar      1 15J1009     0.0000 
     29 C15        18.8370   88.4350   46.7830 C.ar      1 15J1009     0.0000 
     30 C13        18.0280   88.3430   45.6480 C.ar      1 15J1009     0.0000 
     31 N4         16.7150   88.1920   45.4900 N.pl3     1 15J1009     0.0000 
     32 H          14.4069   85.9973   32.5166 H         1 15J1009     0.0000 
     33 H          15.4739   86.6456   33.7741 H         1 15J1009     0.0000 
     34 H          12.6238   85.7250   34.1816 H         1 15J1009     0.0000 
     35 H          14.5880   87.0035   36.1033 H         1 15J1009     0.0000 
     36 H          14.0196   85.3275   36.1925 H         1 15J1009     0.0000 
     37 H          12.8327   86.8773   37.7683 H         1 15J1009     0.0000 
     38 H          11.7568   86.0297   36.6442 H         1 15J1009     0.0000 
     39 H          12.8171   87.7960   32.9034 H         1 15J1009     0.0000 
     40 H          13.9770   88.4332   34.0818 H         1 15J1009     0.0000 
     41 H          10.9834   88.0301   34.3590 H         1 15J1009     0.0000 
     42 H          11.9387   89.5011   34.6118 H         1 15J1009     0.0000 
     43 H           8.5895   90.6691   37.4801 H         1 15J1009     0.0000 
     44 H           9.6559   91.3739   39.5126 H         1 15J1009     0.0000 
     45 H          11.8833   90.5767   40.0586 H         1 15J1009     0.0000 
     46 H          15.6179   89.7060   39.5013 H         1 15J1009     0.0000 
     47 H          16.4866   89.3535   41.7336 H         1 15J1009     0.0000 
     48 H          12.1296   87.6176   40.5287 H         1 15J1009     0.0000 
     49 H          12.9927   87.2699   42.7589 H         1 15J1009     0.0000 
     50 H          14.4637   87.6693   44.3824 H         1 15J1009     0.0000 
     51 H          20.3911   88.6213   43.2972 H         1 15J1009     0.0000 
     52 H          21.8005   88.7765   45.2631 H         1 15J1009     0.0000 
     53 H          20.8146   88.6577   47.4735 H         1 15J1009     0.0000 
     54 H          18.4178   88.3873   47.7175 H         1 15J1009     0.0000 
     55 H          16.0590   88.1145   46.1964 H         1 15J1009     0.0000 
     56 H          15.8098   84.3654   33.2906 H         1 15J1009     0.0000 
@<TRIPOS>BOND
     1    2    1 1    
     2   56    1 1    
     3    3    2 1    
     4   32    2 1    
     5   33    2 1    
     6    4    3 1    
     7    6    3 1    
     8   34    3 1    
     9    5    4 1    
    10   35    4 1    
    11   36    4 1    
    12    8    5 1    
    13   37    5 1    
    14   38    5 1    
    15    7    6 1    
    16   39    6 1    
    17   40    6 1    
    18    8    7 1    
    19   41    7 1    
    20   42    7 1    
    21    9    8 1    
    22   10    9 ar   
    23   14    9 ar   
    24   11   10 ar   
    25   12   11 ar   
    26   43   11 1    
    27   13   12 ar   
    28   44   12 1    
    29   14   13 ar   
    30   45   13 1    
    31   15   14 1    
    32   16   15 1    
    33   17   16 ar   
    34   19   16 ar   
    35   18   17 ar   
    36   46   17 1    
    37   21   18 ar   
    38   47   18 1    
    39   20   19 ar   
    40   48   19 1    
    41   21   20 ar   
    42   49   20 1    
    43   22   21 1    
    44   23   22 1    
    45   50   22 1    
    46   24   23 2    
    47   31   23 1    
    48   25   24 1    
    49   26   25 ar   
    50   30   25 ar   
    51   27   26 ar   
    52   51   26 1    
    53   28   27 ar   
    54   52   27 1    
    55   29   28 ar   
    56   53   28 1    
    57   30   29 ar   
    58   54   29 1    
    59   31   30 1    
    60   55   31 1    
@<TRIPOS>SUBSTRUCTURE
     1 15J1009     1 GROUP   
@<TRIPOS>SET

