#    Name: 2a4f_AAU_1_INTS_M
#    Modification time : Mon Mar 24 18:26:54 2014

@<TRIPOS>MOLECULE
2a4f_AAU_1_INTS_M
  102     0     9     0     0
SMALL
NO_CHARGES


@<TRIPOS>ATOM
      1 CA         19.9620   18.5025    4.2605 C.3       3 GLC5        0.0000 
      2 CA         18.3860   18.2030    5.5950 C.3       9 GLL5        0.0000 
      3 CA         21.5380   18.8020    2.9260 C.3       6 GLP5        0.0000 
      4 N          18.9640   19.5315    3.3595 N.am      2 SEC2        0.0000 
      5 N          18.1270   18.5260    4.2280 N.am      8 SEL2        0.0000 
      6 N          19.8010   20.5370    2.4910 N.am      5 SEP2        0.0000 
      7 CA         13.0585   18.8275    6.7380 C.3       3 GLC5        0.0000 
      8 CA         13.4440   20.0030    5.3820 C.3       9 GLL5        0.0000 
      9 CA         12.6730   17.6520    8.0940 C.3       6 GLP5        0.0000 
     10 CA         17.6640   23.2055    8.1020 C.3       3 GLC5        0.0000 
     11 CA         16.2630   21.5430    8.0640 C.3       9 GLL5        0.0000 
     12 CA         19.0650   24.8680    8.1400 C.3       6 GLP5        0.0000 
     13 N          14.8655   25.4505    5.5350 N.am      2 SEC2        0.0000 
     14 N          14.8120   24.5950    4.6060 N.am      8 SEL2        0.0000 
     15 N          14.9190   26.3060    6.4640 N.am      5 SEP2        0.0000 
     16 O          15.2825   25.3055    3.4660 O.2       1 ALC1        0.0000 
     17 O          14.8120   24.5950    4.6060 O.2       7 ALL1        0.0000 
     18 O          15.7530   26.0160    2.3260 O.2       4 ALP1        0.0000 
     19 O          14.5585   24.5315    3.1850 O.2       1 ALC1        0.0000 
     20 O          14.3050   24.4680    1.7640 O.2       4 ALP1        0.0000 
     21 CA          8.5565   21.9205    6.2425 C.3       3 GLC5        0.0000 
     22 CA          9.9630   23.1180    6.7360 C.3       9 GLL5        0.0000 
     23 CA          7.1500   20.7230    5.7490 C.3       6 GLP5        0.0000 
     24 CA          9.2860   21.9485    8.0620 C.3       3 GLC5        0.0000 
     25 CA          8.6090   20.7790    9.3880 C.3       6 GLP5        0.0000 
     26 CA         10.2040   23.0615    9.2025 C.3       3 GLC5        0.0000 
     27 CA         10.5040   25.0300    8.2710 C.3       9 GLL5        0.0000 
     28 CA          9.9040   21.0930   10.1340 C.3       6 GLP5        0.0000 
     29 CA         10.8725   26.5345   10.8210 C.3       3 GLC5        0.0000 
     30 CA         10.3360   26.3720    8.6850 C.3       9 GLL5        0.0000 
     31 CA         11.4090   26.6970   12.9570 C.3       6 GLP5        0.0000 
     32 N           9.1595   29.9115    8.2855 N.am      2 SEC2        0.0000 
     33 N           9.3020   28.5190    8.4130 N.am      8 SEL2        0.0000 
     34 N           9.0170   31.3040    8.1580 N.am      5 SEP2        0.0000 
     35 O          10.1560   29.4290    9.1620 O.2       1 ALC1        0.0000 
     36 O           9.3020   28.5190    8.4130 O.2       7 ALL1        0.0000 
     37 O          11.0100   30.3390    9.9110 O.2       4 ALP1        0.0000 
     38 N           8.7020   28.9265    5.9485 N.am      2 SEC2        0.0000 
     39 N           7.8640   27.6550    6.2150 N.am      8 SEL2        0.0000 
     40 N           9.5400   30.1980    5.6820 N.am      5 SEP2        0.0000 
     41 CA          9.5105   28.1020    5.2155 C.3       3 GLC5        0.0000 
     42 CA          7.4580   27.3700    4.8820 C.3       9 GLL5        0.0000 
     43 CA         11.5630   28.8340    5.5490 C.3       6 GLP5        0.0000 
     44 CA          7.3730   29.3185    5.2255 C.3       3 GLC5        0.0000 
     45 CA          7.2880   31.2670    5.5690 C.3       6 GLP5        0.0000 
     46 N           9.9960   19.8485    6.0575 N.am      2 SEC2        0.0000 
     47 N          11.2590   20.7380    6.8040 N.am      8 SEL2        0.0000 
     48 N           8.7330   18.9590    5.3110 N.am      5 SEP2        0.0000 
     49 N          11.2905   19.9780    8.0710 N.am      2 SEC2        0.0000 
     50 N          11.3220   19.2180    9.3380 N.am      5 SEP2        0.0000 
     51 CA         14.9885   18.1125    0.3530 C.3       3 GLC5        0.0000 
     52 CA         15.1860   19.2470    2.0450 C.3       9 GLL5        0.0000 
     53 CA         14.7910   16.9780   -1.3390 C.3       6 GLP5        0.0000 
     54 N          18.6430   18.7260    0.9200 N.am      2 SEC2        0.0000 
     55 N          17.4290   18.5320    1.5530 N.am      8 SEL2        0.0000 
     56 N          19.8570   18.9200    0.2870 N.am      5 SEP2        0.0000 
     57 CA         17.1435   20.6433    3.3898 C.3       3 GLC5        0.0000 
     58 CA         16.8060   18.8950    3.8610 C.3       9 GLL5        0.0000 
     59 CA         17.9930   22.2020    2.4470 C.3       6 GLP5        0.0000 
     60 CA         15.6387   22.2030   10.1470 C.3       3 GLC5        0.0000 
     61 CA         14.9250   22.0320    8.0090 C.3       9 GLL5        0.0000 
     62 CA         16.8300   22.6440   11.8350 C.3       6 GLP5        0.0000 
     63 CA         14.0579   23.5568    9.4098 C.3       3 GLC5        0.0000 
     64 CA         13.9700   21.4920    8.9090 C.3       9 GLL5        0.0000 
     65 CA         13.7670   25.0860   10.6110 C.3       6 GLP5        0.0000 
     66 CA         12.4073   20.3850    9.9413 C.3       3 GLC5        0.0000 
     67 CA         14.3410   20.4880    9.8400 C.3       9 GLL5        0.0000 
     68 CA         10.6590   19.7800   10.5080 C.3       6 GLP5        0.0000 
     69 CA         14.6118   19.6123   11.4965 C.3       3 GLC5        0.0000 
     70 CA         14.2170   18.9750   13.1320 C.3       6 GLP5        0.0000 
     71 CA         15.9182   21.4468   10.8480 C.3       3 GLC5        0.0000 
     72 CA         13.7934   19.0763    8.8611 C.3       3 GLC5        0.0000 
     73 CA         15.6720   20.0110    9.8820 C.3       9 GLL5        0.0000 
     74 CA         16.6405   21.8422   10.1822 C.3       3 GLC5        0.0000 
     75 CA         16.6390   20.5380    8.9950 C.3       9 GLL5        0.0000 
     76 CA         12.0935   25.3935    9.5445 C.3       3 GLC5        0.0000 
     77 CA         11.1390   27.5320    7.5323 C.3       3 GLC5        0.0000 
     78 CA         12.3420   28.6060    6.8330 C.3       6 GLP5        0.0000 
     79 CA         10.1867   27.4473    6.1010 C.3       3 GLC5        0.0000 
     80 CA          8.7190   26.7420    6.8530 C.3       9 GLL5        0.0000 
     81 CA         10.2697   25.3212    0.7982 C.3       3 GLC5        0.0000 
     82 CA         10.2840   24.1660    2.4610 C.3       9 GLL5        0.0000 
     83 CA         10.9370   26.6870   -0.5240 C.3       6 GLP5        0.0000 
     84 CA         10.8272   22.6118    1.0852 C.3       3 GLC5        0.0000 
     85 CA         12.0520   21.2680    0.0500 C.3       6 GLP5        0.0000 
     86 CA          8.3945   23.7885    0.1273 C.3       3 GLC5        0.0000 
     87 CA          8.9210   23.7450    1.7800 C.3       9 GLL5        0.0000 
     88 CA          8.5630   23.5480   -1.6650 C.3       6 GLP5        0.0000 
     89 CA          6.6433   22.3160    4.5175 C.3       3 GLC5        0.0000 
     90 CA          6.7880   23.6900    3.1120 C.3       9 GLL5        0.0000 
     91 CA          5.9941   22.3804    2.0729 C.3       3 GLC5        0.0000 
     92 CA          5.4850   24.1280    3.4600 C.3       9 GLL5        0.0000 
     93 CA          5.6660   20.6960    1.1230 C.3       6 GLP5        0.0000 
     94 CA          6.1865   24.7800   -0.2180 C.3       3 GLC5        0.0000 
     95 CA          6.9210   25.3920    1.3670 C.3       9 GLL5        0.0000 
     96 CA          6.1100   23.9470   -1.9790 C.3       6 GLP5        0.0000 
     97 CA         12.4874   18.8897    3.6786 C.3       3 GLC5        0.0000 
     98 CA         14.1890   19.6180    2.9920 C.3       9 GLL5        0.0000 
     99 CA         10.8980   18.0620    3.4260 C.3       6 GLP5        0.0000 
    100 CA         13.3697   20.3502    1.2842 C.3       3 GLC5        0.0000 
    101 CA         16.2799   20.6461    1.9044 C.3       3 GLC5        0.0000 
    102 CA         16.9770   22.1310    1.3030 C.3       6 GLP5        0.0000 
@<TRIPOS>BOND
@<TRIPOS>SUBSTRUCTURE
     1 ALC1       16 GROUP        1 X    ALC  0     ROOT ALC X 1
     2 SEC2        4 GROUP        1 X    SEC  0     **** SEC X 2
     3 GLC5        1 GROUP        1 X    GLC  0     **** GLC X 6
     4 ALP1       18 GROUP        1 Y    ALP  0     ROOT ALP Y 8
     5 SEP2        6 GROUP        1 Y    SEP  0     **** SEP Y 9
     6 GLP5        3 GROUP        1 Y    GLP  0     **** GLP Y 13
     7 ALL1       17 GROUP        1 Z    ALL  0     ROOT ALL Z 15
     8 SEL2        5 GROUP        1 Z    SEL  0     **** SEL Z 16
     9 GLL5        2 GROUP        1 Z    GLL  0     **** GLL Z 20
@<TRIPOS>SET

