#    Name: 2a4f_AAU_1_ligand
#    Modification time : Mon Mar 24 18:26:54 2014

@<TRIPOS>MOLECULE
2a4f_AAU_1_ligand
   86    90     1     0     0
SMALL
NO_CHARGES


@<TRIPOS>ATOM
      1 C1         18.3860   18.2030    5.5950 C.3       1 AAU1000     0.0000 
      2 O2         18.1270   18.5260    4.2280 O.3       1 AAU1000     0.0000 
      3 C3         16.8060   18.8950    3.8610 C.ar      1 AAU1000     0.0000 
      4 C4         15.7820   19.2740    4.8040 C.ar      1 AAU1000     0.0000 
      5 C5         14.4850   19.6310    4.3590 C.ar      1 AAU1000     0.0000 
      6 C6         13.4440   20.0030    5.3820 C.3       1 AAU1000     0.0000 
      7 N7         13.1090   21.4310    5.6940 N.am      1 AAU1000     0.0000 
      8 C8         14.1570   22.5160    5.6030 C.3       1 AAU1000     0.0000 
      9 C9         14.5300   23.0940    7.0070 C.3       1 AAU1000     0.0000 
     10 C10        14.9250   22.0320    8.0090 C.ar      1 AAU1000     0.0000 
     11 C11        13.9700   21.4920    8.9090 C.ar      1 AAU1000     0.0000 
     12 C12        14.3410   20.4880    9.8400 C.ar      1 AAU1000     0.0000 
     13 C13        15.6720   20.0110    9.8820 C.ar      1 AAU1000     0.0000 
     14 C14        16.6390   20.5380    8.9950 C.ar      1 AAU1000     0.0000 
     15 C15        16.2630   21.5430    8.0640 C.ar      1 AAU1000     0.0000 
     16 C16        13.7780   23.6580    4.5860 C.3       1 AAU1000     0.0000 
     17 O17        14.8120   24.5950    4.6060 O.3       1 AAU1000     0.0000 
     18 C18        12.4710   24.4360    4.8500 C.3       1 AAU1000     0.0000 
     19 N19        11.3620   23.4920    4.7950 N.am      1 AAU1000     0.0000 
     20 N20        11.1020   22.7850    5.8330 N.am      1 AAU1000     0.0000 
     21 C21         9.9630   23.1180    6.7360 C.3       1 AAU1000     0.0000 
     22 C22         9.7860   24.5350    7.1600 C.ar      1 AAU1000     0.0000 
     23 C23        10.5040   25.0300    8.2710 C.ar      1 AAU1000     0.0000 
     24 C24        10.3360   26.3720    8.6850 C.ar      1 AAU1000     0.0000 
     25 C25         9.4520   27.2150    7.9850 C.ar      1 AAU1000     0.0000 
     26 O26         9.3020   28.5190    8.4130 O.3       1 AAU1000     0.0000 
     27 C27         8.7190   26.7420    6.8530 C.ar      1 AAU1000     0.0000 
     28 O28         7.8640   27.6550    6.2150 O.3       1 AAU1000     0.0000 
     29 C29         7.4580   27.3700    4.8820 C.3       1 AAU1000     0.0000 
     30 C30         8.9020   25.3790    6.4530 C.ar      1 AAU1000     0.0000 
     31 C31        11.8040   21.6260    6.1340 C.2       1 AAU1000     0.0000 
     32 O32        11.2590   20.7380    6.8040 O.2       1 AAU1000     0.0000 
     33 C33        10.5470   23.2040    3.6850 C.2       1 AAU1000     0.0000 
     34 O34         9.9880   22.1030    3.6490 O.2       1 AAU1000     0.0000 
     35 C35        10.2840   24.1660    2.4610 C.3       1 AAU1000     0.0000 
     36 C36         8.9210   23.7450    1.7800 C.3       1 AAU1000     0.0000 
     37 C37         7.5310   24.3130    2.0590 C.ar      1 AAU1000     0.0000 
     38 C38         6.7880   23.6900    3.1120 C.ar      1 AAU1000     0.0000 
     39 C39         5.4850   24.1280    3.4600 C.ar      1 AAU1000     0.0000 
     40 C40         4.8970   25.1970    2.7640 C.ar      1 AAU1000     0.0000 
     41 O41         3.6250   25.6060    3.1210 O.3       1 AAU1000     0.0000 
     42 C42         5.6050   25.8340    1.7190 C.ar      1 AAU1000     0.0000 
     43 C43         6.9210   25.3920    1.3670 C.ar      1 AAU1000     0.0000 
     44 C44        14.1890   19.6180    2.9920 C.ar      1 AAU1000     0.0000 
     45 C45        15.1860   19.2470    2.0450 C.ar      1 AAU1000     0.0000 
     46 C46        16.4780   18.8900    2.4930 C.ar      1 AAU1000     0.0000 
     47 O47        17.4290   18.5320    1.5530 O.3       1 AAU1000     0.0000 
     48 H          16.0053   19.2815    5.7996 H         1 AAU1000     0.0000 
     49 H          13.7175   19.4810    6.3640 H         1 AAU1000     0.0000 
     50 H          12.4725   19.4645    5.1032 H         1 AAU1000     0.0000 
     51 H          15.0926   22.0531    5.2051 H         1 AAU1000     0.0000 
     52 H          13.6649   23.6574    7.3807 H         1 AAU1000     0.0000 
     53 H          15.3555   23.8051    6.8708 H         1 AAU1000     0.0000 
     54 H          13.0044   21.8302    8.8861 H         1 AAU1000     0.0000 
     55 H          13.6426   20.1090   10.4821 H         1 AAU1000     0.0000 
     56 H          15.9339   19.2875   10.5516 H         1 AAU1000     0.0000 
     57 H          17.5978   20.2018    9.0210 H         1 AAU1000     0.0000 
     58 H          16.9639   21.9243    7.4201 H         1 AAU1000     0.0000 
     59 H          13.7079   23.2028    3.5980 H         1 AAU1000     0.0000 
     60 H          12.3780   25.2027    4.0890 H         1 AAU1000     0.0000 
     61 H          12.5491   24.9005    5.8266 H         1 AAU1000     0.0000 
     62 H          10.0373   22.4720    7.6608 H         1 AAU1000     0.0000 
     63 H           9.0050   22.7650    6.2506 H         1 AAU1000     0.0000 
     64 H          11.1465   24.4179    8.7775 H         1 AAU1000     0.0000 
     65 H          10.8552   26.7253    9.4889 H         1 AAU1000     0.0000 
     66 H           8.3839   25.0224    5.6473 H         1 AAU1000     0.0000 
     67 H          11.0749   24.0541    1.7534 H         1 AAU1000     0.0000 
     68 H          10.1992   25.1683    2.8173 H         1 AAU1000     0.0000 
     69 H           8.8581   22.5899    1.8905 H         1 AAU1000     0.0000 
     70 H           9.1068   23.8154    0.6350 H         1 AAU1000     0.0000 
     71 H           7.2139   22.9072    3.6245 H         1 AAU1000     0.0000 
     72 H           4.9803   23.6635    4.2156 H         1 AAU1000     0.0000 
     73 H           5.1849   26.6102    1.2101 H         1 AAU1000     0.0000 
     74 H           7.4208   25.8611    0.6102 H         1 AAU1000     0.0000 
     75 H          13.2557   19.8742    2.6596 H         1 AAU1000     0.0000 
     76 H          14.9646   19.2405    1.0529 H         1 AAU1000     0.0000 
     77 H          19.3443   17.9589    5.7438 H         1 AAU1000     0.0000 
     78 H          18.1811   18.9700    6.2031 H         1 AAU1000     0.0000 
     79 H          17.8347   17.4282    5.9044 H         1 AAU1000     0.0000 
     80 H           8.2396   27.3045    4.2617 H         1 AAU1000     0.0000 
     81 H           6.9627   26.5034    4.8219 H         1 AAU1000     0.0000 
     82 H           6.8537   28.0788    4.5182 H         1 AAU1000     0.0000 
     83 H          15.0423   24.7466    3.6448 H         1 AAU1000     0.0000 
     84 H          10.1689   28.7471    8.8563 H         1 AAU1000     0.0000 
     85 H           3.1862   25.8666    2.2610 H         1 AAU1000     0.0000 
     86 H          17.0209   17.7708    1.0490 H         1 AAU1000     0.0000 
@<TRIPOS>BOND
     1    2    1 1    
     2   77    1 1    
     3   78    1 1    
     4   79    1 1    
     5    3    2 1    
     6    4    3 ar   
     7   46    3 ar   
     8    5    4 ar   
     9   48    4 1    
    10    6    5 1    
    11   44    5 ar   
    12    7    6 1    
    13   49    6 1    
    14   50    6 1    
    15    8    7 1    
    16   31    7 am   
    17    9    8 1    
    18   16    8 1    
    19   51    8 1    
    20   10    9 1    
    21   52    9 1    
    22   53    9 1    
    23   11   10 ar   
    24   15   10 ar   
    25   12   11 ar   
    26   54   11 1    
    27   13   12 ar   
    28   55   12 1    
    29   14   13 ar   
    30   56   13 1    
    31   15   14 ar   
    32   57   14 1    
    33   58   15 1    
    34   17   16 1    
    35   18   16 1    
    36   59   16 1    
    37   83   17 1    
    38   19   18 1    
    39   60   18 1    
    40   61   18 1    
    41   20   19 1    
    42   33   19 am   
    43   21   20 1    
    44   31   20 am   
    45   22   21 1    
    46   62   21 1    
    47   63   21 1    
    48   23   22 ar   
    49   30   22 ar   
    50   24   23 ar   
    51   64   23 1    
    52   25   24 ar   
    53   65   24 1    
    54   26   25 1    
    55   27   25 ar   
    56   84   26 1    
    57   28   27 1    
    58   30   27 ar   
    59   29   28 1    
    60   80   29 1    
    61   81   29 1    
    62   82   29 1    
    63   66   30 1    
    64   32   31 2    
    65   34   33 2    
    66   35   33 1    
    67   36   35 1    
    68   67   35 1    
    69   68   35 1    
    70   37   36 1    
    71   69   36 1    
    72   70   36 1    
    73   38   37 ar   
    74   43   37 ar   
    75   39   38 ar   
    76   71   38 1    
    77   40   39 ar   
    78   72   39 1    
    79   41   40 1    
    80   42   40 ar   
    81   85   41 1    
    82   43   42 ar   
    83   73   42 1    
    84   74   43 1    
    85   45   44 ar   
    86   75   44 1    
    87   46   45 ar   
    88   76   45 1    
    89   47   46 1    
    90   86   47 1    
@<TRIPOS>SUBSTRUCTURE
     1 AAU1000     1 GROUP   
@<TRIPOS>SET

