#    Name: 3SFK_1_CAVITY_N1_6.mol2
#    Modification time : Mon Mar 10 23:47:47 2014

@<TRIPOS>MOLECULE
3SFK_1_CAVITY_N1_6.mol2
   49     0     3     0     0
SMALL
NO_CHARGES


@<TRIPOS>ATOM
      1 O          -2.2307  -29.9661  -18.4630 O.2       1 ALA2        0.0000 
      2 CA         -2.9679  -28.6676  -18.6067 C.3       3 GLY6        0.0000 
      3 CZ         -3.5170  -30.6587  -18.1228 C.ar      2 PHE5        0.0000 
      4 CA         -4.2542  -29.3602  -18.2665 C.3       3 GLY6        0.0000 
      5 CA         -2.0026  -29.6757  -17.0092 C.3       3 GLY6        0.0000 
      6 N          -2.7397  -28.3772  -17.1529 N.2       1 ALA2        0.0000 
      7 CA         -3.2889  -30.3682  -16.6690 C.3       3 GLY6        0.0000 
      8 CZ         -4.0260  -29.0698  -16.8127 C.ar      2 PHE5        0.0000 
      9 CA         -4.7631  -27.7713  -16.9564 C.3       3 GLY6        0.0000 
     10 CA         -4.5752  -31.0608  -16.3287 C.3       3 GLY6        0.0000 
     11 CZ         -5.3123  -29.7624  -16.4724 C.ar      2 PHE5        0.0000 
     12 CA         -1.7744  -29.3852  -15.5554 C.3       3 GLY6        0.0000 
     13 O          -2.5115  -28.0868  -15.6991 O.2       1 ALA2        0.0000 
     14 CA         -3.0607  -30.0778  -15.2151 C.3       3 GLY6        0.0000 
     15 O          -3.7978  -28.7794  -15.3588 O.2       1 ALA2        0.0000 
     16 N          -4.3470  -30.7704  -14.8749 N.2       1 ALA2        0.0000 
     17 CZ         -5.0841  -29.4719  -15.0186 C.ar      2 PHE5        0.0000 
     18 CA         -5.8213  -28.1735  -15.1623 C.3       3 GLY6        0.0000 
     19 N          -5.6333  -31.4630  -14.5347 N.2       1 ALA2        0.0000 
     20 CA         -6.3705  -30.1645  -14.6784 C.3       3 GLY6        0.0000 
     21 CA         -6.9196  -32.1555  -14.1945 C.3       3 GLY6        0.0000 
     22 CA         -7.6568  -30.8571  -14.3382 C.3       3 GLY6        0.0000 
     23 CA         -8.9431  -31.5497  -13.9979 C.3       3 GLY6        0.0000 
     24 CA         -9.6802  -30.2512  -14.1417 C.3       3 GLY6        0.0000 
     25 O          -2.2834  -27.7964  -14.2452 O.2       1 ALA2        0.0000 
     26 CA         -2.8326  -29.7874  -13.7613 C.3       3 GLY6        0.0000 
     27 O          -3.5697  -28.4889  -13.9050 O.2       1 ALA2        0.0000 
     28 N          -4.1189  -30.4800  -13.4211 N.2       1 ALA2        0.0000 
     29 CZ         -4.8560  -29.1815  -13.5648 C.ar      2 PHE5        0.0000 
     30 O          -5.5931  -27.8831  -13.7085 O.2       1 ALA2        0.0000 
     31 N          -5.4052  -31.1725  -13.0809 N.2       1 ALA2        0.0000 
     32 CZ         -6.1423  -29.8741  -13.2246 C.ar      2 PHE5        0.0000 
     33 CZ         -6.8794  -28.5756  -13.3683 C.ar      2 PHE5        0.0000 
     34 N          -6.6915  -31.8651  -12.7406 N.2       1 ALA2        0.0000 
     35 CZ         -7.4286  -30.5667  -12.8843 C.ar      2 PHE5        0.0000 
     36 CA         -8.1657  -29.2682  -13.0281 C.3       3 GLY6        0.0000 
     37 O          -8.9029  -27.9697  -13.1718 O.2       1 ALA2        0.0000 
     38 CA         -7.9778  -32.5577  -12.4004 C.3       3 GLY6        0.0000 
     39 CA         -8.7149  -31.2592  -12.5441 C.3       3 GLY6        0.0000 
     40 CA         -9.4520  -29.9608  -12.6878 C.3       3 GLY6        0.0000 
     41 N         -10.1892  -28.6623  -12.8315 N.2       1 ALA2        0.0000 
     42 CA        -10.0012  -31.9518  -12.2039 C.3       3 GLY6        0.0000 
     43 CA         -6.4633  -31.5747  -11.2868 C.3       3 GLY6        0.0000 
     44 CZ         -7.2004  -30.2762  -11.4305 C.ar      2 PHE5        0.0000 
     45 CZ         -7.9376  -28.9778  -11.5742 C.ar      2 PHE5        0.0000 
     46 CA         -7.7496  -32.2673  -10.9466 C.3       3 GLY6        0.0000 
     47 CA         -8.4868  -30.9688  -11.0903 C.3       3 GLY6        0.0000 
     48 CA         -9.2239  -29.6703  -11.2340 C.3       3 GLY6        0.0000 
     49 CA         -8.2586  -30.6784   -9.6365 C.3       3 GLY6        0.0000 
@<TRIPOS>BOND
@<TRIPOS>SUBSTRUCTURE
     1 ALA2        1 GROUP   
     2 PHE5        3 GROUP   
     3 GLY6        2 GROUP   
@<TRIPOS>SET

