#    Name: 3sfk_D67_1_INTS_M
#    Modification time : Tue Mar 25 12:34:04 2014

@<TRIPOS>MOLECULE
3sfk_D67_1_INTS_M
   82     0     9     0     0
SMALL
NO_CHARGES


@<TRIPOS>ATOM
      1 CA         -7.4185  -29.0165  -10.9265 C.3       3 GLC5        0.0000 
      2 CA         -8.8230  -30.3040  -11.6160 C.3       9 GLL5        0.0000 
      3 CA         -6.0140  -27.7290  -10.2370 C.3       6 GLP5        0.0000 
      4 CA         -9.4095  -29.1600   -9.9770 C.3       3 GLC5        0.0000 
      5 CA         -9.9960  -28.0160   -8.3380 C.3       6 GLP5        0.0000 
      6 O          -4.1165  -26.9640  -14.5825 O.2       1 ALC1        0.0000 
      7 O          -4.2810  -28.2420  -15.2840 O.2       7 ALL1        0.0000 
      8 O          -3.9520  -25.6860  -13.8810 O.2       4 ALP1        0.0000 
      9 CA         -6.5360  -32.6970  -10.5850 C.3       3 GLC5        0.0000 
     10 CA         -7.7100  -32.1390  -11.8280 C.3       9 GLL5        0.0000 
     11 CA         -5.3620  -33.2550   -9.3420 C.3       6 GLP5        0.0000 
     12 CA         -9.0755  -30.0525  -14.8805 C.3       3 GLC5        0.0000 
     13 CA         -9.1460  -31.5200  -13.3380 C.3       9 GLL5        0.0000 
     14 CA         -9.0050  -28.5850  -16.4230 C.3       6 GLP5        0.0000 
     15 CA         -9.7450  -32.5360  -14.5940 C.3       3 GLC5        0.0000 
     16 CA        -10.3440  -33.5520  -15.8500 C.3       6 GLP5        0.0000 
     17 CA         -2.1785  -24.8045  -14.7305 C.3       3 GLC5        0.0000 
     18 CA         -0.1140  -25.0500  -14.8450 C.3       9 GLL5        0.0000 
     19 CA         -4.2430  -24.5590  -14.6160 C.3       6 GLP5        0.0000 
     20 CA         -0.0020  -25.7115  -12.8565 C.3       3 GLC5        0.0000 
     21 CA          0.1100  -26.3730  -10.8680 C.3       6 GLP5        0.0000 
     22 CA          0.9545  -23.8315  -13.5660 C.3       3 GLC5        0.0000 
     23 CA          2.0230  -22.6130  -12.2870 C.3       6 GLP5        0.0000 
     24 N          -0.1520  -28.1910  -18.9835 N.am      2 SEC2        0.0000 
     25 N          -0.4140  -27.5280  -17.4060 N.am      8 SEL2        0.0000 
     26 N           0.1100  -28.8540  -20.5610 N.am      5 SEP2        0.0000 
     27 CA         -0.6310  -23.6830  -17.7750 C.3       3 GLC5        0.0000 
     28 CA          0.7000  -24.9680  -16.8180 C.3       9 GLL5        0.0000 
     29 CA         -1.9620  -22.3980  -18.7320 C.3       6 GLP5        0.0000 
     30 N          -0.8540  -29.0395  -19.4980 N.am      2 SEC2        0.0000 
     31 N          -1.8180  -29.2250  -18.4350 N.am      8 SEL2        0.0000 
     32 CA         -4.7405  -31.5990  -12.1215 C.3       3 GLC5        0.0000 
     33 CA         -6.0440  -31.0580  -13.7200 C.3       9 GLL5        0.0000 
     34 CA         -3.4370  -32.1400  -10.5230 C.3       6 GLP5        0.0000 
     35 CA         -4.3995  -26.9580  -16.5615 C.3       3 GLC5        0.0000 
     36 CA         -3.4990  -28.6030  -16.3290 C.3       9 GLL5        0.0000 
     37 CA         -5.3000  -25.3130  -16.7940 C.3       6 GLP5        0.0000 
     38 CA         -1.4930  -29.5450  -16.0725 C.3       3 GLC5        0.0000 
     39 CA          0.5130  -30.4870  -15.8160 C.3       6 GLP5        0.0000 
     40 CA         -4.9330  -31.5000  -17.0640 C.3       3 GLC5        0.0000 
     41 CA         -3.8680  -29.5710  -17.2710 C.3       9 GLL5        0.0000 
     42 CA         -5.9980  -33.4290  -16.8570 C.3       6 GLP5        0.0000 
     43 CA         -4.2750  -32.4715  -18.6670 C.3       3 GLC5        0.0000 
     44 CA         -3.3600  -30.9140  -19.3440 C.3       9 GLL5        0.0000 
     45 CA         -5.1900  -34.0290  -17.9900 C.3       6 GLP5        0.0000 
     46 CA         -4.2070  -31.0100  -21.0220 C.3       3 GLC5        0.0000 
     47 CA         -5.0540  -31.1060  -22.7000 C.3       6 GLP5        0.0000 
     48 CA         -2.0190  -31.4940  -20.7795 C.3       3 GLC5        0.0000 
     49 CA         -0.6780  -32.0740  -22.2150 C.3       6 GLP5        0.0000 
     50 CA         -3.7910  -29.1040  -19.8700 C.3       3 GLC5        0.0000 
     51 CA         -4.2220  -27.2940  -20.3960 C.3       6 GLP5        0.0000 
     52 CA         -5.2135  -30.6095  -19.2685 C.3       3 GLC5        0.0000 
     53 CA         -7.0670  -30.3050  -19.1930 C.3       6 GLP5        0.0000 
     54 CA          2.5805  -27.2745  -16.6975 C.3       3 GLC5        0.0000 
     55 CA          1.6080  -26.5020  -15.3140 C.3       9 GLL5        0.0000 
     56 CA          3.5530  -28.0470  -18.0810 C.3       6 GLP5        0.0000 
     57 CA          3.3565  -26.2385  -14.8550 C.3       3 GLC5        0.0000 
     58 CA          5.1050  -25.9750  -14.3960 C.3       6 GLP5        0.0000 
     59 CA          0.7100  -28.1195  -14.4240 C.3       3 GLC5        0.0000 
     60 CA         -0.1880  -29.7370  -13.5340 C.3       6 GLP5        0.0000 
     61 CA         -6.6215  -29.8025  -11.6475 C.3       3 GLC5        0.0000 
     62 CA         -8.2370  -31.1120  -12.4780 C.3       9 GLL5        0.0000 
     63 CA         -5.0060  -28.4930  -10.8170 C.3       6 GLP5        0.0000 
     64 CA         -5.7745  -32.0692  -15.4617 C.3       3 GLC5        0.0000 
     65 CA         -5.5302  -26.9823  -15.5880 C.3       3 GLC5        0.0000 
     66 CA         -6.3190  -28.3160  -14.1350 C.3       9 GLL5        0.0000 
     67 CA         -7.3828  -28.6182  -15.4025 C.3       3 GLC5        0.0000 
     68 CA         -8.5947  -33.2927  -12.9735 C.3       3 GLC5        0.0000 
     69 CA         -9.2160  -34.9600  -13.7940 C.3       6 GLP5        0.0000 
     70 CA        -10.7290  -31.1265  -12.6683 C.3       3 GLC5        0.0000 
     71 CA        -12.6200  -31.1390  -12.6440 C.3       6 GLP5        0.0000 
     72 CA         -9.2595  -32.4089  -11.1559 C.3       3 GLC5        0.0000 
     73 CA         -9.8860  -33.3460   -9.6740 C.3       6 GLP5        0.0000 
     74 CA         -8.1195  -29.1397  -14.8807 C.3       3 GLC5        0.0000 
     75 CA         -7.1650  -30.3790  -13.2330 C.3       9 GLL5        0.0000 
     76 CA          0.2818  -25.3422  -18.2305 C.3       3 GLC5        0.0000 
     77 CA          0.0240  -25.3140  -20.1390 C.3       6 GLP5        0.0000 
     78 CA          1.3782  -26.8513  -17.5280 C.3       3 GLC5        0.0000 
     79 CA          2.2170  -28.3320  -18.7340 C.3       6 GLP5        0.0000 
     80 CA         -3.9527  -28.1905  -18.5980 C.3       3 GLC5        0.0000 
     81 CA          2.1151  -24.5484  -15.8112 C.3       3 GLC5        0.0000 
     82 CA          3.2180  -23.2510  -15.9270 C.3       6 GLP5        0.0000 
@<TRIPOS>BOND
@<TRIPOS>SUBSTRUCTURE
     1 ALC1        6 GROUP        1 X    ALC  0     ROOT ALC X 1
     2 SEC2       24 GROUP        1 X    SEC  0     **** SEC X 2
     3 GLC5        1 GROUP        1 X    GLC  0     **** GLC X 6
     4 ALP1        8 GROUP        1 Y    ALP  0     ROOT ALP Y 8
     5 SEP2       26 GROUP        1 Y    SEP  0     **** SEP Y 9
     6 GLP5        3 GROUP        1 Y    GLP  0     **** GLP Y 13
     7 ALL1        7 GROUP        1 Z    ALL  0     ROOT ALL Z 15
     8 SEL2       25 GROUP        1 Z    SEL  0     **** SEL Z 16
     9 GLL5        2 GROUP        1 Z    GLL  0     **** GLL Z 20
@<TRIPOS>SET

