#    Name: 3sfk_D67_1_ligand
#    Modification time : Tue Mar 25 12:34:04 2014

@<TRIPOS>MOLECULE
3sfk_D67_1_ligand
   37    39     1     0     0
SMALL
NO_CHARGES


@<TRIPOS>ATOM
      1 C1         -5.0580  -30.3610  -14.4130 C.ar      1 D671001     0.0000 
      2 F1         -8.8230  -30.3040  -11.6160 F         1 D671001     0.0000 
      3 N1         -4.2810  -28.2420  -15.2840 N.pl3     1 D671001     0.0000 
      4 C2         -5.2020  -28.9870  -14.6290 C.ar      1 D671001     0.0000 
      5 F2         -7.7100  -32.1390  -11.8280 F         1 D671001     0.0000 
      6 N2         -2.3190  -27.9840  -16.4880 N.pl3     1 D671001     0.0000 
      7 C3         -6.3190  -28.3160  -14.1350 C.ar      1 D671001     0.0000 
      8 F3         -9.1460  -31.5200  -13.3380 F         1 D671001     0.0000 
      9 N3         -1.8020  -26.9930  -15.6540 N.2       1 D671001     0.0000 
     10 C4         -7.3030  -29.0100  -13.4440 C.ar      1 D671001     0.0000 
     11 F4         -0.1140  -25.0500  -14.8450 F         1 D671001     0.0000 
     12 N4         -0.4140  -27.5280  -17.4060 N.2       1 D671001     0.0000 
     13 C5         -7.1650  -30.3790  -13.2330 C.ar      1 D671001     0.0000 
     14 F5          0.7000  -24.9680  -16.8180 F         1 D671001     0.0000 
     15 N5         -1.8180  -29.2250  -18.4350 N.2       1 D671001     0.0000 
     16 C6         -6.0440  -31.0580  -13.7200 C.ar      1 D671001     0.0000 
     17 C7         -3.4990  -28.6030  -16.3290 C.2       1 D671001     0.0000 
     18 C8         -3.8680  -29.5710  -17.2710 C.2       1 D671001     0.0000 
     19 C9         -2.9980  -29.8740  -18.3230 C.2       1 D671001     0.0000 
     20 C10        -3.3600  -30.9140  -19.3440 C.3       1 D671001     0.0000 
     21 C11        -1.5210  -28.2920  -17.5020 C.2       1 D671001     0.0000 
     22 C12        -0.6320  -26.7790  -16.2980 C.2       1 D671001     0.0000 
     23 C13         0.3790  -25.7730  -15.8260 C.3       1 D671001     0.0000 
     24 C14         1.6080  -26.5020  -15.3140 C.3       1 D671001     0.0000 
     25 C16        -8.2370  -31.1120  -12.4780 C.3       1 D671001     0.0000 
     26 H          -4.2291  -30.8505  -14.7645 H         1 D671001     0.0000 
     27 H          -4.1512  -27.2134  -14.9219 H         1 D671001     0.0000 
     28 H          -6.4128  -27.3012  -14.2843 H         1 D671001     0.0000 
     29 H          -8.1307  -28.5165  -13.0890 H         1 D671001     0.0000 
     30 H          -5.9507  -32.0679  -13.5656 H         1 D671001     0.0000 
     31 H          -4.7659  -30.0516  -17.1897 H         1 D671001     0.0000 
     32 H          -3.4045  -30.5296  -20.2661 H         1 D671001     0.0000 
     33 H          -2.6926  -31.6583  -19.3687 H         1 D671001     0.0000 
     34 H          -4.2514  -31.3257  -19.1548 H         1 D671001     0.0000 
     35 H           2.0276  -27.0669  -16.0245 H         1 D671001     0.0000 
     36 H           2.3098  -25.8663  -14.9924 H         1 D671001     0.0000 
     37 H           1.3887  -27.1079  -14.5493 H         1 D671001     0.0000 
@<TRIPOS>BOND
     1    4    1 ar   
     2   16    1 ar   
     3   26    1 1    
     4   25    2 1    
     5    4    3 1    
     6   17    3 1    
     7   27    3 1    
     8    7    4 ar   
     9   25    5 1    
    10    9    6 1    
    11   17    6 1    
    12   21    6 1    
    13   10    7 ar   
    14   28    7 1    
    15   25    8 1    
    16   22    9 2    
    17   13   10 ar   
    18   29   10 1    
    19   23   11 1    
    20   21   12 2    
    21   22   12 1    
    22   16   13 ar   
    23   25   13 1    
    24   23   14 1    
    25   19   15 2    
    26   21   15 1    
    27   30   16 1    
    28   18   17 2    
    29   19   18 1    
    30   31   18 1    
    31   20   19 1    
    32   32   20 1    
    33   33   20 1    
    34   34   20 1    
    35   23   22 1    
    36   24   23 1    
    37   35   24 1    
    38   36   24 1    
    39   37   24 1    
@<TRIPOS>SUBSTRUCTURE
     1 D671001     1 GROUP   
@<TRIPOS>SET

