#    Name: 4iui_1GQ_2_INTS_M
#    Modification time : Tue Mar 25 04:37:34 2014

@<TRIPOS>MOLECULE
4iui_1GQ_2_INTS_M
   74     0     9     0     0
SMALL
NO_CHARGES


@<TRIPOS>ATOM
      1 CA          7.8045    6.3970   36.8555 C.3       3 GLC5        0.0000 
      2 CA          7.9590    5.7780   35.0000 C.3       9 GLL5        0.0000 
      3 CA          7.6500    7.0160   38.7110 C.3       6 GLP5        0.0000 
      4 CA         12.6475    4.8855   35.1055 C.3       3 GLC5        0.0000 
      5 CA         11.7680    3.5710   33.5170 C.3       9 GLL5        0.0000 
      6 CA         13.5270    6.2000   36.6940 C.3       6 GLP5        0.0000 
      7 CA         16.3240   10.6630   31.6745 C.3       3 GLC5        0.0000 
      8 CA         14.5300   11.0140   30.9830 C.3       9 GLL5        0.0000 
      9 CA         18.1180   10.3120   32.3660 C.3       6 GLP5        0.0000 
     10 CA         14.4590   12.5910   31.3680 C.3       3 GLC5        0.0000 
     11 CA         14.3880   14.1680   31.7530 C.3       6 GLP5        0.0000 
     12 CA         12.4770    6.6455   28.7850 C.3       3 GLC5        0.0000 
     13 CA         13.7570    7.1240   30.2640 C.3       9 GLL5        0.0000 
     14 CA         11.1970    6.1670   27.3060 C.3       6 GLP5        0.0000 
     15 N           5.0135    7.8545   34.8790 N.am      2 SEC2        0.0000 
     16 N           5.5890    6.5320   34.7740 N.am      8 SEL2        0.0000 
     17 N           4.4380    9.1770   34.9840 N.am      5 SEP2        0.0000 
     18 N           4.3930    6.5245   34.2210 N.am      2 SEC2        0.0000 
     19 N           3.1970    6.5170   33.6680 N.am      5 SEP2        0.0000 
     20 O           5.4610    5.6445   35.6875 O.2       1 ALC1        0.0000 
     21 O           5.5890    6.5320   34.7740 O.2       7 ALL1        0.0000 
     22 O           5.3330    4.7570   36.6010 O.2       4 ALP1        0.0000 
     23 CA          8.3540    8.6945   31.8620 C.3       3 GLC5        0.0000 
     24 CA          8.4820    6.7060   32.2960 C.3       9 GLL5        0.0000 
     25 CA          8.2260   10.6830   31.4280 C.3       6 GLP5        0.0000 
     26 CA         11.8060    6.2470   34.1895 C.3       3 GLC5        0.0000 
     27 CA         11.8410    4.8170   32.6990 C.3       9 GLL5        0.0000 
     28 CA         11.7710    7.6770   35.6800 C.3       6 GLP5        0.0000 
     29 CA         16.9925    7.1695   31.5310 C.3       3 GLC5        0.0000 
     30 CA         15.9070    5.6810   31.3810 C.3       9 GLL5        0.0000 
     31 CA         18.0780    8.6580   31.6810 C.3       6 GLP5        0.0000 
     32 CA         15.0925    3.9620   28.1755 C.3       3 GLC5        0.0000 
     33 CA         15.1380    4.3070   29.7340 C.3       9 GLL5        0.0000 
     34 CA         15.0470    3.6170   26.6170 C.3       6 GLP5        0.0000 
     35 CA         17.3025    4.1475   29.1425 C.3       3 GLC5        0.0000 
     36 CA         19.4670    3.9880   28.5510 C.3       6 GLP5        0.0000 
     37 CA         17.9410    3.7275   29.9845 C.3       3 GLC5        0.0000 
     38 CA         16.4150    3.4670   31.4180 C.3       9 GLL5        0.0000 
     39 CA         17.2650    1.8410   30.9820 C.3       3 GLC5        0.0000 
     40 CA         18.1150    0.2150   30.5460 C.3       6 GLP5        0.0000 
     41 CA         17.4175    2.8165   32.7425 C.3       3 GLC5        0.0000 
     42 CA         18.4200    2.1660   34.0670 C.3       6 GLP5        0.0000 
     43 CA          8.9882    3.6900   35.2620 C.3       3 GLC5        0.0000 
     44 CA          9.2820    5.6320   34.4380 C.3       9 GLL5        0.0000 
     45 CA          9.3560    1.6750   35.8050 C.3       6 GLP5        0.0000 
     46 CA          6.7015    4.9287   33.0703 C.3       3 GLC5        0.0000 
     47 CA          5.9730    3.7760   31.5310 C.3       6 GLP5        0.0000 
     48 CA          6.9007    5.2775   32.0532 C.3       3 GLC5        0.0000 
     49 CA          7.1750    6.8520   32.8550 C.3       9 GLL5        0.0000 
     50 CA          6.9922    6.9470   30.6172 C.3       3 GLC5        0.0000 
     51 CA          6.1560    7.1150   28.6590 C.3       6 GLP5        0.0000 
     52 CA          6.4365    8.3113   32.6575 C.3       3 GLC5        0.0000 
     53 CA          5.8350   10.0040   31.7780 C.3       6 GLP5        0.0000 
     54 CA         10.8430    2.3870   34.6623 C.3       3 GLC5        0.0000 
     55 CA         12.8310   10.8217   32.4595 C.3       3 GLC5        0.0000 
     56 CA         13.8920    9.6330   31.3510 C.3       9 GLL5        0.0000 
     57 CA         11.4510   11.3200   33.7520 C.3       6 GLP5        0.0000 
     58 CA         14.2425    9.7502   29.1210 C.3       3 GLC5        0.0000 
     59 CA         14.2740    9.1770   27.0750 C.3       6 GLP5        0.0000 
     60 CA         12.6150   10.6387   30.0865 C.3       3 GLC5        0.0000 
     61 CA         11.0190   10.9540   29.0060 C.3       6 GLP5        0.0000 
     62 CA         16.1743    8.8163   31.3910 C.3       3 GLC5        0.0000 
     63 CA         14.2385    8.4485   28.8163 C.3       3 GLC5        0.0000 
     64 CA         14.6490    8.3160   30.8510 C.3       9 GLL5        0.0000 
     65 CA         10.4281    6.7890   34.7910 C.3       3 GLC5        0.0000 
     66 CA          9.5500    6.0970   33.0850 C.3       9 GLL5        0.0000 
     67 CA         14.4000    2.1680   34.7958 C.3       3 GLC5        0.0000 
     68 CA         12.8920    2.6270   33.5220 C.3       9 GLL5        0.0000 
     69 CA         15.3100    1.5670   36.4680 C.3       6 GLP5        0.0000 
     70 CA         16.8114    5.1761   32.4280 C.3       3 GLC5        0.0000 
     71 CA         17.7390    6.1320   33.4250 C.3       6 GLP5        0.0000 
     72 CA         11.2269    3.8190   31.0633 C.3       3 GLC5        0.0000 
     73 CA         13.0090    5.1040   31.9170 C.3       9 GLL5        0.0000 
     74 CA         10.0470    2.9890   29.6140 C.3       6 GLP5        0.0000 
@<TRIPOS>BOND
@<TRIPOS>SUBSTRUCTURE
     1 ALC1       20 GROUP        1 X    ALC  0     ROOT ALC X 1
     2 SEC2       15 GROUP        1 X    SEC  0     **** SEC X 2
     3 GLC5        1 GROUP        1 X    GLC  0     **** GLC X 6
     4 ALP1       22 GROUP        1 Y    ALP  0     ROOT ALP Y 8
     5 SEP2       17 GROUP        1 Y    SEP  0     **** SEP Y 9
     6 GLP5        3 GROUP        1 Y    GLP  0     **** GLP Y 13
     7 ALL1       21 GROUP        1 Z    ALL  0     ROOT ALL Z 15
     8 SEL2       16 GROUP        1 Z    SEL  0     **** SEL Z 16
     9 GLL5        2 GROUP        1 Z    GLL  0     **** GLL Z 20
@<TRIPOS>SET

