#    Name: 4iui_1GQ_2_ligand
#    Modification time : Tue Mar 25 04:37:34 2014

@<TRIPOS>MOLECULE
4iui_1GQ_2_ligand
   42    44     1     0     0
SMALL
NO_CHARGES


@<TRIPOS>ATOM
      1 C10         7.9590    5.7780   35.0000 C.ar      1 1GQ601      0.0000 
      2 C13         7.1750    6.8520   32.8550 C.ar      1 1GQ601      0.0000 
      3 C17        11.7680    3.5710   33.5170 C.ar      1 1GQ601      0.0000 
      4 C20        14.1600    4.1270   31.9210 C.ar      1 1GQ601      0.0000 
      5 C21        15.4360    4.4040   31.0930 C.3       1 1GQ601      0.0000 
      6 C01        14.5300   11.0140   30.9830 C.3       1 1GQ601      0.0000 
      7 C02        13.8920    9.6330   31.3510 C.3       1 1GQ601      0.0000 
      8 C03        14.6490    8.3160   30.8510 C.3       1 1GQ601      0.0000 
      9 C04        13.7570    7.1240   30.2640 C.3       1 1GQ601      0.0000 
     10 N05        12.7830    6.3960   31.2260 N.pl3     1 1GQ601      0.0000 
     11 N06        11.4990    6.8780   31.5930 N.2       1 1GQ601      0.0000 
     12 C07        10.8830    5.9540   32.4940 C.2       1 1GQ601      0.0000 
     13 C08         9.5500    6.0970   33.0850 C.ar      1 1GQ601      0.0000 
     14 C09         9.2820    5.6320   34.4380 C.ar      1 1GQ601      0.0000 
     15 C11         6.9010    6.3850   34.2190 C.ar      1 1GQ601      0.0000 
     16 O12         5.5890    6.5320   34.7740 O.3       1 1GQ601      0.0000 
     17 C14         8.4820    6.7060   32.2960 C.ar      1 1GQ601      0.0000 
     18 O15         8.7520    7.1710   30.9430 O.3       1 1GQ601      0.0000 
     19 C16        11.8410    4.8170   32.6990 C.ar      1 1GQ601      0.0000 
     20 C18        12.8920    2.6270   33.5220 C.ar      1 1GQ601      0.0000 
     21 C19        14.0880    2.9110   32.7250 C.ar      1 1GQ601      0.0000 
     22 F22        15.9070    5.6810   31.3810 F         1 1GQ601      0.0000 
     23 F23        15.1380    4.3070   29.7340 F         1 1GQ601      0.0000 
     24 F24        16.4150    3.4670   31.4180 F         1 1GQ601      0.0000 
     25 C25        13.0090    5.1040   31.9170 C.ar      1 1GQ601      0.0000 
     26 H           7.7700    5.4567   35.9390 H         1 1GQ601      0.0000 
     27 H           6.4271    7.2751   32.3241 H         1 1GQ601      0.0000 
     28 H          10.9482    3.3887   34.0584 H         1 1GQ601      0.0000 
     29 H          12.8620    9.5974   30.9480 H         1 1GQ601      0.0000 
     30 H          13.7990    9.5652   32.4516 H         1 1GQ601      0.0000 
     31 H          15.2359    7.9175   31.6971 H         1 1GQ601      0.0000 
     32 H          15.3743    8.6135   30.0734 H         1 1GQ601      0.0000 
     33 H          14.4551    6.3795   29.8230 H         1 1GQ601      0.0000 
     34 H          13.1799    7.5379   29.4085 H         1 1GQ601      0.0000 
     35 H          10.0206    5.2099   34.9776 H         1 1GQ601      0.0000 
     36 H          12.8402    1.7896   34.0703 H         1 1GQ601      0.0000 
     37 H          14.8588    2.2660   32.7335 H         1 1GQ601      0.0000 
     38 H          15.4518   11.1092   31.3589 H         1 1GQ601      0.0000 
     39 H          14.6028   11.1375   29.9933 H         1 1GQ601      0.0000 
     40 H          13.9896   11.7783   31.3348 H         1 1GQ601      0.0000 
     41 H           5.6828    6.2662   35.7335 H         1 1GQ601      0.0000 
     42 H           9.6064    7.3387   31.4349 H         1 1GQ601      0.0000 
@<TRIPOS>BOND
     1   14    1 ar   
     2   15    1 ar   
     3   26    1 1    
     4   15    2 ar   
     5   17    2 ar   
     6   27    2 1    
     7   19    3 ar   
     8   20    3 ar   
     9   28    3 1    
    10    5    4 1    
    11   21    4 ar   
    12   25    4 ar   
    13   22    5 1    
    14   23    5 1    
    15   24    5 1    
    16    7    6 1    
    17   38    6 1    
    18   39    6 1    
    19   40    6 1    
    20    8    7 1    
    21   29    7 1    
    22   30    7 1    
    23    9    8 1    
    24   31    8 1    
    25   32    8 1    
    26   10    9 1    
    27   33    9 1    
    28   34    9 1    
    29   11   10 1    
    30   25   10 1    
    31   12   11 2    
    32   13   12 1    
    33   19   12 1    
    34   14   13 ar   
    35   17   13 ar   
    36   35   14 1    
    37   16   15 1    
    38   41   16 1    
    39   18   17 1    
    40   42   18 1    
    41   25   19 ar   
    42   21   20 ar   
    43   36   20 1    
    44   37   21 1    
@<TRIPOS>SUBSTRUCTURE
     1 1GQ601      1 GROUP   
@<TRIPOS>SET

