#    Name: 1jje_BYS_2_INTS_M
#    Modification time : Tue Mar 25 08:57:33 2014

@<TRIPOS>MOLECULE
1jje_BYS_2_INTS_M
   65     0    12     0     0
SMALL
NO_CHARGES


@<TRIPOS>ATOM
      1 Zn         24.7180   -2.5695   12.9435 Zn        3 ZIC7        0.0000 
      2 Zn         24.1080   -2.5840   13.7530 Zn       11 ZIL7        0.0000 
      3 Zn         25.3280   -2.5550   12.1340 Zn        7 ZIP7        0.0000 
      4 Zn         23.2280   -1.9750   13.7585 Zn        3 ZIC7        0.0000 
      5 Zn         22.3480   -1.3660   13.7640 Zn        7 ZIP7        0.0000 
      6 Zn         25.6705   -2.6575   13.4470 Zn        3 ZIC7        0.0000 
      7 Zn         26.0130   -2.7600   14.7600 Zn       11 ZIL7        0.0000 
      8 N          27.2980   -3.2250   15.2605 N.am      1 SEC2        0.0000 
      9 N          26.0130   -2.7600   14.7600 N.am      9 SEL2        0.0000 
     10 N          28.5830   -3.6900   15.7610 N.am      5 SEP2        0.0000 
     11 CA         25.5975   -3.8520   18.7385 C.3       4 GLC5        0.0000 
     12 CA         24.6420   -3.7000   17.0060 C.3      12 GLL5        0.0000 
     13 CA         26.5530   -4.0040   20.4710 C.3       8 GLP5        0.0000 
     14 CA         25.7720   -5.6065   13.6700 C.3       4 GLC5        0.0000 
     15 CA         25.3110   -5.8050   15.8170 C.3      12 GLL5        0.0000 
     16 CA         26.2330   -5.4080   11.5230 C.3       8 GLP5        0.0000 
     17 CA         22.0355   -6.6990   17.6520 C.3       4 GLC5        0.0000 
     18 CA         22.6520   -6.5750   15.4980 C.3      12 GLL5        0.0000 
     19 CA         21.4190   -6.8230   19.8060 C.3       8 GLP5        0.0000 
     20 NZ         24.7025    1.4605   14.8250 N.4       2 LYC4        0.0000 
     21 NZ         23.9120   -0.0660   14.8860 N.4      10 LYL4        0.0000 
     22 NZ         25.4930    2.9870   14.7640 N.4       6 LYP4        0.0000 
     23 Zn         23.1300   -0.7160   14.3250 Zn        3 ZIC7        0.0000 
     24 Zn         23.9120   -0.0660   14.8860 Zn       11 ZIL7        0.0000 
     25 N          24.7025    1.4605   14.8250 N.am      1 SEC2        0.0000 
     26 N          23.9120   -0.0660   14.8860 N.am      9 SEL2        0.0000 
     27 N          25.4930    2.9870   14.7640 N.am      5 SEP2        0.0000 
     28 NZ         25.5290    1.8500   15.4560 N.4       2 LYC4        0.0000 
     29 NZ         25.5650    0.7130   16.1480 N.4      10 LYL4        0.0000 
     30 N          25.5290    1.8500   15.4560 N.am      1 SEC2        0.0000 
     31 N          25.5650    0.7130   16.1480 N.am      9 SEL2        0.0000 
     32 N          26.8330    0.6475   16.9915 N.am      1 SEC2        0.0000 
     33 N          28.1010    0.5820   17.8350 N.am      5 SEP2        0.0000 
     34 CA         21.4805   -1.6130   18.5420 C.3       4 GLC5        0.0000 
     35 CA         23.3210   -0.8200   17.8280 C.3      12 GLL5        0.0000 
     36 CA         19.6400   -2.4060   19.2560 C.3       8 GLP5        0.0000 
     37 CA         21.6015    2.5395   18.1080 C.3       4 GLC5        0.0000 
     38 CA         23.5830    2.7340   19.1240 C.3      12 GLL5        0.0000 
     39 CA         19.6200    2.3450   17.0920 C.3       8 GLP5        0.0000 
     40 CA         25.6250    3.7375   19.3395 C.3       4 GLC5        0.0000 
     41 CA         23.9390    4.7530   20.0620 C.3      12 GLL5        0.0000 
     42 CA         27.3110    2.7220   18.6170 C.3       8 GLP5        0.0000 
     43 CA         24.5750   -6.4857   13.1647 C.3       4 GLC5        0.0000 
     44 CA         25.0110   -6.9870   15.1220 C.3      12 GLL5        0.0000 
     45 CA         24.8090   -5.7800   11.2510 C.3       8 GLP5        0.0000 
     46 CA         21.3998   -5.5243   14.6730 C.3       4 GLC5        0.0000 
     47 CA         19.9910   -5.0710   13.5230 C.3       8 GLP5        0.0000 
     48 CA         23.9181   -5.9560   18.0360 C.3       4 GLC5        0.0000 
     49 CA         22.9650   -5.3800   16.1480 C.3      12 GLL5        0.0000 
     50 CA         23.9080   -6.6830   19.8800 C.3       8 GLP5        0.0000 
     51 CA         26.3015   -1.9692   16.9621 C.3       4 GLC5        0.0000 
     52 CA         24.0960   -2.5200   16.1670 C.3      12 GLL5        0.0000 
     53 CA         28.1780   -1.7690   17.1900 C.3       8 GLP5        0.0000 
     54 CA         22.5115   -0.0838   16.4690 C.3       4 GLC5        0.0000 
     55 CA         24.4810   -1.2290   16.8820 C.3      12 GLL5        0.0000 
     56 CA         21.1220    0.8570   15.5830 C.3       8 GLP5        0.0000 
     57 CA         25.3940    1.8760   18.5442 C.3       4 GLC5        0.0000 
     58 CA         23.6480    0.3770   18.6740 C.3      12 GLL5        0.0000 
     59 CA         22.2995    0.9435   17.0272 C.3       4 GLC5        0.0000 
     60 CA         23.3060    1.6830   18.2690 C.3      12 GLL5        0.0000 
     61 CA         23.8442    2.9167   16.9853 C.3       4 GLC5        0.0000 
     62 CA         24.2440    3.6250   15.2740 C.3       8 GLP5        0.0000 
     63 CA         25.6127    2.6792   19.1722 C.3       4 GLC5        0.0000 
     64 CA         25.8957    1.7225   19.4627 C.3       4 GLC5        0.0000 
     65 CA         24.6350    1.2610   20.7350 C.3      12 GLL5        0.0000 
@<TRIPOS>BOND
@<TRIPOS>SUBSTRUCTURE
     1 SEC2        8 GROUP        1 X    SEC  0     ROOT SEC X 2
     2 LYC4       20 GROUP        1 X    LYC  0     **** LYC X 4
     3 ZIC7        1 GROUP        1 X    ZIC  0     **** ZIC X 5
     4 GLC5       11 GROUP        1 X    GLC  0     **** GLC X 6
     5 SEP2       10 GROUP        1 Y    SEP  0     ROOT SEP Y 9
     6 LYP4       22 GROUP        1 Y    LYP  0     **** LYP Y 11
     7 ZIP7        3 GROUP        1 Y    ZIP  0     **** ZIP Y 12
     8 GLP5       13 GROUP        1 Y    GLP  0     **** GLP Y 13
     9 SEL2        9 GROUP        1 Z    SEL  0     ROOT SEL Z 16
    10 LYL4       21 GROUP        1 Z    LYL  0     **** LYL Z 18
    11 ZIL7        2 GROUP        1 Z    ZIL  0     **** ZIL Z 19
    12 GLL5       12 GROUP        1 Z    GLL  0     **** GLL Z 20
@<TRIPOS>SET

