#    Name: 1jje_BYS_2_ligand
#    Modification time : Tue Mar 25 08:57:33 2014

@<TRIPOS>MOLECULE
1jje_BYS_2_ligand
   41    43     1     0     0
SMALL
NO_CHARGES


@<TRIPOS>ATOM
      1 C1         24.0960   -2.5200   16.1670 C.3       1 BYS250      0.0000 
      2 C2         24.7730   -2.6130   14.7980 C.2       1 BYS250      0.0000 
      3 O3         24.1080   -2.5840   13.7530 O.co2     1 BYS250      0.0000 
      4 O4         26.0130   -2.7600   14.7600 O.co2     1 BYS250      0.0000 
      5 C5         24.6420   -3.7000   17.0060 C.3       1 BYS250      0.0000 
      6 C6         24.3020   -5.0020   16.3040 C.ar      1 BYS250      0.0000 
      7 C7         25.3110   -5.8050   15.8170 C.ar      1 BYS250      0.0000 
      8 C8         25.0110   -6.9870   15.1220 C.ar      1 BYS250      0.0000 
      9 C9         23.6710   -7.3960   15.0350 C.ar      1 BYS250      0.0000 
     10 C10        22.6520   -6.5750   15.4980 C.ar      1 BYS250      0.0000 
     11 C11        22.9650   -5.3800   16.1480 C.ar      1 BYS250      0.0000 
     12 C12        24.4810   -1.2290   16.8820 C.3       1 BYS250      0.0000 
     13 C13        24.6620   -0.1200   15.8750 C.2       1 BYS250      0.0000 
     14 O14        23.9120   -0.0660   14.8860 O.co2     1 BYS250      0.0000 
     15 O15        25.5650    0.7130   16.1480 O.co2     1 BYS250      0.0000 
     16 C16        23.3210   -0.8200   17.8280 C.3       1 BYS250      0.0000 
     17 C17        23.6480    0.3770   18.6740 C.ar      1 BYS250      0.0000 
     18 C18        23.3060    1.6830   18.2690 C.ar      1 BYS250      0.0000 
     19 C19        23.5830    2.7340   19.1240 C.ar      1 BYS250      0.0000 
     20 O20        23.4720    4.0470   18.8850 O.3       1 BYS250      0.0000 
     21 C21        23.9390    4.7530   20.0620 C.3       1 BYS250      0.0000 
     22 O22        24.5160    3.7230   20.8930 O.3       1 BYS250      0.0000 
     23 C23        24.2460    2.5390   20.3310 C.ar      1 BYS250      0.0000 
     24 C24        24.6350    1.2610   20.7350 C.ar      1 BYS250      0.0000 
     25 C25        24.3260    0.1850   19.8820 C.ar      1 BYS250      0.0000 
     26 H          23.0612   -2.6111   16.0768 H         1 BYS250      0.0000 
     27 H          24.1812   -3.6756   17.9822 H         1 BYS250      0.0000 
     28 H          25.7132   -3.5974   17.0952 H         1 BYS250      0.0000 
     29 H          26.2998   -5.5444   15.9590 H         1 BYS250      0.0000 
     30 H          25.7482   -7.5351   14.6909 H         1 BYS250      0.0000 
     31 H          23.4492   -8.3139   14.6232 H         1 BYS250      0.0000 
     32 H          21.6701   -6.8427   15.3645 H         1 BYS250      0.0000 
     33 H          22.2169   -4.7802   16.5105 H         1 BYS250      0.0000 
     34 H          25.3548   -1.3662   17.4487 H         1 BYS250      0.0000 
     35 H          23.0850   -1.6804   18.4689 H         1 BYS250      0.0000 
     36 H          22.4354   -0.6142   17.2114 H         1 BYS250      0.0000 
     37 H          22.8658    1.8362   17.3659 H         1 BYS250      0.0000 
     38 H          23.1123    5.2330   20.5672 H         1 BYS250      0.0000 
     39 H          24.6847    5.4874   19.7908 H         1 BYS250      0.0000 
     40 H          25.1200    1.1083   21.6052 H         1 BYS250      0.0000 
     41 H          24.6096   -0.7720   20.1594 H         1 BYS250      0.0000 
@<TRIPOS>BOND
     1    2    1 1    
     2    5    1 1    
     3   12    1 1    
     4   26    1 1    
     5    3    2 ar   
     6    4    2 ar   
     7    6    5 1    
     8   27    5 1    
     9   28    5 1    
    10    7    6 ar   
    11   11    6 ar   
    12    8    7 ar   
    13   29    7 1    
    14    9    8 ar   
    15   30    8 1    
    16   10    9 ar   
    17   31    9 1    
    18   11   10 ar   
    19   32   10 1    
    20   33   11 1    
    21   13   12 1    
    22   16   12 1    
    23   34   12 1    
    24   14   13 ar   
    25   15   13 ar   
    26   17   16 1    
    27   35   16 1    
    28   36   16 1    
    29   18   17 ar   
    30   25   17 ar   
    31   19   18 ar   
    32   37   18 1    
    33   20   19 1    
    34   23   19 ar   
    35   21   20 1    
    36   22   21 1    
    37   38   21 1    
    38   39   21 1    
    39   23   22 1    
    40   24   23 ar   
    41   25   24 ar   
    42   40   24 1    
    43   41   25 1    
@<TRIPOS>SUBSTRUCTURE
     1 BYS250      1 GROUP   
@<TRIPOS>SET

