#    Name: 3i1f_GCP_1_INTS_M
#    Modification time : Tue Mar 25 15:27:43 2014

@<TRIPOS>MOLECULE
3i1f_GCP_1_INTS_M
   41     0    12     0     0
SMALL
NO_CHARGES


@<TRIPOS>ATOM
      1 NZ         31.5320  -50.3180   -4.7780 N.4       3 LYC4        0.0000 
      2 NZ         31.5310  -49.1210   -5.7040 N.4      11 LYL4        0.0000 
      3 NZ         31.5330  -51.5150   -3.8520 N.4       7 LYP4        0.0000 
      4 N          31.5320  -50.3180   -4.7780 N.am      2 SEC2        0.0000 
      5 N          31.5310  -49.1210   -5.7040 N.am     10 SEL2        0.0000 
      6 N          31.5330  -51.5150   -3.8520 N.am      6 SEP2        0.0000 
      7 CA         33.4715  -47.6820   -9.1140 C.3       4 GLC5        0.0000 
      8 CA         33.3860  -48.2100   -7.2240 C.3      12 GLL5        0.0000 
      9 CA         33.5570  -47.1540  -11.0040 C.3       8 GLP5        0.0000 
     10 CA         33.1910  -46.2270   -7.9255 C.3       4 GLC5        0.0000 
     11 CA         32.9960  -44.2440   -8.6270 C.3       8 GLP5        0.0000 
     12 NZ         36.8585  -46.1015   -6.6790 N.4       3 LYC4        0.0000 
     13 NZ         35.7420  -47.3270   -6.7630 N.4      11 LYL4        0.0000 
     14 NZ         37.9750  -44.8760   -6.5950 N.4       7 LYP4        0.0000 
     15 N          36.8585  -46.1015   -6.6790 N.am      2 SEC2        0.0000 
     16 N          35.7420  -47.3270   -6.7630 N.am     10 SEL2        0.0000 
     17 N          37.9750  -44.8760   -6.5950 N.am      6 SEP2        0.0000 
     18 CA         38.4220  -51.3345   -8.9155 C.3       4 GLC5        0.0000 
     19 CA         38.2090  -50.7580   -7.0460 C.3      12 GLL5        0.0000 
     20 CA         38.6350  -51.9110  -10.7850 C.3       8 GLP5        0.0000 
     21 CA         39.0935  -48.6485   -4.2875 C.3       4 GLC5        0.0000 
     22 CA         39.0840  -49.9880   -6.0660 C.3      12 GLL5        0.0000 
     23 CA         39.1030  -47.3090   -2.5090 C.3       8 GLP5        0.0000 
     24 CA         38.8055  -51.1265   -4.3300 C.3       4 GLC5        0.0000 
     25 CA         38.5270  -52.2650   -2.5940 C.3       8 GLP5        0.0000 
     26 CA         39.9945  -48.8415   -3.5830 C.3       4 GLC5        0.0000 
     27 CA         40.8860  -50.3740   -4.6570 C.3      12 GLL5        0.0000 
     28 CA         39.7065  -51.3195   -3.6255 C.3       4 GLC5        0.0000 
     29 CA         41.0480  -49.9610   -2.7785 C.3       4 GLC5        0.0000 
     30 CA         41.2100  -49.5480   -0.9000 C.3       8 GLP5        0.0000 
     31 CA         45.3015  -52.2305   -5.3505 C.3       4 GLC5        0.0000 
     32 CA         43.6330  -52.6920   -3.9250 C.3      12 GLL5        0.0000 
     33 CA         46.9700  -51.7690   -6.7760 C.3       8 GLP5        0.0000 
     34 O          46.6395  -49.4300   -2.7735 O.2       1 ALC1        0.0000 
     35 O          46.2570  -49.5890   -4.2370 O.2       9 ALL1        0.0000 
     36 O          47.0220  -49.2710   -1.3100 O.2       5 ALP1        0.0000 
     37 CA         43.9860  -49.5130   -3.3825 C.3       4 GLC5        0.0000 
     38 CA         43.1760  -51.4140   -4.2180 C.3      12 GLL5        0.0000 
     39 CA         44.7960  -47.6120   -2.5470 C.3       8 GLP5        0.0000 
     40 CA         42.8483  -51.9140   -2.2908 C.3       4 GLC5        0.0000 
     41 CA         42.2920  -51.7750   -0.5100 C.3       8 GLP5        0.0000 
@<TRIPOS>BOND
@<TRIPOS>SUBSTRUCTURE
     1 ALC1       34 GROUP        1 X    ALC  0     ROOT ALC X 1
     2 SEC2        4 GROUP        1 X    SEC  0     **** SEC X 2
     3 LYC4        1 GROUP        1 X    LYC  0     **** LYC X 4
     4 GLC5        7 GROUP        1 X    GLC  0     **** GLC X 6
     5 ALP1       36 GROUP        1 Y    ALP  0     ROOT ALP Y 8
     6 SEP2        6 GROUP        1 Y    SEP  0     **** SEP Y 9
     7 LYP4        3 GROUP        1 Y    LYP  0     **** LYP Y 11
     8 GLP5        9 GROUP        1 Y    GLP  0     **** GLP Y 13
     9 ALL1       35 GROUP        1 Z    ALL  0     ROOT ALL Z 15
    10 SEL2        5 GROUP        1 Z    SEL  0     **** SEL Z 16
    11 LYL4        2 GROUP        1 Z    LYL  0     **** LYL Z 18
    12 GLL5        8 GROUP        1 Z    GLL  0     **** GLL Z 20
@<TRIPOS>SET

