#    Name: 3i1f_GCP_1_ligand
#    Modification time : Tue Mar 25 15:27:43 2014

@<TRIPOS>MOLECULE
3i1f_GCP_1_ligand
   46    48     1     0     0
SMALL
NO_CHARGES


@<TRIPOS>ATOM
      1 PG         31.8300  -48.1290   -6.8010 P.3       1 GCP416      0.0000 
      2 O1G        31.5390  -46.7320   -6.3080 O.co2     1 GCP416      0.0000 
      3 O2G        30.9580  -48.4220   -7.9980 O.co2     1 GCP416      0.0000 
      4 O3G        31.5310  -49.1210   -5.7040 O.co2     1 GCP416      0.0000 
      5 C3B        33.3860  -48.2100   -7.2240 C.3       1 GCP416      0.0000 
      6 PB         34.5820  -48.0730   -6.1480 P.3       1 GCP416      0.0000 
      7 O1B        35.7420  -47.3270   -6.7630 O.co2     1 GCP416      0.0000 
      8 O2B        34.1010  -47.3800   -4.8940 O.co2     1 GCP416      0.0000 
      9 O3A        35.0430  -49.5830   -5.8250 O.3       1 GCP416      0.0000 
     10 PA         35.5830  -50.5600   -6.9880 P.3       1 GCP416      0.0000 
     11 O1A        35.6950  -51.9640   -6.4420 O.co2     1 GCP416      0.0000 
     12 O2A        34.6730  -50.5250   -8.1920 O.co2     1 GCP416      0.0000 
     13 O5'        37.0530  -50.0120   -7.3650 O.3       1 GCP416      0.0000 
     14 C5'        38.2090  -50.7580   -7.0460 C.3       1 GCP416      0.0000 
     15 C4'        39.0840  -49.9880   -6.0660 C.3       1 GCP416      0.0000 
     16 O4'        39.6430  -50.8720   -5.1170 O.3       1 GCP416      0.0000 
     17 C3'        40.2690  -49.3200   -6.7460 C.3       1 GCP416      0.0000 
     18 O3'        40.0010  -47.9570   -6.9840 O.3       1 GCP416      0.0000 
     19 C2'        41.4210  -49.4780   -5.7680 C.3       1 GCP416      0.0000 
     20 O2'        41.8020  -48.2230   -5.2510 O.3       1 GCP416      0.0000 
     21 C1'        40.8860  -50.3740   -4.6570 C.3       1 GCP416      0.0000 
     22 N9         41.8110  -51.4890   -4.3630 N.pl3     1 GCP416      0.0000 
     23 C8         41.4510  -52.7910   -4.1350 C.2       1 GCP416      0.0000 
     24 N7         42.5650  -53.5140   -3.8820 N.2       1 GCP416      0.0000 
     25 C5         43.6330  -52.6920   -3.9250 C.2       1 GCP416      0.0000 
     26 C6         44.9890  -52.9190   -3.7350 C.2       1 GCP416      0.0000 
     27 O6         45.4010  -54.0480   -3.4750 O.2       1 GCP416      0.0000 
     28 N1         45.8720  -51.8670   -3.8410 N.am      1 GCP416      0.0000 
     29 C2         45.4040  -50.6030   -4.1340 C.2       1 GCP416      0.0000 
     30 N2         46.2570  -49.5890   -4.2370 N.pl3     1 GCP416      0.0000 
     31 N3         44.0530  -50.3870   -4.3200 N.2       1 GCP416      0.0000 
     32 C4         43.1760  -51.4140   -4.2180 C.2       1 GCP416      0.0000 
     33 H          33.5578  -47.4298   -8.0149 H         1 GCP416      0.0000 
     34 H          33.5343  -49.1840   -7.7654 H         1 GCP416      0.0000 
     35 H          38.8193  -50.9744   -7.9369 H         1 GCP416      0.0000 
     36 H          37.9607  -51.7249   -6.5807 H         1 GCP416      0.0000 
     37 H          38.4982  -49.2268   -5.5867 H         1 GCP416      0.0000 
     38 H          40.5010  -49.8708   -7.6273 H         1 GCP416      0.0000 
     39 H          42.2109  -49.9938   -6.2609 H         1 GCP416      0.0000 
     40 H          40.7508  -49.7615   -3.7807 H         1 GCP416      0.0000 
     41 H          40.5476  -53.1266   -4.1542 H         1 GCP416      0.0000 
     42 H          46.8822  -52.0235   -3.7016 H         1 GCP416      0.0000 
     43 H          46.8407  -49.4225   -3.4423 H         1 GCP416      0.0000 
     44 H          46.2381  -49.0841   -5.0999 H         1 GCP416      0.0000 
     45 H          40.6284  -47.6941   -7.7170 H         1 GCP416      0.0000 
     46 H          41.2203  -47.5611   -5.7237 H         1 GCP416      0.0000 
@<TRIPOS>BOND
     1    2    1 ar   
     2    3    1 ar   
     3    4    1 ar   
     4    5    1 1    
     5    6    5 1    
     6   33    5 1    
     7   34    5 1    
     8    7    6 ar   
     9    8    6 ar   
    10    9    6 1    
    11   10    9 1    
    12   11   10 ar   
    13   12   10 ar   
    14   13   10 1    
    15   14   13 1    
    16   15   14 1    
    17   35   14 1    
    18   36   14 1    
    19   16   15 1    
    20   17   15 1    
    21   37   15 1    
    22   21   16 1    
    23   18   17 1    
    24   19   17 1    
    25   38   17 1    
    26   45   18 1    
    27   20   19 1    
    28   21   19 1    
    29   39   19 1    
    30   46   20 1    
    31   22   21 1    
    32   40   21 1    
    33   23   22 1    
    34   32   22 1    
    35   24   23 2    
    36   41   23 1    
    37   25   24 1    
    38   26   25 1    
    39   32   25 2    
    40   27   26 2    
    41   28   26 am   
    42   29   28 1    
    43   42   28 1    
    44   30   29 1    
    45   31   29 2    
    46   43   30 1    
    47   44   30 1    
    48   32   31 1    
@<TRIPOS>SUBSTRUCTURE
     1 GCP416      1 GROUP   
@<TRIPOS>SET

