#    Name: 3MF5_1_CAVITY_N1_ALL.mol2
#    Modification time : Tue Mar 11 13:31:41 2014

@<TRIPOS>MOLECULE
3MF5_1_CAVITY_N1_ALL.mol2
   65     0     5     0     0
SMALL
NO_CHARGES


@<TRIPOS>ATOM
      1 DU         80.1150   35.9790  -13.9897 H         5 CUB7        0.0000 
      2 OD1        79.3588   37.1267  -14.5907 O.3       2 ASP3        0.0000 
      3 O          78.8252   35.2474  -13.7639 O.2       1 ALA2        0.0000 
      4 O          78.0690   36.3950  -14.3649 O.2       1 ALA2        0.0000 
      5 N          77.3127   37.5426  -14.9658 N.2       1 ALA2        0.0000 
      6 N          80.4078   39.1195  -12.1051 N.2       1 ALA2        0.0000 
      7 CA         79.6516   40.2671  -12.7060 C.3       4 GLY6        0.0000 
      8 CA         79.8742   37.2402  -11.2784 C.3       4 GLY6        0.0000 
      9 CA         79.1180   38.3878  -11.8793 C.3       4 GLY6        0.0000 
     10 O          80.0969   34.2133   -9.8507 O.2       1 ALA2        0.0000 
     11 CA         79.3406   35.3609  -10.4516 C.3       4 GLY6        0.0000 
     12 DU         78.5844   36.5085  -11.0525 H         5 CUB7        0.0000 
     13 CA         77.8282   37.6561  -11.6535 C.3       4 GLY6        0.0000 
     14 O          79.5633   32.3340   -9.0239 O.2       1 ALA2        0.0000 
     15 CZ         78.8070   33.4816   -9.6249 C.ar      3 PHE5        0.0000 
     16 CA         78.0508   34.6292  -10.2258 C.3       4 GLY6        0.0000 
     17 DU         77.2946   35.7768  -10.8267 H         5 CUB7        0.0000 
     18 CZ         76.5384   36.9244  -11.4277 C.ar      3 PHE5        0.0000 
     19 CA         78.2734   31.6023   -8.7981 C.3       4 GLY6        0.0000 
     20 CA         77.5172   32.7499   -9.3991 C.3       4 GLY6        0.0000 
     21 CA         76.7610   33.8975  -10.0000 C.3       4 GLY6        0.0000 
     22 CA         76.0048   35.0451  -10.6009 C.3       4 GLY6        0.0000 
     23 CA         75.2486   36.1927  -11.2019 C.3       4 GLY6        0.0000 
     24 CZ         74.4923   37.3403  -11.8028 C.ar      3 PHE5        0.0000 
     25 CA         75.4712   33.1658   -9.7742 C.3       4 GLY6        0.0000 
     26 CA         74.7150   34.3134  -10.3751 C.3       4 GLY6        0.0000 
     27 N          78.9976   39.0184  -10.5236 N.2       1 ALA2        0.0000 
     28 CZ         79.2203   35.9915   -9.0959 C.ar      3 PHE5        0.0000 
     29 N          78.4640   37.1391   -9.6969 N.2       1 ALA2        0.0000 
     30 CA         77.7078   38.2867  -10.2978 C.3       4 GLY6        0.0000 
     31 CZ         79.4429   32.9646   -7.6682 C.ar      3 PHE5        0.0000 
     32 CZ         78.6867   34.1122   -8.2692 C.ar      3 PHE5        0.0000 
     33 CA         77.9304   35.2598   -8.8701 C.3       4 GLY6        0.0000 
     34 CA         77.1742   36.4074   -9.4711 C.3       4 GLY6        0.0000 
     35 CZ         76.4180   37.5550  -10.0720 C.ar      3 PHE5        0.0000 
     36 CA         78.1531   32.2329   -7.4424 C.3       4 GLY6        0.0000 
     37 CA         77.3968   33.3805   -8.0434 C.3       4 GLY6        0.0000 
     38 CA         75.1282   36.8233   -9.8462 C.3       4 GLY6        0.0000 
     39 CZ         74.3720   37.9709  -10.4471 C.ar      3 PHE5        0.0000 
     40 CA         74.5946   34.9440   -9.0195 C.3       4 GLY6        0.0000 
     41 CA         73.8384   36.0916   -9.6204 C.3       4 GLY6        0.0000 
     42 OD1        80.6486   37.8583  -14.8165 O.3       2 ASP3        0.0000 
     43 CZ         78.3437   37.7697   -8.3412 C.ar      3 PHE5        0.0000 
     44 O          77.5874   38.9173   -8.9421 O.2       1 ALA2        0.0000 
     45 CA         76.2976   38.1856   -8.7163 C.3       4 GLY6        0.0000 
     46 CZ         75.5414   39.3332   -9.3173 C.ar      3 PHE5        0.0000 
     47 CA         75.0078   37.4539   -8.4905 C.3       4 GLY6        0.0000 
     48 CA         74.2516   38.6015   -9.0915 C.3       4 GLY6        0.0000 
     49 CA         81.2844   37.3413  -12.8598 C.3       4 GLY6        0.0000 
     50 OD1        80.5282   38.4889  -13.4608 O.3       2 ASP3        0.0000 
     51 CA         80.7508   35.4620  -12.0331 C.3       4 GLY6        0.0000 
     52 CA         79.9946   36.6096  -12.6340 C.3       4 GLY6        0.0000 
     53 N          79.2384   37.7572  -13.2350 N.2       1 ALA2        0.0000 
     54 O          80.9735   32.4351  -10.6054 O.2       1 ALA2        0.0000 
     55 O          80.2172   33.5827  -11.2063 O.2       1 ALA2        0.0000 
     56 CA         79.4610   34.7303  -11.8073 C.3       4 GLY6        0.0000 
     57 DU         78.7048   35.8779  -12.4082 H         5 CUB7        0.0000 
     58 N          77.9486   37.0255  -13.0092 N.2       1 ALA2        0.0000 
     59 DU         78.9274   32.8510  -10.9805 H         5 CUB7        0.0000 
     60 DU         78.1712   33.9986  -11.5815 H         5 CUB7        0.0000 
     61 O          77.4150   35.1462  -12.1824 O.2       1 ALA2        0.0000 
     62 O          76.6588   36.2938  -12.7834 O.2       1 ALA2        0.0000 
     63 O          75.9025   37.4415  -13.3843 O.2       1 ALA2        0.0000 
     64 CA         76.8814   33.2669  -11.3557 C.3       4 GLY6        0.0000 
     65 O          76.1252   34.4145  -11.9566 O.2       1 ALA2        0.0000 
@<TRIPOS>BOND
@<TRIPOS>SUBSTRUCTURE
     1 ALA2        3 GROUP   
     2 ASP3        2 GROUP   
     3 PHE5       15 GROUP   
     4 GLY6        7 GROUP   
     5 CUB7        1 GROUP   
@<TRIPOS>SET

