#    Name: 3mf5_HJZ_1_INTS_M
#    Modification time : Mon Mar 24 23:10:56 2014

@<TRIPOS>MOLECULE
3mf5_HJZ_1_INTS_M
   58     0     6     0     0
SMALL
NO_CHARGES


@<TRIPOS>ATOM
      1 CA         77.9775   30.7620   -6.9270 C.3       2 GLC5        0.0000 
      2 CA         77.4740   31.8080   -8.2860 C.3       6 GLL5        0.0000 
      3 CA         78.4810   29.7160   -5.5680 C.3       4 GLP5        0.0000 
      4 N          81.4150   32.4815   -7.6220 N.am      1 SEC2        0.0000 
      5 N          80.3440   32.2960   -8.4880 N.am      5 SEL2        0.0000 
      6 N          82.4860   32.6670   -6.7560 N.am      3 SEP2        0.0000 
      7 N          81.8440   33.6275   -9.7615 N.am      1 SEC2        0.0000 
      8 N          80.5080   33.3050  -10.2320 N.am      5 SEL2        0.0000 
      9 N          83.1800   33.9500   -9.2910 N.am      3 SEP2        0.0000 
     10 CA         74.8580   33.7985   -7.7050 C.3       2 GLC5        0.0000 
     11 CA         73.6180   32.3910   -8.5960 C.3       6 GLL5        0.0000 
     12 CA         76.0980   35.2060   -6.8140 C.3       4 GLP5        0.0000 
     13 CA         72.4905   33.9820   -8.4515 C.3       2 GLC5        0.0000 
     14 CA         71.3630   35.5730   -8.3070 C.3       4 GLP5        0.0000 
     15 CA         72.4490   31.8620   -4.9525 C.3       2 GLC5        0.0000 
     16 CA         72.4180   30.8830   -6.9710 C.3       6 GLL5        0.0000 
     17 CA         72.4800   32.8410   -2.9340 C.3       4 GLP5        0.0000 
     18 CA         70.5390   31.6455   -6.0365 C.3       2 GLC5        0.0000 
     19 CA         68.6600   32.4080   -5.1020 C.3       4 GLP5        0.0000 
     20 CA         77.5930   39.6595  -10.5760 C.3       2 GLC5        0.0000 
     21 CA         77.6860   37.9500   -9.3230 C.3       6 GLL5        0.0000 
     22 CA         77.5000   41.3690  -11.8290 C.3       4 GLP5        0.0000 
     23 CA         73.6850   37.7315   -8.7625 C.3       2 GLC5        0.0000 
     24 CA         75.2460   37.2660  -10.0810 C.3       6 GLL5        0.0000 
     25 CA         72.1240   38.1970   -7.4440 C.3       4 GLP5        0.0000 
     26 CA         75.5435   40.5550   -7.2735 C.3       2 GLC5        0.0000 
     27 CA         75.6650   39.3010   -8.5220 C.3       6 GLL5        0.0000 
     28 CA         75.4220   41.8090   -6.0250 C.3       4 GLP5        0.0000 
     29 CA         73.8945   38.7490   -7.9830 C.3       2 GLC5        0.0000 
     30 CA         75.2855   40.2300   -9.9490 C.3       2 GLC5        0.0000 
     31 CA         74.9060   41.1590  -11.3760 C.3       4 GLP5        0.0000 
     32 CA         74.6925   32.4985  -11.1125 C.3       2 GLC5        0.0000 
     33 CA         75.9660   32.0190   -9.0730 C.3       6 GLL5        0.0000 
     34 CA         73.3250   32.6490  -12.5650 C.3       4 GLP5        0.0000 
     35 CA         72.0385   32.5580   -9.8543 C.3       2 GLC5        0.0000 
     36 CA         71.0500   32.9080  -11.4680 C.3       4 GLP5        0.0000 
     37 CA         71.6905   33.2580   -7.0580 C.3       2 GLC5        0.0000 
     38 CA         72.4360   32.0250   -7.8850 C.3       6 GLL5        0.0000 
     39 CA         70.9540   35.0620   -6.6880 C.3       4 GLP5        0.0000 
     40 CA         72.3187   28.9973   -5.6547 C.3       2 GLC5        0.0000 
     41 CA         71.6400   27.5110   -4.4630 C.3       4 GLP5        0.0000 
     42 CA         74.9530   31.9786   -6.1899 C.3       2 GLC5        0.0000 
     43 CA         73.5770   30.0840   -6.7220 C.3       6 GLL5        0.0000 
     44 CA         75.7240   33.4180   -5.0690 C.3       4 GLP5        0.0000 
     45 CA         75.3935   29.1175   -6.4765 C.3       2 GLC5        0.0000 
     46 CA         74.7710   30.4180   -7.4260 C.3       6 GLL5        0.0000 
     47 CA         76.6130   27.9840   -5.8790 C.3       4 GLP5        0.0000 
     48 CA         78.8995   36.9770   -8.1775 C.3       2 GLC5        0.0000 
     49 CA         79.8060   36.4250   -6.4460 C.3       4 GLP5        0.0000 
     50 CA         76.0194   35.9484   -8.6625 C.3       2 GLC5        0.0000 
     51 CA         74.0757   35.8648  -11.2195 C.3       2 GLC5        0.0000 
     52 CA         72.5850   34.9450  -11.8310 C.3       4 GLP5        0.0000 
     53 CA         75.1349   38.5475  -11.2921 C.3       2 GLC5        0.0000 
     54 CA         75.8870   36.3030  -11.1350 C.3       6 GLL5        0.0000 
     55 CA         74.4510   40.0260  -12.0880 C.3       4 GLP5        0.0000 
     56 CA         76.2079   36.9725   -7.9071 C.3       2 GLC5        0.0000 
     57 CA         76.6275   33.8742   -8.2789 C.3       2 GLC5        0.0000 
     58 CA         76.1540   32.6770  -10.2470 C.3       6 GLL5        0.0000 
@<TRIPOS>BOND
@<TRIPOS>SUBSTRUCTURE
     1 SEC2        4 GROUP        1 X    SEC  0     ROOT SEC X 2
     2 GLC5        1 GROUP        1 X    GLC  0     **** GLC X 6
     3 SEP2        6 GROUP        1 Y    SEP  0     ROOT SEP Y 9
     4 GLP5        3 GROUP        1 Y    GLP  0     **** GLP Y 13
     5 SEL2        5 GROUP        1 Z    SEL  0     ROOT SEL Z 16
     6 GLL5        2 GROUP        1 Z    GLL  0     **** GLL Z 20
@<TRIPOS>SET

