#    Name: 3mf5_HJZ_1_ligand
#    Modification time : Mon Mar 24 23:10:56 2014

@<TRIPOS>MOLECULE
3mf5_HJZ_1_ligand
   50    53     1     0     0
SMALL
NO_CHARGES


@<TRIPOS>ATOM
      1 S1         77.4740   31.8080   -8.2860 S.3       1 HJZ571      0.0000 
      2 C2         75.9660   32.0190   -9.0730 C.2       1 HJZ571      0.0000 
      3 C3         76.1540   32.6770  -10.2470 C.2       1 HJZ571      0.0000 
      4 C4         77.4250   32.9780  -10.4910 C.2       1 HJZ571      0.0000 
      5 C5         78.3290   32.6010   -9.5580 C.2       1 HJZ571      0.0000 
      6 C6         74.8030   31.5710   -8.3730 C.ar      1 HJZ571      0.0000 
      7 C7         79.7530   32.7670   -9.4860 C.2       1 HJZ571      0.0000 
      8 C8         77.7580   33.6670  -11.7390 C.ar      1 HJZ571      0.0000 
      9 O9         80.3440   32.2960   -8.4880 O.co2     1 HJZ571      0.0000 
     10 O10        80.5080   33.3050  -10.2320 O.co2     1 HJZ571      0.0000 
     11 C11        77.7570   35.0380  -11.9170 C.ar      1 HJZ571      0.0000 
     12 C12        78.4340   34.7500  -14.3400 C.ar      1 HJZ571      0.0000 
     13 C13        78.4260   33.3160  -14.1450 C.ar      1 HJZ571      0.0000 
     14 C14        78.0830   35.6180  -13.2300 C.ar      1 HJZ571      0.0000 
     15 C15        78.0900   32.7610  -12.8580 C.ar      1 HJZ571      0.0000 
     16 C16        73.6180   32.3910   -8.5960 C.ar      1 HJZ571      0.0000 
     17 C17        72.4180   30.8830   -6.9710 C.ar      1 HJZ571      0.0000 
     18 C18        73.5770   30.0840   -6.7220 C.ar      1 HJZ571      0.0000 
     19 C19        72.4360   32.0250   -7.8850 C.ar      1 HJZ571      0.0000 
     20 C20        74.7710   30.4180   -7.4260 C.ar      1 HJZ571      0.0000 
     21 C21        77.3840   35.9280  -10.7470 C.3       1 HJZ571      0.0000 
     22 C22        78.3000   37.1080  -10.4950 C.3       1 HJZ571      0.0000 
     23 C23        77.6860   37.9500   -9.3230 C.3       1 HJZ571      0.0000 
     24 C24        76.2550   38.4040   -9.6340 C.3       1 HJZ571      0.0000 
     25 C25        75.2460   37.2660  -10.0810 C.3       1 HJZ571      0.0000 
     26 C26        75.8870   36.3030  -11.1350 C.3       1 HJZ571      0.0000 
     27 C27        75.6650   39.3010   -8.5220 C.3       1 HJZ571      0.0000 
     28 H          75.3957   32.9062  -10.8597 H         1 HJZ571      0.0000 
     29 H          78.6787   35.1417  -15.2301 H         1 HJZ571      0.0000 
     30 H          78.6574   32.7032  -14.9163 H         1 HJZ571      0.0000 
     31 H          78.0602   36.6150  -13.3494 H         1 HJZ571      0.0000 
     32 H          78.0771   31.7707  -12.7070 H         1 HJZ571      0.0000 
     33 H          73.6471   33.1621   -9.2143 H         1 HJZ571      0.0000 
     34 H          71.5344   30.6585   -6.4980 H         1 HJZ571      0.0000 
     35 H          73.5496   29.3211   -6.0789 H         1 HJZ571      0.0000 
     36 H          71.5765   32.5622   -8.0065 H         1 HJZ571      0.0000 
     37 H          75.6218   29.8846   -7.3018 H         1 HJZ571      0.0000 
     38 H          77.2969   35.2909   -9.8712 H         1 HJZ571      0.0000 
     39 H          78.3563   37.7326  -11.3660 H         1 HJZ571      0.0000 
     40 H          79.2735   36.7704  -10.1943 H         1 HJZ571      0.0000 
     41 H          78.3191   38.8201   -9.1596 H         1 HJZ571      0.0000 
     42 H          77.6885   37.3364   -8.4240 H         1 HJZ571      0.0000 
     43 H          76.3341   39.0904  -10.5465 H         1 HJZ571      0.0000 
     44 H          74.3713   37.7353  -10.5131 H         1 HJZ571      0.0000 
     45 H          74.9628   36.6969   -9.2047 H         1 HJZ571      0.0000 
     46 H          75.3104   35.3903  -11.1827 H         1 HJZ571      0.0000 
     47 H          75.8983   36.7869  -12.1012 H         1 HJZ571      0.0000 
     48 H          75.6345   38.8288   -7.6410 H         1 HJZ571      0.0000 
     49 H          76.2045   40.1326   -8.3903 H         1 HJZ571      0.0000 
     50 H          74.7307   39.5882   -8.7331 H         1 HJZ571      0.0000 
@<TRIPOS>BOND
     1    2    1 1    
     2    5    1 1    
     3    3    2 2    
     4    6    2 1    
     5    4    3 1    
     6   28    3 1    
     7    5    4 2    
     8    8    4 1    
     9    7    5 1    
    10   16    6 ar   
    11   20    6 ar   
    12    9    7 ar   
    13   10    7 ar   
    14   11    8 ar   
    15   15    8 ar   
    16   14   11 ar   
    17   21   11 1    
    18   13   12 ar   
    19   14   12 ar   
    20   29   12 1    
    21   15   13 ar   
    22   30   13 1    
    23   31   14 1    
    24   32   15 1    
    25   19   16 ar   
    26   33   16 1    
    27   18   17 ar   
    28   19   17 ar   
    29   34   17 1    
    30   20   18 ar   
    31   35   18 1    
    32   36   19 1    
    33   37   20 1    
    34   22   21 1    
    35   26   21 1    
    36   38   21 1    
    37   23   22 1    
    38   39   22 1    
    39   40   22 1    
    40   24   23 1    
    41   41   23 1    
    42   42   23 1    
    43   25   24 1    
    44   27   24 1    
    45   43   24 1    
    46   26   25 1    
    47   44   25 1    
    48   45   25 1    
    49   46   26 1    
    50   47   26 1    
    51   48   27 1    
    52   49   27 1    
    53   50   27 1    
@<TRIPOS>SUBSTRUCTURE
     1 HJZ571      1 GROUP   
@<TRIPOS>SET

