#    Name: 2w09_CM9_1_INTS_M
#    Modification time : Tue Mar 25 03:26:12 2014

@<TRIPOS>MOLECULE
2w09_CM9_1_INTS_M
   58     0     6     0     0
SMALL
NO_CHARGES


@<TRIPOS>ATOM
      1 CA        -19.1010    1.3770   72.0700 C.3       2 GLC5        0.0000 
      2 CA        -19.9850   -0.1870   71.5500 C.3       6 GLL5        0.0000 
      3 CA        -18.2170    2.9410   72.5900 C.3       4 GLP5        0.0000 
      4 CA        -20.8210    1.6170   70.5470 C.3       2 GLC5        0.0000 
      5 CA        -21.6570    3.4210   69.5440 C.3       4 GLP5        0.0000 
      6 CA        -21.8055   -4.5580   72.9860 C.3       2 GLC5        0.0000 
      7 CA        -22.8040   -2.8020   72.1430 C.3       6 GLL5        0.0000 
      8 CA        -20.8070   -6.3140   73.8290 C.3       4 GLP5        0.0000 
      9 CA        -23.1665   -2.9570   73.9640 C.3       2 GLC5        0.0000 
     10 CA        -23.5290   -3.1120   75.7850 C.3       4 GLP5        0.0000 
     11 CA        -20.6855   -4.7125   72.4545 C.3       2 GLC5        0.0000 
     12 CA        -20.5640   -3.1110   71.0800 C.3       6 GLL5        0.0000 
     13 CA        -16.6690    1.7255   69.6460 C.3       2 GLC5        0.0000 
     14 CA        -15.7970   -0.2620   69.2780 C.3       6 GLL5        0.0000 
     15 CA        -17.5410    3.7130   70.0140 C.3       4 GLP5        0.0000 
     16 CA        -15.5625    1.4035   68.2270 C.3       2 GLC5        0.0000 
     17 CA        -15.3280    3.0690   67.1760 C.3       4 GLP5        0.0000 
     18 CA        -15.6190    2.2340   71.3270 C.3       2 GLC5        0.0000 
     19 CA        -14.3990    0.8890   71.0000 C.3       6 GLL5        0.0000 
     20 CA        -16.8390    3.5790   71.6540 C.3       4 GLP5        0.0000 
     21 CA        -14.8635    1.9790   69.0880 C.3       2 GLC5        0.0000 
     22 CA        -12.7285    3.2345   71.6940 C.3       2 GLC5        0.0000 
     23 CA        -12.8370    1.0090   71.8330 C.3       6 GLL5        0.0000 
     24 CA        -12.6200    5.4600   71.5550 C.3       4 GLP5        0.0000 
     25 CA        -11.5070    1.3905   72.7875 C.3       2 GLC5        0.0000 
     26 CA        -10.1770    1.7720   73.7420 C.3       4 GLP5        0.0000 
     27 CA        -14.5740   -1.2305   73.6035 C.3       2 GLC5        0.0000 
     28 CA        -13.0510   -0.1820   73.1180 C.3       6 GLL5        0.0000 
     29 CA        -16.0970   -2.2790   74.0890 C.3       4 GLP5        0.0000 
     30 CA        -13.9340    1.0670   74.1225 C.3       2 GLC5        0.0000 
     31 CA        -14.8170    2.3160   75.1270 C.3       4 GLP5        0.0000 
     32 CA        -11.9845   -0.5145   74.3290 C.3       2 GLC5        0.0000 
     33 CA        -10.9180   -0.8470   75.5400 C.3       4 GLP5        0.0000 
     34 N         -13.8400   -0.3115   66.4525 N.am      1 SEC2        0.0000 
     35 N         -15.1960   -0.5360   66.9720 N.am      5 SEL2        0.0000 
     36 N         -12.4840   -0.0870   65.9330 N.am      3 SEP2        0.0000 
     37 CA        -16.7125   -2.0240   64.7685 C.3       2 GLC5        0.0000 
     38 CA        -15.8330   -3.1710   65.7450 C.3       6 GLL5        0.0000 
     39 CA        -17.5920   -0.8770   63.7920 C.3       4 GLP5        0.0000 
     40 CA        -17.4315   -3.0060   64.3620 C.3       2 GLC5        0.0000 
     41 CA        -16.1010   -4.1950   64.8150 C.3       6 GLL5        0.0000 
     42 CA        -18.7620   -1.8170   63.9090 C.3       4 GLP5        0.0000 
     43 CA        -19.8350   -0.3412   73.5097 C.3       2 GLC5        0.0000 
     44 CA        -19.0900   -0.1340   75.1530 C.3       4 GLP5        0.0000 
     45 CA        -19.2918   -2.7092   72.9600 C.3       2 GLC5        0.0000 
     46 CA        -19.2030   -2.4600   70.8460 C.3       6 GLL5        0.0000 
     47 CA        -18.7000   -2.6330   74.9570 C.3       4 GLP5        0.0000 
     48 CA        -14.2175    1.6325   73.2717 C.3       2 GLC5        0.0000 
     49 CA        -12.6215    2.0130   70.1517 C.3       2 GLC5        0.0000 
     50 CA        -11.6250    3.0770   68.8870 C.3       4 GLP5        0.0000 
     51 CA        -14.2885   -3.4450   64.4835 C.3       2 GLC5        0.0000 
     52 CA        -12.6100   -3.2070   63.6870 C.3       4 GLP5        0.0000 
     53 CA        -14.9880   -4.6945   66.6711 C.3       2 GLC5        0.0000 
     54 CA        -13.8630   -5.6950   67.7450 C.3       4 GLP5        0.0000 
     55 CA        -17.9641   -3.1532   65.3324 C.3       2 GLC5        0.0000 
     56 CA        -16.4170   -3.2150   67.0140 C.3       6 GLL5        0.0000 
     57 CA        -15.6197   -5.2228   67.2873 C.3       2 GLC5        0.0000 
     58 CA        -17.4950   -5.2420   66.3500 C.3       6 GLL5        0.0000 
@<TRIPOS>BOND
@<TRIPOS>SUBSTRUCTURE
     1 SEC2       34 GROUP        1 X    SEC  0     ROOT SEC X 2
     2 GLC5        1 GROUP        1 X    GLC  0     **** GLC X 6
     3 SEP2       36 GROUP        1 Y    SEP  0     ROOT SEP Y 9
     4 GLP5        3 GROUP        1 Y    GLP  0     **** GLP Y 13
     5 SEL2       35 GROUP        1 Z    SEL  0     ROOT SEL Z 16
     6 GLL5        2 GROUP        1 Z    GLL  0     **** GLL Z 20
@<TRIPOS>SET

