#    Name: 2w09_CM9_1_ligand
#    Modification time : Tue Mar 25 03:26:12 2014

@<TRIPOS>MOLECULE
2w09_CM9_1_ligand
   52    53     1     0     0
SMALL
NO_CHARGES


@<TRIPOS>ATOM
      1 O1        -18.3850    0.3360   68.8500 O.2       1 CM91451     0.0000 
      2 C8        -18.1670   -0.4470   69.7440 C.2       1 CM91451     0.0000 
      3 C9        -19.3930   -1.0120   70.4180 C.3       1 CM91451     0.0000 
      4 C10       -19.9850   -0.1870   71.5500 C.3       1 CM91451     0.0000 
      5 C11       -21.1750   -0.9100   72.1830 C.3       1 CM91451     0.0000 
      6 C12       -21.6820   -2.1080   71.3810 C.3       1 CM91451     0.0000 
      7 C13       -22.8040   -2.8020   72.1430 C.3       1 CM91451     0.0000 
      8 C14       -20.5640   -3.1110   71.0800 C.3       1 CM91451     0.0000 
      9 C15       -19.2030   -2.4600   70.8460 C.3       1 CM91451     0.0000 
     10 N3        -16.9130   -0.8220   70.0600 N.am      1 CM91451     0.0000 
     11 C7        -15.7970   -0.2620   69.2780 C.3       1 CM91451     0.0000 
     12 C16       -14.4890   -0.3220   70.0680 C.3       1 CM91451     0.0000 
     13 C17       -14.3990    0.8890   71.0000 C.3       1 CM91451     0.0000 
     14 S         -12.8370    1.0090   71.8330 S.3       1 CM91451     0.0000 
     15 C18       -13.0510   -0.1820   73.1180 C.3       1 CM91451     0.0000 
     16 C6        -15.7100   -1.0290   67.9660 C.2       1 CM91451     0.0000 
     17 O2        -15.1960   -0.5360   66.9720 O.2       1 CM91451     0.0000 
     18 N2        -16.2610   -2.2480   68.0230 N.am      1 CM91451     0.0000 
     19 C5        -16.4170   -3.2150   67.0140 C.ar      1 CM91451     0.0000 
     20 C1        -15.8330   -3.1710   65.7450 C.ar      1 CM91451     0.0000 
     21 C2        -16.1010   -4.1950   64.8150 C.ar      1 CM91451     0.0000 
     22 N1        -16.9380   -5.1870   65.1290 N.pl3     1 CM91451     0.0000 
     23 C3        -17.4950   -5.2420   66.3500 C.ar      1 CM91451     0.0000 
     24 C4        -17.2580   -4.2590   67.3090 C.ar      1 CM91451     0.0000 
     25 H         -20.2071   -1.0566   69.6146 H         1 CM91451     0.0000 
     26 H         -20.3172    0.7751   71.1627 H         1 CM91451     0.0000 
     27 H         -19.2249   -0.0171   72.3113 H         1 CM91451     0.0000 
     28 H         -22.0018   -0.1905   72.3119 H         1 CM91451     0.0000 
     29 H         -20.8888   -1.2512   73.1928 H         1 CM91451     0.0000 
     30 H         -22.0845   -1.7493   70.4401 H         1 CM91451     0.0000 
     31 H         -20.8407   -3.6950   70.1889 H         1 CM91451     0.0000 
     32 H         -20.4845   -3.8175   71.9204 H         1 CM91451     0.0000 
     33 H         -18.6269   -2.4934   71.7646 H         1 CM91451     0.0000 
     34 H         -18.6756   -3.0014   70.0677 H         1 CM91451     0.0000 
     35 H         -16.6820   -1.4676   70.8041 H         1 CM91451     0.0000 
     36 H         -16.0120    0.7775   69.0443 H         1 CM91451     0.0000 
     37 H         -13.6527   -0.3083   69.3806 H         1 CM91451     0.0000 
     38 H         -14.4658   -1.2302   70.6569 H         1 CM91451     0.0000 
     39 H         -15.1081    0.8471   71.8087 H         1 CM91451     0.0000 
     40 H         -14.4722    1.8260   70.4754 H         1 CM91451     0.0000 
     41 H         -16.6613   -2.5644   69.0026 H         1 CM91451     0.0000 
     42 H         -15.2124   -2.4002   65.4873 H         1 CM91451     0.0000 
     43 H         -15.6304   -4.1486   63.8924 H         1 CM91451     0.0000 
     44 H         -17.1633   -5.9268   64.4229 H         1 CM91451     0.0000 
     45 H         -18.1277   -6.0362   66.6095 H         1 CM91451     0.0000 
     46 H         -17.7140   -4.3238   68.2274 H         1 CM91451     0.0000 
     47 H         -22.4964   -3.1367   73.0337 H         1 CM91451     0.0000 
     48 H         -23.5745   -2.1871   72.3111 H         1 CM91451     0.0000 
     49 H         -23.1617   -3.5897   71.6415 H         1 CM91451     0.0000 
     50 H         -13.0500   -1.1165   72.7621 H         1 CM91451     0.0000 
     51 H         -12.3219   -0.1273   73.8002 H         1 CM91451     0.0000 
     52 H         -13.9162   -0.0539   73.6028 H         1 CM91451     0.0000 
@<TRIPOS>BOND
     1    2    1 2    
     2    3    2 1    
     3   10    2 am   
     4    4    3 1    
     5    9    3 1    
     6   25    3 1    
     7    5    4 1    
     8   26    4 1    
     9   27    4 1    
    10    6    5 1    
    11   28    5 1    
    12   29    5 1    
    13    7    6 1    
    14    8    6 1    
    15   30    6 1    
    16   47    7 1    
    17   48    7 1    
    18   49    7 1    
    19    9    8 1    
    20   31    8 1    
    21   32    8 1    
    22   33    9 1    
    23   34    9 1    
    24   11   10 1    
    25   35   10 1    
    26   12   11 1    
    27   16   11 1    
    28   36   11 1    
    29   13   12 1    
    30   37   12 1    
    31   38   12 1    
    32   14   13 1    
    33   39   13 1    
    34   40   13 1    
    35   15   14 1    
    36   50   15 1    
    37   51   15 1    
    38   52   15 1    
    39   17   16 2    
    40   18   16 am   
    41   19   18 1    
    42   41   18 1    
    43   20   19 ar   
    44   24   19 ar   
    45   21   20 ar   
    46   42   20 1    
    47   22   21 ar   
    48   43   21 1    
    49   23   22 ar   
    50   44   22 1    
    51   24   23 ar   
    52   45   23 1    
    53   46   24 1    
@<TRIPOS>SUBSTRUCTURE
     1 CM91451     1 GROUP   
@<TRIPOS>SET

