#    Name: 3sw8_5LI_1_INTS_M
#    Modification time : Mon Mar 24 18:39:28 2014

@<TRIPOS>MOLECULE
3sw8_5LI_1_INTS_M
   48     0     9     0     0
SMALL
NO_CHARGES


@<TRIPOS>ATOM
      1 CA         26.3045   -8.0275    9.8325 C.3       3 GLC5        0.0000 
      2 CA         25.1390   -6.8630    8.6880 C.3       9 GLL5        0.0000 
      3 CA         27.4700   -9.1920   10.9770 C.3       6 GLP5        0.0000 
      4 CA         29.6670   -6.3155    4.7150 C.3       3 GLC5        0.0000 
      5 CA         28.1300   -5.4320    3.9910 C.3       9 GLL5        0.0000 
      6 CA         31.2040   -7.1990    5.4390 C.3       6 GLP5        0.0000 
      7 O          28.3710   -6.3790    6.3210 O.2       1 ALC1        0.0000 
      8 O          27.6670   -5.5680    5.3510 O.2       7 ALL1        0.0000 
      9 O          29.0750   -7.1900    7.2910 O.2       4 ALP1        0.0000 
     10 N          30.2840   -0.4320    5.7500 N.am      2 SEC2        0.0000 
     11 N          30.5110   -1.7200    5.4180 N.am      8 SEL2        0.0000 
     12 N          30.0570    0.8560    6.0820 N.am      5 SEP2        0.0000 
     13 N          24.7180   -3.6945    4.2180 N.am      2 SEC2        0.0000 
     14 N          25.6800   -4.5330    4.9060 N.am      8 SEL2        0.0000 
     15 N          23.7560   -2.8560    3.5300 N.am      5 SEP2        0.0000 
     16 N          31.7830   -3.3860    3.6075 N.am      2 SEC2        0.0000 
     17 N          30.6350   -4.1390    4.2460 N.am      8 SEL2        0.0000 
     18 N          32.9310   -2.6330    2.9690 N.am      5 SEP2        0.0000 
     19 N          30.9870   -5.3435    3.6700 N.am      2 SEC2        0.0000 
     20 N          31.3390   -6.5480    3.0940 N.am      5 SEP2        0.0000 
     21 CA         26.6745   -5.3575   11.6065 C.3       3 GLC5        0.0000 
     22 CA         25.9810   -3.5600   10.6490 C.3       9 GLL5        0.0000 
     23 CA         27.3680   -7.1550   12.5640 C.3       6 GLP5        0.0000 
     24 CA         25.4530   -3.4320   12.3745 C.3       3 GLC5        0.0000 
     25 CA         24.9250   -3.3040   14.1000 C.3       6 GLP5        0.0000 
     26 CA         25.4175   -1.8155   10.7480 C.3       3 GLC5        0.0000 
     27 CA         24.8540   -0.0710   10.8470 C.3       6 GLP5        0.0000 
     28 CA         27.4680   -2.5215   10.7180 C.3       3 GLC5        0.0000 
     29 CA         28.9550   -1.4830   10.7870 C.3       6 GLP5        0.0000 
     30 CA         24.9650   -2.8240    7.0685 C.3       3 GLC5        0.0000 
     31 CA         26.8710   -2.8300    7.7190 C.3       9 GLL5        0.0000 
     32 CA         23.0590   -2.8180    6.4180 C.3       6 GLP5        0.0000 
     33 CA         25.5575   -1.1715    8.0950 C.3       3 GLC5        0.0000 
     34 CA         24.2440    0.4870    8.4710 C.3       6 GLP5        0.0000 
     35 CA         28.2565   -2.6180    8.7730 C.3       3 GLC5        0.0000 
     36 CA         29.6420   -2.4060    9.8270 C.3       6 GLP5        0.0000 
     37 CA         24.2228   -6.5120   10.8978 C.3       3 GLC5        0.0000 
     38 CA         25.2860   -5.9250    9.6850 C.3       9 GLL5        0.0000 
     39 CA         23.2330   -6.6300   12.6090 C.3       6 GLP5        0.0000 
     40 CA         26.4602   -6.2330   11.0460 C.3       3 GLC5        0.0000 
     41 CA         24.5160   -3.7990    7.4491 C.3       3 GLC5        0.0000 
     42 CA         26.2050   -4.3880    8.0830 C.3       9 GLL5        0.0000 
     43 CA         27.8270   -3.4743    9.2770 C.3       3 GLC5        0.0000 
     44 CA         26.4243   -4.4722    2.7615 C.3       3 GLC5        0.0000 
     45 CA         24.6320   -4.2390    1.7310 C.3       6 GLP5        0.0000 
     46 CA         28.9038   -5.1078    2.2715 C.3       3 GLC5        0.0000 
     47 CA         28.3030   -3.9790    3.5930 C.3       9 GLL5        0.0000 
     48 CA         29.5910   -5.5100    0.7510 C.3       6 GLP5        0.0000 
@<TRIPOS>BOND
@<TRIPOS>SUBSTRUCTURE
     1 ALC1        7 GROUP        1 X    ALC  0     ROOT ALC X 1
     2 SEC2       10 GROUP        1 X    SEC  0     **** SEC X 2
     3 GLC5        1 GROUP        1 X    GLC  0     **** GLC X 6
     4 ALP1        9 GROUP        1 Y    ALP  0     ROOT ALP Y 8
     5 SEP2       12 GROUP        1 Y    SEP  0     **** SEP Y 9
     6 GLP5        3 GROUP        1 Y    GLP  0     **** GLP Y 13
     7 ALL1        8 GROUP        1 Z    ALL  0     ROOT ALL Z 15
     8 SEL2       11 GROUP        1 Z    SEL  0     **** SEL Z 16
     9 GLL5        2 GROUP        1 Z    GLL  0     **** GLL Z 20
@<TRIPOS>SET

