#    Name: 3sw8_5LI_1_ligand
#    Modification time : Mon Mar 24 18:39:29 2014

@<TRIPOS>MOLECULE
3sw8_5LI_1_ligand
   27    27     1     0     0
SMALL
NO_CHARGES


@<TRIPOS>ATOM
      1 C1         25.1390   -6.8630    8.6880 C.ar      1 5LI205      0.0000 
      2 C2         25.5200   -6.5720    7.4010 C.ar      1 5LI205      0.0000 
      3 C3         25.2860   -5.9250    9.6850 C.ar      1 5LI205      0.0000 
      4 C4         26.0490   -5.3380    7.0960 C.ar      1 5LI205      0.0000 
      5 C5         25.8190   -4.6970    9.3710 C.ar      1 5LI205      0.0000 
      6 C6         26.2050   -4.3880    8.0830 C.ar      1 5LI205      0.0000 
      7 C7         29.5190   -2.1860    4.8800 C.2       1 5LI205      0.0000 
      8 C8         26.4350   -5.0900    5.6920 C.2       1 5LI205      0.0000 
      9 C9         28.1300   -5.4320    3.9910 C.3       1 5LI205      0.0000 
     10 C10        28.3030   -3.9790    3.5930 C.3       1 5LI205      0.0000 
     11 N11        27.6670   -5.5680    5.3510 N.am      1 5LI205      0.0000 
     12 N12        29.4470   -3.3960    4.2480 N.am      1 5LI205      0.0000 
     13 O13        30.5110   -1.7200    5.4180 O.2       1 5LI205      0.0000 
     14 O14        25.6800   -4.5330    4.9060 O.2       1 5LI205      0.0000 
     15 O15        30.6350   -4.1390    4.2460 O.3       1 5LI205      0.0000 
     16 CL16       25.9810   -3.5600   10.6490 Cl        1 5LI205      0.0000 
     17 CL17       26.8710   -2.8300    7.7190 Cl        1 5LI205      0.0000 
     18 H          24.7391   -7.7918    8.9111 H         1 5LI205      0.0000 
     19 H          25.4096   -7.2824    6.6560 H         1 5LI205      0.0000 
     20 H          25.0019   -6.1397   10.6473 H         1 5LI205      0.0000 
     21 H          28.5707   -1.6278    4.8717 H         1 5LI205      0.0000 
     22 H          29.0994   -5.9429    3.8505 H         1 5LI205      0.0000 
     23 H          27.4211   -5.8983    3.2836 H         1 5LI205      0.0000 
     24 H          27.3791   -3.4402    3.8541 H         1 5LI205      0.0000 
     25 H          28.4072   -3.9341    2.4980 H         1 5LI205      0.0000 
     26 H          28.2823   -6.0234    6.0263 H         1 5LI205      0.0000 
     27 H          30.7262   -4.4836    5.1804 H         1 5LI205      0.0000 
@<TRIPOS>BOND
     1    2    1 ar   
     2    3    1 ar   
     3   18    1 1    
     4    4    2 ar   
     5   19    2 1    
     6    5    3 ar   
     7   20    3 1    
     8    6    4 ar   
     9    8    4 1    
    10    6    5 ar   
    11   16    5 1    
    12   17    6 1    
    13   12    7 am   
    14   13    7 2    
    15   21    7 1    
    16   11    8 am   
    17   14    8 2    
    18   10    9 1    
    19   11    9 1    
    20   22    9 1    
    21   23    9 1    
    22   12   10 1    
    23   24   10 1    
    24   25   10 1    
    25   26   11 1    
    26   15   12 1    
    27   27   15 1    
@<TRIPOS>SUBSTRUCTURE
     1 5LI205      1 GROUP   
@<TRIPOS>SET

