#    Name: 3ln0_52B_1_INTS_M
#    Modification time : Mon Mar 24 21:51:19 2014

@<TRIPOS>MOLECULE
3ln0_52B_1_INTS_M
   56     0     6     0     0
SMALL
NO_CHARGES


@<TRIPOS>ATOM
      1 CA         30.4555   22.9005   17.2500 C.3       2 GLC5        0.0000 
      2 CA         28.3500   22.6390   16.8440 C.3       6 GLL5        0.0000 
      3 CA         32.5610   23.1620   17.6560 C.3       4 GLP5        0.0000 
      4 CA         23.6470   25.4850   11.9160 C.3       2 GLC5        0.0000 
      5 CA         24.0570   23.7720   13.1070 C.3       6 GLL5        0.0000 
      6 CA         23.2370   27.1980   10.7250 C.3       4 GLP5        0.0000 
      7 CA         22.5620   24.6710   13.2755 C.3       2 GLC5        0.0000 
      8 CA         21.0670   25.5700   13.4440 C.3       4 GLP5        0.0000 
      9 CA         22.7865   23.4070   11.5275 C.3       2 GLC5        0.0000 
     10 CA         21.5160   23.0420    9.9480 C.3       4 GLP5        0.0000 
     11 CA         27.3025   20.2805   20.2240 C.3       2 GLC5        0.0000 
     12 CA         28.7400   20.5430   18.5640 C.3       6 GLL5        0.0000 
     13 CA         25.8650   20.0180   21.8840 C.3       4 GLP5        0.0000 
     14 CA         28.5930   20.2120   16.5850 C.3       2 GLC5        0.0000 
     15 CA         28.4460   19.8810   14.6060 C.3       4 GLP5        0.0000 
     16 CA         30.5895   20.5950   18.0630 C.3       2 GLC5        0.0000 
     17 CA         32.4390   20.6470   17.5620 C.3       4 GLP5        0.0000 
     18 CA         27.4735   21.8330   13.4980 C.3       2 GLC5        0.0000 
     19 CA         25.9450   22.7540   13.3600 C.3       6 GLL5        0.0000 
     20 CA         29.0020   20.9120   13.6360 C.3       4 GLP5        0.0000 
     21 CA         23.2725   22.7925   18.8695 C.3       2 GLC5        0.0000 
     22 CA         23.9260   22.2590   17.3410 C.3       6 GLL5        0.0000 
     23 CA         22.6190   23.3260   20.3980 C.3       4 GLP5        0.0000 
     24 CA         26.5015   26.4200   11.1875 C.3       2 GLC5        0.0000 
     25 CA         25.8520   24.6410   12.2070 C.3       6 GLL5        0.0000 
     26 CA         27.1510   28.1990   10.1680 C.3       4 GLP5        0.0000 
     27 CA         24.5445   25.9195   11.4660 C.3       2 GLC5        0.0000 
     28 N          26.7275   28.2540   12.7395 N.am      1 SEC2        0.0000 
     29 N          26.6720   27.1190   13.2820 N.am      5 SEL2        0.0000 
     30 N          26.7830   29.3890   12.1970 N.am      3 SEP2        0.0000 
     31 N          29.9020   26.3410   14.0735 N.am      1 SEC2        0.0000 
     32 N          28.7520   26.7930   14.1280 N.am      5 SEL2        0.0000 
     33 N          31.0520   25.8890   14.0190 N.am      3 SEP2        0.0000 
     34 CA         24.9705   22.4590   19.3090 C.3       2 GLC5        0.0000 
     35 CA         25.6240   22.3810   17.1450 C.3       6 GLL5        0.0000 
     36 CA         23.9050   22.9600   21.1370 C.3       4 GLP5        0.0000 
     37 CA         24.4985   21.5943   13.0509 C.3       2 GLC5        0.0000 
     38 CA         23.6660   19.8720   12.8190 C.3       4 GLP5        0.0000 
     39 CA         28.3717   22.4712   14.6915 C.3       2 GLC5        0.0000 
     40 CA         27.9800   24.5730   15.3370 C.3       6 GLL5        0.0000 
     41 CA         26.5877   22.9417   11.5472 C.3       2 GLC5        0.0000 
     42 CA         27.4190   21.8780   10.3250 C.3       4 GLP5        0.0000 
     43 CA         24.7812   20.6067   16.3915 C.3       2 GLC5        0.0000 
     44 CA         26.4480   21.5350   17.8170 C.3       6 GLL5        0.0000 
     45 CA         23.9510   19.2860   15.2530 C.3       4 GLP5        0.0000 
     46 CA         27.8535   20.8624   16.0697 C.3       2 GLC5        0.0000 
     47 CA         28.0592   25.9525   16.4200 C.3       2 GLC5        0.0000 
     48 CA         28.6010   27.0010   17.8510 C.3       4 GLP5        0.0000 
     49 CA         29.2477   24.8545   14.0460 C.3       2 GLC5        0.0000 
     50 CA         30.9780   24.8050   13.1030 C.3       4 GLP5        0.0000 
     51 CA         25.0405   26.5235   15.1945 C.3       2 GLC5        0.0000 
     52 CA         27.0550   25.2350   14.6410 C.3       6 GLL5        0.0000 
     53 CA         23.7390   28.0230   15.7930 C.3       4 GLP5        0.0000 
     54 CA         27.3684   23.8184   18.1177 C.3       2 GLC5        0.0000 
     55 CA         27.5030   23.4880   16.1570 C.3       6 GLL5        0.0000 
     56 CA         27.7620   25.1270   19.2440 C.3       4 GLP5        0.0000 
@<TRIPOS>BOND
@<TRIPOS>SUBSTRUCTURE
     1 SEC2       28 GROUP        1 X    SEC  0     ROOT SEC X 2
     2 GLC5        1 GROUP        1 X    GLC  0     **** GLC X 6
     3 SEP2       30 GROUP        1 Y    SEP  0     ROOT SEP Y 9
     4 GLP5        3 GROUP        1 Y    GLP  0     **** GLP Y 13
     5 SEL2       29 GROUP        1 Z    SEL  0     ROOT SEL Z 16
     6 GLL5        2 GROUP        1 Z    GLL  0     **** GLL Z 20
@<TRIPOS>SET

