#    Name: 3ln0_52B_1_ligand
#    Modification time : Mon Mar 24 21:51:20 2014

@<TRIPOS>MOLECULE
3ln0_52B_1_ligand
   23    24     1     0     0
SMALL
NO_CHARGES


@<TRIPOS>ATOM
      1 C1         28.3500   22.6390   16.8440 C.ar      1 52B701      0.0000 
      2 F1         24.0570   23.7720   13.1070 F         1 52B701      0.0000 
      3 CL1        28.7400   20.5430   18.5640 Cl        1 52B701      0.0000 
      4 C2         25.6240   22.3810   17.1450 C.ar      1 52B701      0.0000 
      5 F2         25.9450   22.7540   13.3600 F         1 52B701      0.0000 
      6 CL2        23.9260   22.2590   17.3410 Cl        1 52B701      0.0000 
      7 C3         27.5030   23.4880   16.1570 C.ar      1 52B701      0.0000 
      8 F3         25.8520   24.6410   12.2070 F         1 52B701      0.0000 
      9 C4         27.7980   21.6660   17.6560 C.ar      1 52B701      0.0000 
     10 C5         26.4480   21.5350   17.8170 C.ar      1 52B701      0.0000 
     11 C6         26.1390   23.3520   16.3280 C.ar      1 52B701      0.0000 
     12 C7         27.9800   24.5730   15.3370 C.2       1 52B701      0.0000 
     13 C8         27.0550   25.2350   14.6410 C.2       1 52B701      0.0000 
     14 C9         25.6290   24.8130   14.5510 C.3       1 52B701      0.0000 
     15 C10        27.5490   26.4790   13.9200 C.2       1 52B701      0.0000 
     16 O11        25.1720   24.1340   15.7290 O.3       1 52B701      0.0000 
     17 O12        26.6720   27.1190   13.2820 O.co2     1 52B701      0.0000 
     18 O13        28.7520   26.7930   14.1280 O.co2     1 52B701      0.0000 
     19 C14        25.3770   23.9860   13.3040 C.3       1 52B701      0.0000 
     20 H          29.3638   22.7287   16.7536 H         1 52B701      0.0000 
     21 H          26.0652   20.8078   18.4367 H         1 52B701      0.0000 
     22 H          28.9630   24.7774   15.3263 H         1 52B701      0.0000 
     23 H          25.0215   25.7482   14.4216 H         1 52B701      0.0000 
@<TRIPOS>BOND
     1    7    1 ar   
     2    9    1 ar   
     3   20    1 1    
     4   19    2 1    
     5    9    3 1    
     6    6    4 1    
     7   10    4 ar   
     8   11    4 ar   
     9   19    5 1    
    10   11    7 ar   
    11   12    7 1    
    12   19    8 1    
    13   10    9 ar   
    14   21   10 1    
    15   16   11 1    
    16   13   12 2    
    17   22   12 1    
    18   14   13 1    
    19   15   13 1    
    20   16   14 1    
    21   19   14 1    
    22   23   14 1    
    23   17   15 ar   
    24   18   15 ar   
@<TRIPOS>SUBSTRUCTURE
     1 52B701      1 GROUP   
@<TRIPOS>SET

