#    Name: 2QRY_1_CAVITY_N1_ALL.mol2
#    Modification time : Tue Mar 11 08:47:40 2014

@<TRIPOS>MOLECULE
2QRY_1_CAVITY_N1_ALL.mol2
  101     0     6     0     0
SMALL
NO_CHARGES


@<TRIPOS>ATOM
      1 CA         15.5837   44.4355  105.3035 C.3       5 GLY6        0.0000 
      2 DU         14.6595   45.0405  104.2888 H         6 CUB7        0.0000 
      3 CA         16.0573   46.3725  106.0270 C.3       5 GLY6        0.0000 
      4 DU         15.1331   46.9775  105.0123 H         6 CUB7        0.0000 
      5 CZ         14.2088   47.5825  103.9975 C.ar      4 PHE5        0.0000 
      6 CA         15.0194   45.3413  106.3576 C.3       5 GLY6        0.0000 
      7 DU         14.0951   45.9463  105.3428 H         6 CUB7        0.0000 
      8 O          13.1709   46.5513  104.3280 O.2       2 ALA2        0.0000 
      9 CZ         12.9435   43.2788  107.0186 C.ar      4 PHE5        0.0000 
     10 CZ         12.0193   43.8838  106.0038 C.ar      4 PHE5        0.0000 
     11 CZ         11.0950   44.4888  104.9891 C.ar      4 PHE5        0.0000 
     12 CA         10.1708   45.0938  103.9743 C.3       5 GLY6        0.0000 
     13 CZ          8.7240   46.4760  110.5505 C.ar      4 PHE5        0.0000 
     14 N           7.7998   47.0810  109.5358 N.2       2 ALA2        0.0000 
     15 N           6.8755   47.6860  108.5210 N.2       2 ALA2        0.0000 
     16 CA          7.6861   45.4447  110.8811 C.3       5 GLY6        0.0000 
     17 CZ         14.4551   46.2471  107.4116 C.ar      4 PHE5        0.0000 
     18 CZ         13.5308   46.8521  106.3968 C.ar      4 PHE5        0.0000 
     19 O          12.6066   47.4571  105.3821 O.2       2 ALA2        0.0000 
     20 CZ         13.4171   45.2159  107.7421 C.ar      4 PHE5        0.0000 
     21 CZ         12.4929   45.8209  106.7274 C.ar      4 PHE5        0.0000 
     22 CZ         11.5686   46.4259  105.7126 C.ar      4 PHE5        0.0000 
     23 CZ          8.8377   48.1122  109.2052 C.ar      4 PHE5        0.0000 
     24 CZ          7.9135   48.7172  108.1905 C.ar      4 PHE5        0.0000 
     25 O           6.9892   49.3222  107.1757 O.2       2 ALA2        0.0000 
     26 O          11.1180   48.9680  105.4213 O.2       2 ALA2        0.0000 
     27 O          10.0801   47.9367  105.7519 O.2       2 ALA2        0.0000 
     28 O           9.1558   48.5417  104.7371 O.2       2 ALA2        0.0000 
     29 CZ         11.8148   45.0905  109.1267 C.ar      4 PHE5        0.0000 
     30 CZ         10.8906   45.6955  108.1119 C.ar      4 PHE5        0.0000 
     31 CZ          9.9664   46.3005  107.0972 C.ar      4 PHE5        0.0000 
     32 CA          9.0421   46.9055  106.0824 C.3       5 GLY6        0.0000 
     33 CA          8.1179   47.5105  105.0676 C.3       5 GLY6        0.0000 
     34 N          15.6067   48.9146  105.7358 N.2       2 ALA2        0.0000 
     35 CA         14.6824   49.5196  104.7210 C.3       5 GLY6        0.0000 
     36 CZ         13.7582   50.1246  103.7062 C.ar      4 PHE5        0.0000 
     37 N          14.5688   47.8834  106.0663 N.2       2 ALA2        0.0000 
     38 OG         13.6445   48.4884  105.0515 O.2       1 SER1        0.0000 
     39 O          12.7203   49.0934  104.0368 O.2       2 ALA2        0.0000 
     40 CZ         12.5836   42.9780  104.9498 C.ar      4 PHE5        0.0000 
     41 OG         11.6593   43.5830  103.9350 O.2       1 SER1        0.0000 
     42 CA         11.2965   54.9546  111.0452 C.3       5 GLY6        0.0000 
     43 NZ         10.3722   55.5596  110.0305 N.2       3 LYS4        0.0000 
     44 CA         10.2585   53.9234  111.3758 C.3       5 GLY6        0.0000 
     45 CZ          9.3343   54.5284  110.3610 C.ar      4 PHE5        0.0000 
     46 CA          9.2206   52.8922  111.7063 C.3       5 GLY6        0.0000 
     47 CZ          8.2964   53.4972  110.6915 C.ar      4 PHE5        0.0000 
     48 CZ          8.1827   51.8609  112.0368 C.ar      4 PHE5        0.0000 
     49 OG          7.2584   52.4659  111.0220 O.2       1 SER1        0.0000 
     50 CZ          7.1447   50.8297  112.3673 C.ar      4 PHE5        0.0000 
     51 O           9.8079   56.4655  111.0845 O.2       2 ALA2        0.0000 
     52 CA          9.6942   54.8292  112.4298 C.3       5 GLY6        0.0000 
     53 OG          8.7700   55.4342  111.4150 O.2       1 SER1        0.0000 
     54 CA          8.6563   53.7980  112.7603 C.3       5 GLY6        0.0000 
     55 CZ          7.7320   54.4030  111.7455 C.ar      4 PHE5        0.0000 
     56 NZ          6.6941   53.3718  112.0761 N.2       3 LYS4        0.0000 
     57 CA         15.7204   50.5508  104.3905 C.3       5 GLY6        0.0000 
     58 CA         14.5458   43.4042  105.6340 C.3       5 GLY6        0.0000 
     59 OG         13.6215   44.0092  104.6193 O.2       1 SER1        0.0000 
     60 CZ          9.3113   50.0493  109.9287 C.ar      4 PHE5        0.0000 
     61 CZ          9.1976   48.4130  111.2740 C.ar      4 PHE5        0.0000 
     62 CZ          8.2734   49.0180  110.2593 C.ar      4 PHE5        0.0000 
     63 N           7.3491   49.6230  109.2445 N.2       2 ALA2        0.0000 
     64 OG          8.1597   47.3818  111.6046 O.2       1 SER1        0.0000 
     65 N           7.2355   47.9868  110.5898 N.2       2 ALA2        0.0000 
     66 N           7.1218   46.3506  111.9351 N.2       2 ALA2        0.0000 
     67 CZ          9.5157   48.8426  106.8059 C.ar      4 PHE5        0.0000 
     68 CA          8.5915   49.4476  105.7911 C.3       5 GLY6        0.0000 
     69 CZ          8.4778   47.8113  107.1364 C.ar      4 PHE5        0.0000 
     70 N           7.5536   48.4163  106.1217 N.2       2 ALA2        0.0000 
     71 CZ         10.2126   44.9651  110.5113 C.ar      4 PHE5        0.0000 
     72 CZ          9.2883   45.5701  109.4965 C.ar      4 PHE5        0.0000 
     73 CA          8.3641   46.1751  108.4817 C.3       5 GLY6        0.0000 
     74 CA          7.4399   46.7801  107.4669 C.3       5 GLY6        0.0000 
     75 CA          8.2504   44.5389  109.8270 C.3       5 GLY6        0.0000 
     76 CA         13.9814   44.3101  106.6881 C.3       5 GLY6        0.0000 
     77 DU         13.0572   44.9151  105.6733 H         6 CUB7        0.0000 
     78 O          12.1330   45.5201  104.6585 O.2       2 ALA2        0.0000 
     79 CZ         11.4549   44.7897  107.0579 C.ar      4 PHE5        0.0000 
     80 DU         10.5307   45.3947  106.0431 H         6 CUB7        0.0000 
     81 CA          9.6065   45.9997  105.0283 C.3       5 GLY6        0.0000 
     82 CZ         11.3412   43.1534  108.4032 C.ar      4 PHE5        0.0000 
     83 CZ         10.4170   43.7584  107.3884 C.ar      4 PHE5        0.0000 
     84 CZ          9.4928   44.3634  106.3736 C.ar      4 PHE5        0.0000 
     85 CZ          8.5685   44.9684  105.3589 C.ar      4 PHE5        0.0000 
     86 CZ         10.7769   44.0593  109.4572 C.ar      4 PHE5        0.0000 
     87 CZ          9.8527   44.6643  108.4424 C.ar      4 PHE5        0.0000 
     88 CA          8.9284   45.2693  107.4277 C.3       5 GLY6        0.0000 
     89 CA          8.0042   45.8743  106.4129 C.3       5 GLY6        0.0000 
     90 N          16.1710   48.0088  104.6817 N.2       2 ALA2        0.0000 
     91 CZ         15.2468   48.6138  103.6670 C.ar      4 PHE5        0.0000 
     92 CZ          9.7849   51.9863  110.6522 C.ar      4 PHE5        0.0000 
     93 CZ          9.6712   50.3501  111.9975 C.ar      4 PHE5        0.0000 
     94 CZ          8.7470   50.9551  110.9828 C.ar      4 PHE5        0.0000 
     95 OG          7.8228   51.5601  109.9680 O.2       1 SER1        0.0000 
     96 CZ          8.6333   49.3189  112.3281 C.ar      4 PHE5        0.0000 
     97 CZ          7.7091   49.9239  111.3133 C.ar      4 PHE5        0.0000 
     98 N           6.7848   50.5289  110.2985 N.2       2 ALA2        0.0000 
     99 N           6.6711   48.8926  111.6438 N.2       2 ALA2        0.0000 
    100 CZ         13.0802   49.3942  106.1056 C.ar      4 PHE5        0.0000 
    101 OG         12.1559   49.9992  105.0908 O.2       1 SER1        0.0000 
@<TRIPOS>BOND
@<TRIPOS>SUBSTRUCTURE
     1 SER1       38 GROUP   
     2 ALA2        8 GROUP   
     3 LYS4       43 GROUP   
     4 PHE5        5 GROUP   
     5 GLY6        1 GROUP   
     6 CUB7        2 GROUP   
@<TRIPOS>SET

