#    Name: 2QRY_1_CAVITY_N1_6.mol2
#    Modification time : Tue Mar 11 08:47:40 2014

@<TRIPOS>MOLECULE
2QRY_1_CAVITY_N1_6.mol2
   80     0     6     0     0
SMALL
NO_CHARGES


@<TRIPOS>ATOM
      1 CZ         12.9435   43.2788  107.0186 C.ar      4 PHE5        0.0000 
      2 CZ         12.0193   43.8838  106.0038 C.ar      4 PHE5        0.0000 
      3 CZ         11.0950   44.4888  104.9891 C.ar      4 PHE5        0.0000 
      4 CA         10.1708   45.0938  103.9743 C.3       5 GLY6        0.0000 
      5 CZ          8.7240   46.4760  110.5505 C.ar      4 PHE5        0.0000 
      6 N           7.7998   47.0810  109.5358 N.2       2 ALA2        0.0000 
      7 N           6.8755   47.6860  108.5210 N.2       2 ALA2        0.0000 
      8 CA          7.6861   45.4447  110.8811 C.3       5 GLY6        0.0000 
      9 CZ         14.4551   46.2471  107.4116 C.ar      4 PHE5        0.0000 
     10 CZ         13.5308   46.8521  106.3968 C.ar      4 PHE5        0.0000 
     11 O          12.6066   47.4571  105.3821 O.2       2 ALA2        0.0000 
     12 CZ         13.4171   45.2159  107.7421 C.ar      4 PHE5        0.0000 
     13 CZ         12.4929   45.8209  106.7274 C.ar      4 PHE5        0.0000 
     14 CZ         11.5686   46.4259  105.7126 C.ar      4 PHE5        0.0000 
     15 CZ          8.8377   48.1122  109.2052 C.ar      4 PHE5        0.0000 
     16 CZ          7.9135   48.7172  108.1905 C.ar      4 PHE5        0.0000 
     17 O           6.9892   49.3222  107.1757 O.2       2 ALA2        0.0000 
     18 O          11.1180   48.9680  105.4213 O.2       2 ALA2        0.0000 
     19 O          10.0801   47.9367  105.7519 O.2       2 ALA2        0.0000 
     20 O           9.1558   48.5417  104.7371 O.2       2 ALA2        0.0000 
     21 CZ         11.8148   45.0905  109.1267 C.ar      4 PHE5        0.0000 
     22 CZ         10.8906   45.6955  108.1119 C.ar      4 PHE5        0.0000 
     23 CZ          9.9664   46.3005  107.0972 C.ar      4 PHE5        0.0000 
     24 CA          9.0421   46.9055  106.0824 C.3       5 GLY6        0.0000 
     25 CA          8.1179   47.5105  105.0676 C.3       5 GLY6        0.0000 
     26 CZ         12.5836   42.9780  104.9498 C.ar      4 PHE5        0.0000 
     27 CA         11.2965   54.9546  111.0452 C.3       5 GLY6        0.0000 
     28 NZ         10.3722   55.5596  110.0305 N.2       3 LYS4        0.0000 
     29 CA         10.2585   53.9234  111.3758 C.3       5 GLY6        0.0000 
     30 CZ          9.3343   54.5284  110.3610 C.ar      4 PHE5        0.0000 
     31 CA          9.2206   52.8922  111.7063 C.3       5 GLY6        0.0000 
     32 CZ          8.2964   53.4972  110.6915 C.ar      4 PHE5        0.0000 
     33 CZ          8.1827   51.8609  112.0368 C.ar      4 PHE5        0.0000 
     34 OG          7.2584   52.4659  111.0220 O.2       1 SER1        0.0000 
     35 CZ          7.1447   50.8297  112.3673 C.ar      4 PHE5        0.0000 
     36 O           9.8079   56.4655  111.0845 O.2       2 ALA2        0.0000 
     37 CA          9.6942   54.8292  112.4298 C.3       5 GLY6        0.0000 
     38 OG          8.7700   55.4342  111.4150 O.2       1 SER1        0.0000 
     39 CA          8.6563   53.7980  112.7603 C.3       5 GLY6        0.0000 
     40 CZ          7.7320   54.4030  111.7455 C.ar      4 PHE5        0.0000 
     41 NZ          6.6941   53.3718  112.0761 N.2       3 LYS4        0.0000 
     42 CZ          9.3113   50.0493  109.9287 C.ar      4 PHE5        0.0000 
     43 CZ          9.1976   48.4130  111.2740 C.ar      4 PHE5        0.0000 
     44 CZ          8.2734   49.0180  110.2593 C.ar      4 PHE5        0.0000 
     45 N           7.3491   49.6230  109.2445 N.2       2 ALA2        0.0000 
     46 OG          8.1597   47.3818  111.6046 O.2       1 SER1        0.0000 
     47 N           7.2355   47.9868  110.5898 N.2       2 ALA2        0.0000 
     48 N           7.1218   46.3506  111.9351 N.2       2 ALA2        0.0000 
     49 CZ          9.5157   48.8426  106.8059 C.ar      4 PHE5        0.0000 
     50 CA          8.5915   49.4476  105.7911 C.3       5 GLY6        0.0000 
     51 CZ          8.4778   47.8113  107.1364 C.ar      4 PHE5        0.0000 
     52 N           7.5536   48.4163  106.1217 N.2       2 ALA2        0.0000 
     53 CZ         10.2126   44.9651  110.5113 C.ar      4 PHE5        0.0000 
     54 CZ          9.2883   45.5701  109.4965 C.ar      4 PHE5        0.0000 
     55 CA          8.3641   46.1751  108.4817 C.3       5 GLY6        0.0000 
     56 CA          7.4399   46.7801  107.4669 C.3       5 GLY6        0.0000 
     57 CA          8.2504   44.5389  109.8270 C.3       5 GLY6        0.0000 
     58 CA         13.9814   44.3101  106.6881 C.3       5 GLY6        0.0000 
     59 DU         13.0572   44.9151  105.6733 H         6 CUB7        0.0000 
     60 O          12.1330   45.5201  104.6585 O.2       2 ALA2        0.0000 
     61 CZ         11.4549   44.7897  107.0579 C.ar      4 PHE5        0.0000 
     62 DU         10.5307   45.3947  106.0431 H         6 CUB7        0.0000 
     63 CA          9.6065   45.9997  105.0283 C.3       5 GLY6        0.0000 
     64 CZ         11.3412   43.1534  108.4032 C.ar      4 PHE5        0.0000 
     65 CZ         10.4170   43.7584  107.3884 C.ar      4 PHE5        0.0000 
     66 CZ          9.4928   44.3634  106.3736 C.ar      4 PHE5        0.0000 
     67 CZ          8.5685   44.9684  105.3589 C.ar      4 PHE5        0.0000 
     68 CZ         10.7769   44.0593  109.4572 C.ar      4 PHE5        0.0000 
     69 CZ          9.8527   44.6643  108.4424 C.ar      4 PHE5        0.0000 
     70 CA          8.9284   45.2693  107.4277 C.3       5 GLY6        0.0000 
     71 CA          8.0042   45.8743  106.4129 C.3       5 GLY6        0.0000 
     72 CZ          9.7849   51.9863  110.6522 C.ar      4 PHE5        0.0000 
     73 CZ          9.6712   50.3501  111.9975 C.ar      4 PHE5        0.0000 
     74 CZ          8.7470   50.9551  110.9828 C.ar      4 PHE5        0.0000 
     75 OG          7.8228   51.5601  109.9680 O.2       1 SER1        0.0000 
     76 CZ          8.6333   49.3189  112.3281 C.ar      4 PHE5        0.0000 
     77 CZ          7.7091   49.9239  111.3133 C.ar      4 PHE5        0.0000 
     78 N           6.7848   50.5289  110.2985 N.2       2 ALA2        0.0000 
     79 N           6.6711   48.8926  111.6438 N.2       2 ALA2        0.0000 
     80 OG         12.1559   49.9992  105.0908 O.2       1 SER1        0.0000 
@<TRIPOS>BOND
@<TRIPOS>SUBSTRUCTURE
     1 SER1       34 GROUP   
     2 ALA2        6 GROUP   
     3 LYS4       28 GROUP   
     4 PHE5        1 GROUP   
     5 GLY6        4 GROUP   
     6 CUB7       59 GROUP   
@<TRIPOS>SET

