#    Name: 2qry_TPS_1_INTS_M
#    Modification time : Mon Mar 24 22:39:29 2014

@<TRIPOS>MOLECULE
2qry_TPS_1_INTS_M
   61     0     6     0     0
SMALL
NO_CHARGES


@<TRIPOS>ATOM
      1 CA         10.7875   46.0810  109.9640 C.3       2 GLC5        0.0000 
      2 CA          9.8580   44.3530  109.6850 C.3       6 GLL5        0.0000 
      3 CA         11.7170   47.8090  110.2430 C.3       4 GLP5        0.0000 
      4 CA         11.8900   44.0900  110.0550 C.3       2 GLC5        0.0000 
      5 CA         13.9220   43.8270  110.4250 C.3       4 GLP5        0.0000 
      6 CA          9.0900   42.8910  109.0755 C.3       2 GLC5        0.0000 
      7 CA          8.3220   41.4290  108.4660 C.3       4 GLP5        0.0000 
      8 CA         11.2030   52.2035  111.3915 C.3       2 GLC5        0.0000 
      9 CA          9.4980   51.9300  111.1200 C.3       6 GLL5        0.0000 
     10 CA         12.9080   52.4770  111.6630 C.3       4 GLP5        0.0000 
     11 CA          5.6120   53.2920  110.5950 C.3       2 GLC5        0.0000 
     12 CA          5.6710   51.6690  112.0630 C.3       6 GLL5        0.0000 
     13 CA          5.5530   54.9150  109.1270 C.3       4 GLP5        0.0000 
     14 CA          6.4975   51.4620  113.7470 C.3       2 GLC5        0.0000 
     15 CA          7.3240   51.2550  115.4310 C.3       4 GLP5        0.0000 
     16 CA          4.7560   50.3980  113.1185 C.3       2 GLC5        0.0000 
     17 CA          3.8410   49.1270  114.1740 C.3       4 GLP5        0.0000 
     18 CA          6.6730   54.4935  110.5830 C.3       2 GLC5        0.0000 
     19 CA          7.7930   54.0720  112.0390 C.3       6 GLL5        0.0000 
     20 CA          9.1000   53.9665  113.5550 C.3       2 GLC5        0.0000 
     21 CA         10.4070   53.8610  115.0710 C.3       4 GLP5        0.0000 
     22 CA          7.5585   52.6635  113.7350 C.3       2 GLC5        0.0000 
     23 CA          7.8445   54.5305  109.9660 C.3       2 GLC5        0.0000 
     24 CA          9.1690   54.6330  111.6800 C.3       6 GLL5        0.0000 
     25 CA          6.5200   54.4280  108.2520 C.3       4 GLP5        0.0000 
     26 CA          9.7650   55.0020  113.3740 C.3       2 GLC5        0.0000 
     27 CA         10.3610   55.3710  115.0680 C.3       4 GLP5        0.0000 
     28 CA         11.0385   53.5550  111.6715 C.3       2 GLC5        0.0000 
     29 N           9.2655   45.3790  112.6280 N.am      1 SEC2        0.0000 
     30 N           8.8200   45.8370  111.3500 N.am      5 SEL2        0.0000 
     31 N           9.7110   44.9210  113.9060 N.am      3 SEP2        0.0000 
     32 CA          7.0275   45.2055  110.0180 C.3       2 GLC5        0.0000 
     33 CA          9.0710   45.5870  110.0620 C.3       6 GLL5        0.0000 
     34 CA          4.9840   44.8240  109.9740 C.3       4 GLP5        0.0000 
     35 CA          7.7345   46.9610  113.9020 C.3       2 GLC5        0.0000 
     36 CA          8.1280   46.9210  111.7340 C.3       6 GLL5        0.0000 
     37 CA          7.3410   47.0010  116.0700 C.3       4 GLP5        0.0000 
     38 CA          8.9800   45.2175  112.7755 C.3       2 GLC5        0.0000 
     39 CA          9.8320   43.5140  113.8170 C.3       4 GLP5        0.0000 
     40 CA          7.5860   49.0895  113.1380 C.3       2 GLC5        0.0000 
     41 CA          6.8550   49.0780  111.2130 C.3       6 GLL5        0.0000 
     42 CA          8.3170   49.1010  115.0630 C.3       4 GLP5        0.0000 
     43 CA          4.8755   49.1015  111.8485 C.3       2 GLC5        0.0000 
     44 CA          2.8960   49.1250  112.4840 C.3       4 GLP5        0.0000 
     45 N          12.3425   55.9030  113.3725 N.am      1 SEC2        0.0000 
     46 N          11.8480   55.4540  112.2090 N.am      5 SEL2        0.0000 
     47 N          12.8370   56.3520  114.5360 N.am      3 SEP2        0.0000 
     48 N          13.1890   54.8325  111.6770 N.am      1 SEC2        0.0000 
     49 N          14.5300   54.2110  111.1450 N.am      3 SEP2        0.0000 
     50 N          12.1190   57.7925  110.4175 N.am      1 SEC2        0.0000 
     51 N          11.1520   57.9240  111.8200 N.am      5 SEL2        0.0000 
     52 N          13.0860   57.6610  109.0150 N.am      3 SEP2        0.0000 
     53 N          10.3735   58.8685  111.4610 N.am      1 SEC2        0.0000 
     54 N           9.5950   59.8130  111.1020 N.am      3 SEP2        0.0000 
     55 N          12.0135   56.9250  109.5025 N.am      1 SEC2        0.0000 
     56 N          10.9410   56.1890  109.9900 N.am      5 SEL2        0.0000 
     57 CA          8.9863   43.9280  111.6188 C.3       2 GLC5        0.0000 
     58 CA          8.5080   42.8860  113.3640 C.3       4 GLP5        0.0000 
     59 CA          9.5705   53.0710  113.2332 C.3       2 GLC5        0.0000 
     60 CA          6.4722   46.0607  110.4421 C.3       2 GLC5        0.0000 
     61 CA          7.6490   47.8250  110.7710 C.3       6 GLL5        0.0000 
@<TRIPOS>BOND
@<TRIPOS>SUBSTRUCTURE
     1 SEC2       29 GROUP        1 X    SEC  0     ROOT SEC X 2
     2 GLC5        1 GROUP        1 X    GLC  0     **** GLC X 6
     3 SEP2       31 GROUP        1 Y    SEP  0     ROOT SEP Y 9
     4 GLP5        3 GROUP        1 Y    GLP  0     **** GLP Y 13
     5 SEL2       30 GROUP        1 Z    SEL  0     ROOT SEL Z 16
     6 GLL5        2 GROUP        1 Z    GLL  0     **** GLL Z 20
@<TRIPOS>SET

