#    Name: 2qry_TPS_1_ligand
#    Modification time : Mon Mar 24 22:39:30 2014

@<TRIPOS>MOLECULE
2qry_TPS_1_ligand
   38    39     1     0     0
SMALL
NO_CHARGES


@<TRIPOS>ATOM
      1 CM2         9.8580   44.3530  109.6850 C.3       1 TPS400      0.0000 
      2 N3          7.6780   50.3510  111.2580 N.pl3     1 TPS400      0.0000 
      3 C2          8.9510   50.3080  110.9180 C.2       1 TPS400      0.0000 
      4 S1          9.4980   51.9300  111.1200 S.3       1 TPS400      0.0000 
      5 C5          7.9700   52.6320  111.6710 C.2       1 TPS400      0.0000 
      6 C4          7.1330   51.5370  111.6510 C.2       1 TPS400      0.0000 
      7 CM4         5.6710   51.6690  112.0630 C.3       1 TPS400      0.0000 
      8 C6          7.7930   54.0720  112.0390 C.3       1 TPS400      0.0000 
      9 C7          9.1690   54.6330  111.6800 C.3       1 TPS400      0.0000 
     10 O7          9.3320   56.0150  111.9740 O.3       1 TPS400      0.0000 
     11 N1A         8.8200   45.8370  111.3500 N.ar      1 TPS400      0.0000 
     12 C2A         9.0710   45.5870  110.0620 C.ar      1 TPS400      0.0000 
     13 N3A         8.6410   46.4090  109.1070 N.ar      1 TPS400      0.0000 
     14 C4A         7.9370   47.5230  109.4020 C.ar      1 TPS400      0.0000 
     15 N4A         7.5070   48.3610  108.3890 N.pl3     1 TPS400      0.0000 
     16 C5A         7.6490   47.8250  110.7710 C.ar      1 TPS400      0.0000 
     17 C6A         8.1280   46.9210  111.7340 C.ar      1 TPS400      0.0000 
     18 C7A         6.8550   49.0780  111.2130 C.3       1 TPS400      0.0000 
     19 P1         10.8320   56.4040  111.5150 P.3       1 TPS400      0.0000 
     20 O1         11.8480   55.4540  112.2090 O.co2     1 TPS400      0.0000 
     21 O2         11.1520   57.9240  111.8200 O.co2     1 TPS400      0.0000 
     22 O3         10.9410   56.1890  109.9900 O.co2     1 TPS400      0.0000 
     23 H           9.5766   49.7414  110.6352 H         1 TPS400      0.0000 
     24 H           7.6311   54.1758  113.0742 H         1 TPS400      0.0000 
     25 H           7.0606   54.5250  111.4333 H         1 TPS400      0.0000 
     26 H           9.3358   54.4261  110.5961 H         1 TPS400      0.0000 
     27 H           9.9268   54.0121  112.2145 H         1 TPS400      0.0000 
     28 H           7.0444   49.1992  108.6780 H         1 TPS400      0.0000 
     29 H           7.6959   48.0559  107.4556 H         1 TPS400      0.0000 
     30 H           7.9328   47.1158  112.7306 H         1 TPS400      0.0000 
     31 H           6.0081   49.2121  110.5201 H         1 TPS400      0.0000 
     32 H           6.4270   48.8815  112.2098 H         1 TPS400      0.0000 
     33 H          10.7722   44.3573  110.0903 H         1 TPS400      0.0000 
     34 H           9.4053   43.5157  109.9917 H         1 TPS400      0.0000 
     35 H           9.9767   44.2763  108.6950 H         1 TPS400      0.0000 
     36 H           5.4526   51.0893  112.8480 H         1 TPS400      0.0000 
     37 H           5.4405   52.6079  112.3188 H         1 TPS400      0.0000 
     38 H           5.0515   51.4063  111.3233 H         1 TPS400      0.0000 
@<TRIPOS>BOND
     1   12    1 1    
     2   33    1 1    
     3   34    1 1    
     4   35    1 1    
     5    3    2 2    
     6    6    2 1    
     7   18    2 1    
     8    4    3 1    
     9   23    3 1    
    10    5    4 1    
    11    6    5 2    
    12    8    5 1    
    13    7    6 1    
    14   36    7 1    
    15   37    7 1    
    16   38    7 1    
    17    9    8 1    
    18   24    8 1    
    19   25    8 1    
    20   10    9 1    
    21   26    9 1    
    22   27    9 1    
    23   19   10 1    
    24   12   11 ar   
    25   17   11 ar   
    26   13   12 ar   
    27   14   13 ar   
    28   15   14 1    
    29   16   14 ar   
    30   28   15 1    
    31   29   15 1    
    32   17   16 ar   
    33   18   16 1    
    34   30   17 1    
    35   31   18 1    
    36   32   18 1    
    37   20   19 ar   
    38   21   19 ar   
    39   22   19 ar   
@<TRIPOS>SUBSTRUCTURE
     1 TPS400      1 GROUP   
@<TRIPOS>SET

