#    Name: 3lov_FAD_1_INTS_M
#    Modification time : Mon Mar 24 21:56:47 2014

@<TRIPOS>MOLECULE
3lov_FAD_1_INTS_M
  131     0    12     0     0
SMALL
NO_CHARGES


@<TRIPOS>ATOM
      1 N          25.6625   24.5175   89.9985 N.am      2 SEC2        0.0000 
      2 N          26.8630   24.5310   89.2230 N.am     10 SEL2        0.0000 
      3 N          24.4620   24.5040   90.7740 N.am      6 SEP2        0.0000 
      4 NZ         26.4760   27.7060   88.0400 N.4       3 LYC4        0.0000 
      5 NZ         27.4810   26.9720   88.7660 N.4      11 LYL4        0.0000 
      6 NZ         25.4710   28.4400   87.3140 N.4       7 LYP4        0.0000 
      7 N          26.4760   27.7060   88.0400 N.am      2 SEC2        0.0000 
      8 N          27.4810   26.9720   88.7660 N.am     10 SEL2        0.0000 
      9 N          25.4710   28.4400   87.3140 N.am      6 SEP2        0.0000 
     10 CA         32.1460   25.9595   92.5010 C.3       4 GLC5        0.0000 
     11 CA         30.2550   26.4400   91.9860 C.3      12 GLL5        0.0000 
     12 CA         34.0370   25.4790   93.0160 C.3       8 GLP5        0.0000 
     13 CA         29.8435   24.2850   91.8365 C.3       4 GLC5        0.0000 
     14 CA         29.4320   22.1300   91.6870 C.3       8 GLP5        0.0000 
     15 CA         27.6385   25.5460   92.6985 C.3       4 GLC5        0.0000 
     16 CA         29.1130   26.7210   92.9410 C.3      12 GLL5        0.0000 
     17 CA         26.1640   24.3710   92.4560 C.3       8 GLP5        0.0000 
     18 O          29.9665   25.6215   94.7720 O.2       1 ALC1        0.0000 
     19 O          29.0200   25.7350   93.9540 O.2       9 ALL1        0.0000 
     20 O          30.9130   25.5080   95.5900 O.2       5 ALP1        0.0000 
     21 O          29.3795   26.3175   95.3720 O.2       1 ALC1        0.0000 
     22 O          29.7390   26.9000   96.7900 O.2       5 ALP1        0.0000 
     23 O          29.9930   26.9100   95.1790 O.2       1 ALC1        0.0000 
     24 O          29.0730   28.3120   94.7680 O.2       9 ALL1        0.0000 
     25 O          29.4060   27.6060   95.7790 O.2       1 ALC1        0.0000 
     26 CA         32.5275   26.7560   93.2310 C.3       4 GLC5        0.0000 
     27 CA         31.0180   28.0330   93.4460 C.3      12 GLL5        0.0000 
     28 CA         32.8830   28.5265   92.3995 C.3       4 GLC5        0.0000 
     29 CA         34.7480   29.0200   91.3530 C.3       8 GLP5        0.0000 
     30 N          32.1425   32.6440   92.3260 N.am      2 SEC2        0.0000 
     31 N          32.3270   31.4630   93.1140 N.am     10 SEL2        0.0000 
     32 N          31.9580   33.8250   91.5380 N.am      6 SEP2        0.0000 
     33 CA         36.0935   29.8380   93.8795 C.3       4 GLC5        0.0000 
     34 CA         34.4960   31.2700   94.4290 C.3      12 GLL5        0.0000 
     35 CA         37.6910   28.4060   93.3300 C.3       8 GLP5        0.0000 
     36 CA         34.9435   31.4090   96.5145 C.3       4 GLC5        0.0000 
     37 CA         35.3910   31.5480   98.6000 C.3       8 GLP5        0.0000 
     38 O          36.2715   33.1980   94.8920 O.2       1 ALC1        0.0000 
     39 O          34.9550   32.5030   94.2320 O.2       9 ALL1        0.0000 
     40 O          37.5880   33.8930   95.5520 O.2       5 ALP1        0.0000 
     41 O          34.4880   33.3780   93.2630 O.2       1 ALC1        0.0000 
     42 O          34.0210   34.2530   92.2940 O.2       5 ALP1        0.0000 
     43 N          36.2640   31.0105   96.1320 N.am      2 SEC2        0.0000 
     44 N          35.2550   30.3810   95.1730 N.am     10 SEL2        0.0000 
     45 N          37.2730   31.6400   97.0910 N.am      6 SEP2        0.0000 
     46 CA         36.2685   28.7425   94.3320 C.3       4 GLC5        0.0000 
     47 CA         34.8460   29.0790   95.3340 C.3      12 GLL5        0.0000 
     48 CA         34.4415   27.2790   94.1750 C.3       4 GLC5        0.0000 
     49 CA         34.1405   27.5630   96.5350 C.3       4 GLC5        0.0000 
     50 CA         33.4350   26.0470   97.7360 C.3       8 GLP5        0.0000 
     51 CA         33.3725   29.8620   96.3440 C.3       4 GLC5        0.0000 
     52 CA         31.8990   30.6450   97.3540 C.3       8 GLP5        0.0000 
     53 CA         35.1185   30.3135   96.9670 C.3       4 GLC5        0.0000 
     54 CA         34.7970   29.0495   93.3435 C.3       4 GLC5        0.0000 
     55 N          33.0925   28.4905   96.2685 N.am      2 SEC2        0.0000 
     56 N          33.6590   28.6580   94.7630 N.am     10 SEL2        0.0000 
     57 N          32.5260   28.3230   97.7740 N.am      6 SEP2        0.0000 
     58 CA         33.4655   27.5040   93.5450 C.3       4 GLC5        0.0000 
     59 CA         32.8940   29.5290   94.0740 C.3      12 GLL5        0.0000 
     60 N          23.8825   18.7010   81.6885 N.am      2 SEC2        0.0000 
     61 N          22.5160   18.5220   81.4300 N.am     10 SEL2        0.0000 
     62 N          25.2490   18.8800   81.9470 N.am      6 SEP2        0.0000 
     63 O          20.0570   17.9570   82.3225 O.2       1 ALC1        0.0000 
     64 O          20.3890   19.1570   81.8500 O.2       9 ALL1        0.0000 
     65 O          19.7250   16.7570   82.7950 O.2       5 ALP1        0.0000 
     66 CA         19.1415   22.1035   84.5925 C.3       4 GLC5        0.0000 
     67 CA         19.4990   23.5890   83.2990 C.3      12 GLL5        0.0000 
     68 CA         18.7840   20.6180   85.8860 C.3       8 GLP5        0.0000 
     69 CA         17.0665   23.8550   82.3775 C.3       4 GLC5        0.0000 
     70 CA         18.5970   24.5860   83.6860 C.3      12 GLL5        0.0000 
     71 CA         15.5360   23.1240   81.0690 C.3       8 GLP5        0.0000 
     72 CA         17.4650   28.6295   84.4140 C.3       4 GLC5        0.0000 
     73 CA         18.0910   26.9270   84.4570 C.3      12 GLL5        0.0000 
     74 CA         16.8390   30.3320   84.3710 C.3       8 GLP5        0.0000 
     75 CA         17.8655   27.3760   86.4055 C.3       4 GLC5        0.0000 
     76 CA         17.6400   27.8250   88.3540 C.3       8 GLP5        0.0000 
     77 CA         22.8230   27.5535   85.4085 C.3       4 GLC5        0.0000 
     78 CA         20.9890   27.5150   84.3890 C.3      12 GLL5        0.0000 
     79 CA         24.6570   27.5920   86.4280 C.3       8 GLP5        0.0000 
     80 CA         22.2260   28.9955   84.5420 C.3       4 GLC5        0.0000 
     81 CA         23.4630   30.4760   84.6950 C.3       8 GLP5        0.0000 
     82 CA         21.0910   28.1230   82.7015 C.3       4 GLC5        0.0000 
     83 CA         21.1930   28.7310   81.0140 C.3       8 GLP5        0.0000 
     84 CA         22.7515   25.7065   85.3005 C.3       4 GLC5        0.0000 
     85 CA         21.3500   25.1560   83.6650 C.3      12 GLL5        0.0000 
     86 CA         24.1530   26.2570   86.9360 C.3       8 GLP5        0.0000 
     87 CA         20.9965   22.4790   84.8250 C.3       4 GLC5        0.0000 
     88 CA         20.8940   23.8720   83.2880 C.3      12 GLL5        0.0000 
     89 CA         21.0990   21.0860   86.3620 C.3       8 GLP5        0.0000 
     90 CA         23.8895   24.0035   81.2450 C.3       4 GLC5        0.0000 
     91 CA         23.2980   23.0960   82.8530 C.3      12 GLL5        0.0000 
     92 CA         24.4810   24.9110   79.6370 C.3       8 GLP5        0.0000 
     93 CA         24.2175   21.7420   81.4490 C.3       4 GLC5        0.0000 
     94 CA         25.1370   20.3880   80.0450 C.3       8 GLP5        0.0000 
     95 CA         22.5130   21.8385   85.2685 C.3       4 GLC5        0.0000 
     96 CA         23.9270   22.5910   84.1750 C.3      12 GLL5        0.0000 
     97 CA         25.9770   24.6740   83.5755 C.3       4 GLC5        0.0000 
     98 CA         25.4590   22.6810   84.1900 C.3      12 GLL5        0.0000 
     99 CA         26.4950   26.6670   82.9610 C.3       8 GLP5        0.0000 
    100 O          25.9260   22.2420   82.2185 O.2       1 ALC1        0.0000 
    101 O          25.9160   21.6370   83.3400 O.2       9 ALL1        0.0000 
    102 O          25.9360   22.8470   81.0970 O.2       5 ALP1        0.0000 
    103 CA         25.3990   20.7025   85.6970 C.3       4 GLC5        0.0000 
    104 CA         26.1350   22.4700   85.5690 C.3      12 GLL5        0.0000 
    105 CA         24.6630   18.9350   85.8250 C.3       8 GLP5        0.0000 
    106 CA         27.9280   24.4000   84.0560 C.3       4 GLC5        0.0000 
    107 CA         27.3560   23.3550   85.7290 C.3      12 GLL5        0.0000 
    108 CA         28.5000   25.4450   82.3830 C.3       8 GLP5        0.0000 
    109 N          30.8620   22.8165   85.9890 N.am      2 SEC2        0.0000 
    110 N          30.2250   24.0080   86.0880 N.am     10 SEL2        0.0000 
    111 N          31.4990   21.6250   85.8900 N.am      6 SEP2        0.0000 
    112 N          30.6360   21.6250   88.3665 N.am      2 SEC2        0.0000 
    113 N          30.0630   23.1460   88.4820 N.am     10 SEL2        0.0000 
    114 N          31.2090   20.1040   88.2510 N.am      6 SEP2        0.0000 
    115 CA         32.6455   30.4699   95.7336 C.3       4 GLC5        0.0000 
    116 CA         33.2840   30.8510   93.8760 C.3      12 GLL5        0.0000 
    117 CA         34.0700   29.6574   92.7331 C.3       4 GLC5        0.0000 
    118 CA         19.1310   27.5625   82.4623 C.3       4 GLC5        0.0000 
    119 CA         19.0630   25.8650   84.0340 C.3      12 GLL5        0.0000 
    120 CA         19.6850   28.7290   80.6790 C.3       8 GLP5        0.0000 
    121 CA         20.1359   26.7574   86.1616 C.3       4 GLC5        0.0000 
    122 CA         20.4420   26.1440   84.0330 C.3      12 GLL5        0.0000 
    123 CA         19.9010   26.7550   88.1120 C.3       8 GLP5        0.0000 
    124 CA         21.3790   26.0670   82.1418 C.3       4 GLC5        0.0000 
    125 CA         21.8630   27.3730   80.7150 C.3       8 GLP5        0.0000 
    126 CA         24.6780   20.7855   85.0037 C.3       4 GLC5        0.0000 
    127 CA         27.4907   21.2213   86.4195 C.3       4 GLC5        0.0000 
    128 CA         28.2360   19.5300   87.1900 C.3       8 GLP5        0.0000 
    129 CA         25.4492   24.5847   86.2925 C.3       4 GLC5        0.0000 
    130 CA         27.9548   22.4276   84.1141 C.3       4 GLC5        0.0000 
    131 CA         29.3330   21.8900   82.9240 C.3       8 GLP5        0.0000 
@<TRIPOS>BOND
@<TRIPOS>SUBSTRUCTURE
     1 ALC1       18 GROUP        1 X    ALC  0     ROOT ALC X 1
     2 SEC2        1 GROUP        1 X    SEC  0     **** SEC X 2
     3 LYC4        4 GROUP        1 X    LYC  0     **** LYC X 4
     4 GLC5       10 GROUP        1 X    GLC  0     **** GLC X 6
     5 ALP1       20 GROUP        1 Y    ALP  0     ROOT ALP Y 8
     6 SEP2        3 GROUP        1 Y    SEP  0     **** SEP Y 9
     7 LYP4        6 GROUP        1 Y    LYP  0     **** LYP Y 11
     8 GLP5       12 GROUP        1 Y    GLP  0     **** GLP Y 13
     9 ALL1       19 GROUP        1 Z    ALL  0     ROOT ALL Z 15
    10 SEL2        2 GROUP        1 Z    SEL  0     **** SEL Z 16
    11 LYL4        5 GROUP        1 Z    LYL  0     **** LYL Z 18
    12 GLL5       11 GROUP        1 Z    GLL  0     **** GLL Z 20
@<TRIPOS>SET

