#    Name: 3lov_FAD_1_ligand
#    Modification time : Mon Mar 24 21:56:47 2014

@<TRIPOS>MOLECULE
3lov_FAD_1_ligand
   84    89     1     0     0
SMALL
NO_CHARGES


@<TRIPOS>ATOM
      1 PA         27.9080   25.5730   89.0090 P.3       1 FAD500      0.0000 
      2 O1A        26.8630   24.5310   89.2230 O.co2     1 FAD500      0.0000 
      3 O2A        27.4810   26.9720   88.7660 O.co2     1 FAD500      0.0000 
      4 O5B        28.8940   25.5530   90.2580 O.3       1 FAD500      0.0000 
      5 C5B        29.7990   26.5920   90.5300 C.3       1 FAD500      0.0000 
      6 C4B        30.2550   26.4400   91.9860 C.3       1 FAD500      0.0000 
      7 O4B        31.3320   27.3350   92.2740 O.3       1 FAD500      0.0000 
      8 C3B        29.1130   26.7210   92.9410 C.3       1 FAD500      0.0000 
      9 O3B        29.0200   25.7350   93.9540 O.3       1 FAD500      0.0000 
     10 C2B        29.5050   28.0860   93.4730 C.3       1 FAD500      0.0000 
     11 O2B        29.0730   28.3120   94.7680 O.3       1 FAD500      0.0000 
     12 C1B        31.0180   28.0330   93.4460 C.3       1 FAD500      0.0000 
     13 N9A        31.7010   29.3360   93.4300 N.pl3     1 FAD500      0.0000 
     14 C8A        31.3680   30.5400   92.8490 C.2       1 FAD500      0.0000 
     15 N7A        32.3270   31.4630   93.1140 N.2       1 FAD500      0.0000 
     16 C5A        33.2840   30.8510   93.8760 C.ar      1 FAD500      0.0000 
     17 C6A        34.4960   31.2700   94.4290 C.ar      1 FAD500      0.0000 
     18 N6A        34.9550   32.5030   94.2320 N.pl3     1 FAD500      0.0000 
     19 N1A        35.2550   30.3810   95.1730 N.ar      1 FAD500      0.0000 
     20 C2A        34.8460   29.0790   95.3340 C.ar      1 FAD500      0.0000 
     21 N3A        33.6590   28.6580   94.7630 N.ar      1 FAD500      0.0000 
     22 C4A        32.8940   29.5290   94.0740 C.ar      1 FAD500      0.0000 
     23 N1         22.2060   20.6440   82.1580 N.2       1 FAD500      0.0000 
     24 C2         21.7370   19.4080   81.8070 C.2       1 FAD500      0.0000 
     25 O2         22.5160   18.5220   81.4300 O.2       1 FAD500      0.0000 
     26 N3         20.3890   19.1570   81.8500 N.am      1 FAD500      0.0000 
     27 C4         19.4940   20.0980   82.2100 C.2       1 FAD500      0.0000 
     28 O4         18.3160   19.7970   82.2570 O.2       1 FAD500      0.0000 
     29 C4X        19.9320   21.3640   82.5360 C.2       1 FAD500      0.0000 
     30 N5         19.0220   22.3220   82.9530 N.2       1 FAD500      0.0000 
     31 C5X        19.4990   23.5890   83.2990 C.ar      1 FAD500      0.0000 
     32 C6         18.5970   24.5860   83.6860 C.ar      1 FAD500      0.0000 
     33 C7         19.0630   25.8650   84.0340 C.ar      1 FAD500      0.0000 
     34 C7M        18.0910   26.9270   84.4570 C.3       1 FAD500      0.0000 
     35 C8         20.4420   26.1440   84.0330 C.ar      1 FAD500      0.0000 
     36 C8M        20.9890   27.5150   84.3890 C.3       1 FAD500      0.0000 
     37 C9         21.3500   25.1560   83.6650 C.ar      1 FAD500      0.0000 
     38 C9A        20.8940   23.8720   83.2880 C.ar      1 FAD500      0.0000 
     39 N10        21.8050   22.8760   82.9150 N.pl3     1 FAD500      0.0000 
     40 C10        21.3110   21.6230   82.5310 C.2       1 FAD500      0.0000 
     41 C1'        23.2980   23.0960   82.8530 C.3       1 FAD500      0.0000 
     42 C2'        23.9270   22.5910   84.1750 C.3       1 FAD500      0.0000 
     43 O2'        23.4320   23.3510   85.2140 O.3       1 FAD500      0.0000 
     44 C3'        25.4590   22.6810   84.1900 C.3       1 FAD500      0.0000 
     45 O3'        25.9160   21.6370   83.3400 O.3       1 FAD500      0.0000 
     46 C4'        26.1350   22.4700   85.5690 C.3       1 FAD500      0.0000 
     47 O4'        25.3360   22.7480   86.7030 O.3       1 FAD500      0.0000 
     48 C5'        27.3560   23.3550   85.7290 C.3       1 FAD500      0.0000 
     49 O5'        28.0120   23.0150   86.9240 O.3       1 FAD500      0.0000 
     50 P          29.3580   23.7530   87.2930 P.3       1 FAD500      0.0000 
     51 O1P        30.2250   24.0080   86.0880 O.co2     1 FAD500      0.0000 
     52 O2P        30.0630   23.1460   88.4820 O.co2     1 FAD500      0.0000 
     53 O3P        28.8630   25.2400   87.7620 O.3       1 FAD500      0.0000 
     54 H          29.3478   27.5792   90.4304 H         1 FAD500      0.0000 
     55 H          30.6893   26.5488   89.9027 H         1 FAD500      0.0000 
     56 H          30.5662   25.4089   92.1309 H         1 FAD500      0.0000 
     57 H          28.2281   26.8392   92.3584 H         1 FAD500      0.0000 
     58 H          29.1994   28.8204   92.7638 H         1 FAD500      0.0000 
     59 H          31.3414   27.4527   94.3101 H         1 FAD500      0.0000 
     60 H          30.5648   30.6935   92.3298 H         1 FAD500      0.0000 
     61 H          34.3976   33.0917   93.6466 H         1 FAD500      0.0000 
     62 H          35.8160   32.7299   94.6871 H         1 FAD500      0.0000 
     63 H          35.4184   28.4164   95.8770 H         1 FAD500      0.0000 
     64 H          20.0523   18.1925   81.5909 H         1 FAD500      0.0000 
     65 H          17.5913   24.3851   83.7166 H         1 FAD500      0.0000 
     66 H          22.3580   25.3506   83.6640 H         1 FAD500      0.0000 
     67 H          23.5161   24.1475   82.7460 H         1 FAD500      0.0000 
     68 H          23.7235   22.5387   82.0327 H         1 FAD500      0.0000 
     69 H          23.6547   21.5438   84.2842 H         1 FAD500      0.0000 
     70 H          25.7580   23.6344   83.7989 H         1 FAD500      0.0000 
     71 H          26.5041   21.4346   85.6079 H         1 FAD500      0.0000 
     72 H          27.0158   24.3978   85.7241 H         1 FAD500      0.0000 
     73 H          27.9935   23.2072   84.8487 H         1 FAD500      0.0000 
     74 H          18.5527   27.7855   84.6801 H         1 FAD500      0.0000 
     75 H          17.4264   27.1299   83.7379 H         1 FAD500      0.0000 
     76 H          17.5721   26.6542   85.2671 H         1 FAD500      0.0000 
     77 H          21.9874   27.5410   84.3390 H         1 FAD500      0.0000 
     78 H          20.6461   28.2233   83.7720 H         1 FAD500      0.0000 
     79 H          20.7349   27.7867   85.3172 H         1 FAD500      0.0000 
     80 H          29.5615   26.0935   94.7145 H         1 FAD500      0.0000 
     81 H          29.5104   27.5982   95.3149 H         1 FAD500      0.0000 
     82 H          23.8263   24.2602   85.0802 H         1 FAD500      0.0000 
     83 H          25.4776   21.8108   82.4582 H         1 FAD500      0.0000 
     84 H          24.3936   22.7134   86.3703 H         1 FAD500      0.0000 
@<TRIPOS>BOND
     1    2    1 ar   
     2    3    1 ar   
     3    4    1 1    
     4   53    1 1    
     5    5    4 1    
     6    6    5 1    
     7   54    5 1    
     8   55    5 1    
     9    7    6 1    
    10    8    6 1    
    11   56    6 1    
    12   12    7 1    
    13    9    8 1    
    14   10    8 1    
    15   57    8 1    
    16   80    9 1    
    17   11   10 1    
    18   12   10 1    
    19   58   10 1    
    20   81   11 1    
    21   13   12 1    
    22   59   12 1    
    23   14   13 1    
    24   22   13 1    
    25   15   14 2    
    26   60   14 1    
    27   16   15 1    
    28   17   16 ar   
    29   22   16 ar   
    30   18   17 1    
    31   19   17 ar   
    32   61   18 1    
    33   62   18 1    
    34   20   19 ar   
    35   21   20 ar   
    36   63   20 1    
    37   22   21 ar   
    38   24   23 1    
    39   40   23 2    
    40   25   24 2    
    41   26   24 am   
    42   27   26 am   
    43   64   26 1    
    44   28   27 2    
    45   29   27 1    
    46   30   29 2    
    47   40   29 1    
    48   31   30 1    
    49   32   31 ar   
    50   38   31 ar   
    51   33   32 ar   
    52   65   32 1    
    53   34   33 1    
    54   35   33 ar   
    55   74   34 1    
    56   75   34 1    
    57   76   34 1    
    58   36   35 1    
    59   37   35 ar   
    60   77   36 1    
    61   78   36 1    
    62   79   36 1    
    63   38   37 ar   
    64   66   37 1    
    65   39   38 1    
    66   40   39 1    
    67   41   39 1    
    68   42   41 1    
    69   67   41 1    
    70   68   41 1    
    71   43   42 1    
    72   44   42 1    
    73   69   42 1    
    74   82   43 1    
    75   45   44 1    
    76   46   44 1    
    77   70   44 1    
    78   83   45 1    
    79   47   46 1    
    80   48   46 1    
    81   71   46 1    
    82   84   47 1    
    83   49   48 1    
    84   72   48 1    
    85   73   48 1    
    86   50   49 1    
    87   51   50 ar   
    88   52   50 ar   
    89   53   50 1    
@<TRIPOS>SUBSTRUCTURE
     1 FAD500      1 GROUP   
@<TRIPOS>SET

