#    Name: 4k5y_1Q5_1_INTS_M
#    Modification time : Tue Mar 25 07:20:04 2014

@<TRIPOS>MOLECULE
4k5y_1Q5_1_INTS_M
   80     0     6     0     0
SMALL
NO_CHARGES


@<TRIPOS>ATOM
      1 CA        -39.3335  -16.7915   33.2640 C.3       2 GLC5        0.0000 
      2 CA        -41.0020  -18.2520   33.2560 C.3       6 GLL5        0.0000 
      3 CA        -37.6650  -15.3310   33.2720 C.3       4 GLP5        0.0000 
      4 CA        -40.9345  -16.6670   31.6975 C.3       2 GLC5        0.0000 
      5 CA        -40.8670  -15.0820   30.1390 C.3       4 GLP5        0.0000 
      6 CA        -39.4175  -19.1420   32.0640 C.3       2 GLC5        0.0000 
      7 CA        -37.8330  -20.0320   30.8720 C.3       4 GLP5        0.0000 
      8 CA        -40.7130  -22.0910   39.1545 C.3       2 GLC5        0.0000 
      9 CA        -41.6700  -22.3050   37.2960 C.3       6 GLL5        0.0000 
     10 CA        -39.7560  -21.8770   41.0130 C.3       4 GLP5        0.0000 
     11 CA        -41.5120  -24.2730   37.6145 C.3       2 GLC5        0.0000 
     12 CA        -41.3540  -26.2410   37.9330 C.3       4 GLP5        0.0000 
     13 CA        -42.8180  -21.7930   38.7715 C.3       2 GLC5        0.0000 
     14 CA        -43.9660  -21.2810   40.2470 C.3       4 GLP5        0.0000 
     15 CA        -40.2415  -18.9980   36.0885 C.3       2 GLC5        0.0000 
     16 CA        -40.2450  -21.0540   35.5270 C.3       6 GLL5        0.0000 
     17 CA        -40.2380  -16.9420   36.6500 C.3       4 GLP5        0.0000 
     18 CA        -41.4755  -21.0465   33.7120 C.3       2 GLC5        0.0000 
     19 CA        -42.7060  -21.0390   31.8970 C.3       4 GLP5        0.0000 
     20 CA        -33.4745  -20.9225   31.3820 C.3       2 GLC5        0.0000 
     21 CA        -34.1090  -21.3010   33.3860 C.3       6 GLL5        0.0000 
     22 CA        -32.8400  -20.5440   29.3780 C.3       4 GLP5        0.0000 
     23 CA        -34.1965  -23.1900   32.3625 C.3       2 GLC5        0.0000 
     24 CA        -34.2840  -25.0790   31.3390 C.3       4 GLP5        0.0000 
     25 CA        -31.9860  -21.6955   33.0615 C.3       2 GLC5        0.0000 
     26 CA        -29.8630  -22.0900   32.7370 C.3       4 GLP5        0.0000 
     27 CA        -40.7820  -21.9665   32.4860 C.3       2 GLC5        0.0000 
     28 CA        -38.8580  -22.8940   33.0750 C.3       6 GLL5        0.0000 
     29 CA        -39.5050  -24.4730   32.0525 C.3       2 GLC5        0.0000 
     30 CA        -40.1520  -26.0520   31.0300 C.3       4 GLP5        0.0000 
     31 CA        -40.0855  -24.2145   33.9165 C.3       2 GLC5        0.0000 
     32 CA        -41.3130  -25.5350   34.7580 C.3       4 GLP5        0.0000 
     33 CA        -38.5165  -19.3580   38.2190 C.3       2 GLC5        0.0000 
     34 CA        -37.0850  -20.5790   37.2950 C.3       6 GLL5        0.0000 
     35 CA        -39.9480  -18.1370   39.1430 C.3       4 GLP5        0.0000 
     36 CA        -35.3885  -23.5790   32.3125 C.3       2 GLC5        0.0000 
     37 CA        -36.4930  -22.0790   33.2860 C.3       6 GLL5        0.0000 
     38 CA        -44.6415  -17.3630   39.4670 C.3       2 GLC5        0.0000 
     39 CA        -45.0090  -18.4300   37.8390 C.3       6 GLL5        0.0000 
     40 CA        -44.2740  -16.2960   41.0950 C.3       4 GLP5        0.0000 
     41 CA        -42.9890  -17.8310   37.8975 C.3       2 GLC5        0.0000 
     42 CA        -40.9690  -17.2320   37.9560 C.3       4 GLP5        0.0000 
     43 CA        -45.5285  -20.1200   33.6325 C.3       2 GLC5        0.0000 
     44 CA        -44.8860  -22.0100   34.4880 C.3       6 GLL5        0.0000 
     45 CA        -46.1710  -18.2300   32.7770 C.3       4 GLP5        0.0000 
     46 CA        -43.7960  -21.5245   33.1925 C.3       2 GLC5        0.0000 
     47 O         -38.9755  -19.6250   33.8620 O.2       1 ALC1        0.0000 
     48 O         -40.1420  -20.1030   34.6000 O.2       5 ALL1        0.0000 
     49 O         -37.8090  -19.1470   33.1240 O.2       3 ALP1        0.0000 
     50 CA        -41.8975  -19.9080   32.8382 C.3       2 GLC5        0.0000 
     51 CA        -41.1760  -19.3020   34.3030 C.3       6 GLL5        0.0000 
     52 CA        -46.2608  -19.4133   34.6647 C.3       2 GLC5        0.0000 
     53 CA        -44.9960  -19.9570   35.8780 C.3       6 GLL5        0.0000 
     54 CA        -47.1260  -18.3150   33.7760 C.3       4 GLP5        0.0000 
     55 CA        -47.2152  -20.5995   36.2993 C.3       2 GLC5        0.0000 
     56 CA        -49.0050  -21.5850   36.2020 C.3       4 GLP5        0.0000 
     57 CA        -36.9783  -23.1160   35.7770 C.3       2 GLC5        0.0000 
     58 CA        -37.9990  -21.7310   35.2040 C.3       6 GLL5        0.0000 
     59 CA        -36.0810  -24.2500   37.0320 C.3       4 GLP5        0.0000 
     60 CA        -41.5175  -19.0162   37.0153 C.3       2 GLC5        0.0000 
     61 CA        -41.5110  -21.2450   36.2460 C.3       6 GLL5        0.0000 
     62 CA        -42.6085  -20.4600   33.6560 C.3       2 GLC5        0.0000 
     63 CA        -42.6210  -20.3560   35.9030 C.3       6 GLL5        0.0000 
     64 CA        -40.9915  -18.0168   35.5016 C.3       2 GLC5        0.0000 
     65 CA        -42.4010  -19.4060   34.9270 C.3       6 GLL5        0.0000 
     66 CA        -38.0690  -21.2978   32.1647 C.3       2 GLC5        0.0000 
     67 CA        -37.7520  -22.2330   33.8400 C.3       6 GLL5        0.0000 
     68 CA        -36.9068  -20.9010   32.2583 C.3       2 GLC5        0.0000 
     69 CA        -35.4680  -21.4610   34.0030 C.3       6 GLL5        0.0000 
     70 CA        -36.0308  -23.0100   35.3383 C.3       2 GLC5        0.0000 
     71 CA        -34.3549  -19.4845   34.2356 C.3       2 GLC5        0.0000 
     72 CA        -35.6530  -20.9790   35.2880 C.3       6 GLL5        0.0000 
     73 CA        -33.4890  -17.7890   33.9800 C.3       4 GLP5        0.0000 
     74 CA        -36.1993  -22.5790   36.4887 C.3       2 GLC5        0.0000 
     75 CA        -46.3530  -18.0648   36.0265 C.3       2 GLC5        0.0000 
     76 CA        -47.2740  -17.2790   34.6760 C.3       4 GLP5        0.0000 
     77 CA        -44.6990  -20.0658   38.8120 C.3       2 GLC5        0.0000 
     78 CA        -45.8550  -19.2710   36.9150 C.3       6 GLL5        0.0000 
     79 CA        -47.1728  -21.5615   35.5302 C.3       2 GLC5        0.0000 
     80 CA        -45.7950  -21.0660   35.2290 C.3       6 GLL5        0.0000 
@<TRIPOS>BOND
@<TRIPOS>SUBSTRUCTURE
     1 ALC1       47 GROUP        1 X    ALC  0     ROOT ALC X 1
     2 GLC5        1 GROUP        1 X    GLC  0     **** GLC X 6
     3 ALP1       49 GROUP        1 Y    ALP  0     ROOT ALP Y 8
     4 GLP5        3 GROUP        1 Y    GLP  0     **** GLP Y 13
     5 ALL1       48 GROUP        1 Z    ALL  0     ROOT ALL Z 15
     6 GLL5        2 GROUP        1 Z    GLL  0     **** GLL Z 20
@<TRIPOS>SET

