#    Name: 4k5y_1Q5_1_ligand
#    Modification time : Tue Mar 25 07:20:04 2014

@<TRIPOS>MOLECULE
4k5y_1Q5_1_ligand
   55    56     1     0     0
SMALL
NO_CHARGES


@<TRIPOS>ATOM
      1 C18       -41.0020  -18.2520   33.2560 C.3       1 1Q5401      0.0000 
      2 C20       -44.9960  -19.9570   35.8780 C.3       1 1Q5401      0.0000 
      3 C1        -37.9990  -21.7310   35.2040 C.ar      1 1Q5401      0.0000 
      4 C17       -41.6700  -22.3050   37.2960 C.3       1 1Q5401      0.0000 
      5 C16       -41.5110  -21.2450   36.2460 C.ar      1 1Q5401      0.0000 
      6 C15       -42.6210  -20.3560   35.9030 C.ar      1 1Q5401      0.0000 
      7 C14       -42.4010  -19.4060   34.9270 C.ar      1 1Q5401      0.0000 
      8 C13       -41.1760  -19.3020   34.3030 C.ar      1 1Q5401      0.0000 
      9 C11       -40.2450  -21.0540   35.5270 C.ar      1 1Q5401      0.0000 
     10 C6        -37.7520  -22.2330   33.8400 C.ar      1 1Q5401      0.0000 
     11 C7        -34.1090  -21.3010   33.3860 C.3       1 1Q5401      0.0000 
     12 C8        -38.8580  -22.8940   33.0750 C.3       1 1Q5401      0.0000 
     13 C9        -37.0850  -20.5790   37.2950 C.3       1 1Q5401      0.0000 
     14 C5        -36.4930  -22.0790   33.2860 C.ar      1 1Q5401      0.0000 
     15 C4        -35.4680  -21.4610   34.0030 C.ar      1 1Q5401      0.0000 
     16 C3        -35.6530  -20.9790   35.2880 C.ar      1 1Q5401      0.0000 
     17 C2        -36.8790  -21.0950   35.9110 C.ar      1 1Q5401      0.0000 
     18 C24       -45.0090  -18.4300   37.8390 C.3       1 1Q5401      0.0000 
     19 C23       -45.8550  -19.2710   36.9150 C.3       1 1Q5401      0.0000 
     20 C21       -45.7950  -21.0660   35.2290 C.3       1 1Q5401      0.0000 
     21 C22       -44.8860  -22.0100   34.4880 C.3       1 1Q5401      0.0000 
     22 N19       -43.8110  -20.4710   36.5180 N.pl3     1 1Q5401      0.0000 
     23 N12       -40.1420  -20.1030   34.6000 N.pl3     1 1Q5401      0.0000 
     24 O10       -39.2010  -21.8550   35.8170 O.3       1 1Q5401      0.0000 
     25 H         -44.7399  -19.2293   35.1218 H         1 1Q5401      0.0000 
     26 H         -43.1690  -18.7605   34.6589 H         1 1Q5401      0.0000 
     27 H         -36.3049  -22.4244   32.3296 H         1 1Q5401      0.0000 
     28 H         -34.8641  -20.5284   35.7835 H         1 1Q5401      0.0000 
     29 H         -46.3910  -20.0241   37.4971 H         1 1Q5401      0.0000 
     30 H         -46.5890  -18.6354   36.4144 H         1 1Q5401      0.0000 
     31 H         -46.5164  -20.6315   34.5340 H         1 1Q5401      0.0000 
     32 H         -46.3426  -21.6137   35.9986 H         1 1Q5401      0.0000 
     33 H         -43.9208  -20.9140   37.4365 H         1 1Q5401      0.0000 
     34 H         -39.2290  -19.9738   34.0860 H         1 1Q5401      0.0000 
     35 H         -40.0803  -18.2633   32.8683 H         1 1Q5401      0.0000 
     36 H         -41.6409  -18.3752   32.4967 H         1 1Q5401      0.0000 
     37 H         -41.1549  -17.3339   33.6217 H         1 1Q5401      0.0000 
     38 H         -40.8303  -22.8337   37.4201 H         1 1Q5401      0.0000 
     39 H         -41.9043  -21.9139   38.1860 H         1 1Q5401      0.0000 
     40 H         -42.3934  -22.9544   37.0616 H         1 1Q5401      0.0000 
     41 H         -33.4714  -20.8432   34.0056 H         1 1Q5401      0.0000 
     42 H         -33.7033  -22.1833   33.1474 H         1 1Q5401      0.0000 
     43 H         -34.1436  -20.7578   32.5471 H         1 1Q5401      0.0000 
     44 H         -38.5578  -23.1880   32.1676 H         1 1Q5401      0.0000 
     45 H         -39.2026  -23.7055   33.5469 H         1 1Q5401      0.0000 
     46 H         -39.6359  -22.2800   32.9417 H         1 1Q5401      0.0000 
     47 H         -36.2523  -20.1677   37.6658 H         1 1Q5401      0.0000 
     48 H         -37.7978  -19.8784   37.3279 H         1 1Q5401      0.0000 
     49 H         -37.3588  -21.3055   37.9253 H         1 1Q5401      0.0000 
     50 H         -44.3294  -18.9803   38.3241 H         1 1Q5401      0.0000 
     51 H         -44.5105  -17.7195   37.3424 H         1 1Q5401      0.0000 
     52 H         -45.5624  -17.9692   38.5328 H         1 1Q5401      0.0000 
     53 H         -44.3735  -21.5431   33.7673 H         1 1Q5401      0.0000 
     54 H         -44.2155  -22.4343   35.0966 H         1 1Q5401      0.0000 
     55 H         -45.3962  -22.7512   34.0517 H         1 1Q5401      0.0000 
@<TRIPOS>BOND
     1    8    1 1    
     2   35    1 1    
     3   36    1 1    
     4   37    1 1    
     5   19    2 1    
     6   20    2 1    
     7   22    2 1    
     8   25    2 1    
     9   10    3 ar   
    10   17    3 ar   
    11   24    3 1    
    12    5    4 1    
    13   38    4 1    
    14   39    4 1    
    15   40    4 1    
    16    6    5 ar   
    17    9    5 ar   
    18    7    6 ar   
    19   22    6 1    
    20    8    7 ar   
    21   26    7 1    
    22   23    8 ar   
    23   23    9 ar   
    24   24    9 1    
    25   12   10 1    
    26   14   10 ar   
    27   15   11 1    
    28   41   11 1    
    29   42   11 1    
    30   43   11 1    
    31   44   12 1    
    32   45   12 1    
    33   46   12 1    
    34   17   13 1    
    35   47   13 1    
    36   48   13 1    
    37   49   13 1    
    38   15   14 ar   
    39   27   14 1    
    40   16   15 ar   
    41   17   16 ar   
    42   28   16 1    
    43   19   18 1    
    44   50   18 1    
    45   51   18 1    
    46   52   18 1    
    47   29   19 1    
    48   30   19 1    
    49   21   20 1    
    50   31   20 1    
    51   32   20 1    
    52   53   21 1    
    53   54   21 1    
    54   55   21 1    
    55   33   22 1    
    56   34   23 1    
@<TRIPOS>SUBSTRUCTURE
     1 1Q5401      1 GROUP   
@<TRIPOS>SET

