#    Name: 3i12_ADP_4_INTS_M
#    Modification time : Tue Mar 25 15:27:20 2014

@<TRIPOS>MOLECULE
3i12_ADP_4_INTS_M
   59     0    12     0     0
SMALL
NO_CHARGES


@<TRIPOS>ATOM
      1 N         116.6340   56.5515    0.1980 N.am      2 SEC2        0.0000 
      2 N         117.1700   55.8080    1.3670 N.am     10 SEL2        0.0000 
      3 N         116.0980   57.2950   -0.9710 N.am      6 SEP2        0.0000 
      4 NZ        117.1290   52.4565    1.0995 N.4       3 LYC4        0.0000 
      5 NZ        118.0700   53.4680    2.4840 N.4      11 LYL4        0.0000 
      6 NZ        116.1880   51.4450   -0.2850 N.4       7 LYP4        0.0000 
      7 N         119.0440   53.7185    3.1790 N.am      2 SEC2        0.0000 
      8 N         118.0700   53.4680    2.4840 N.am     10 SEL2        0.0000 
      9 N         120.0180   53.9690    3.8740 N.am      6 SEP2        0.0000 
     10 NZ        116.0275   52.5835    0.5315 N.4       3 LYC4        0.0000 
     11 NZ        115.8670   53.7220    1.3480 N.4      11 LYL4        0.0000 
     12 N         116.0275   52.5835    0.5315 N.am      2 SEC2        0.0000 
     13 N         115.8670   53.7220    1.3480 N.am     10 SEL2        0.0000 
     14 N         116.1880   51.4450   -0.2850 N.am      6 SEP2        0.0000 
     15 N         116.9825   56.4460   -2.6680 N.am      2 SEC2        0.0000 
     16 N         117.4270   55.8100   -1.3030 N.am     10 SEL2        0.0000 
     17 N         116.5380   57.0820   -4.0330 N.am      6 SEP2        0.0000 
     18 NZ        116.8305   52.3860   -1.2725 N.4       3 LYC4        0.0000 
     19 NZ        117.4730   53.3270   -2.2600 N.4      11 LYL4        0.0000 
     20 NZ        117.7980   52.7530   -3.3460 N.4       3 LYC4        0.0000 
     21 NZ        118.1230   52.1790   -4.4320 N.4       7 LYP4        0.0000 
     22 N         116.8305   52.3860   -1.2725 N.am      2 SEC2        0.0000 
     23 N         117.4730   53.3270   -2.2600 N.am     10 SEL2        0.0000 
     24 N         117.7980   52.7530   -3.3460 N.am      2 SEC2        0.0000 
     25 N         118.1230   52.1790   -4.4320 N.am      6 SEP2        0.0000 
     26 CA        121.2640   55.0560    1.1385 C.3       4 GLC5        0.0000 
     27 CA        120.2900   55.5430   -0.7390 C.3      12 GLL5        0.0000 
     28 CA        122.2380   54.5690    3.0160 C.3       8 GLP5        0.0000 
     29 O         119.1190   59.3650   -2.6920 O.2       1 ALC1        0.0000 
     30 O         119.7910   58.4660   -2.0470 O.2       9 ALL1        0.0000 
     31 O         118.4470   60.2640   -3.3370 O.2       5 ALP1        0.0000 
     32 CA        120.3785   58.2220   -5.4110 C.3       4 GLC5        0.0000 
     33 CA        121.3950   57.5580   -3.7330 C.3      12 GLL5        0.0000 
     34 CA        119.3620   58.8860   -7.0890 C.3       8 GLP5        0.0000 
     35 O         121.3490   59.8390   -3.5330 O.2       1 ALC1        0.0000 
     36 O         122.2220   58.6700   -3.2990 O.2       9 ALL1        0.0000 
     37 O         120.4760   61.0080   -3.7670 O.2       5 ALP1        0.0000 
     38 CA        123.4055   55.0120   -4.5840 C.3       4 GLC5        0.0000 
     39 CA        122.0760   56.1910   -3.8450 C.3      12 GLL5        0.0000 
     40 CA        124.7350   53.8330   -5.3230 C.3       8 GLP5        0.0000 
     41 N         119.1055   52.9380   -5.1055 N.am      2 SEC2        0.0000 
     42 N         120.0880   53.6970   -5.7790 N.am     10 SEL2        0.0000 
     43 CA        121.9430   53.7715   -9.7265 C.3       4 GLC5        0.0000 
     44 CA        120.7510   54.2290   -8.2680 C.3      12 GLL5        0.0000 
     45 CA        123.1350   53.3140  -11.1850 C.3       8 GLP5        0.0000 
     46 O         119.0215   52.5030   -8.2575 O.2       1 ALC1        0.0000 
     47 O         120.0050   53.2970   -8.9240 O.2       9 ALL1        0.0000 
     48 O         118.0380   51.7090   -7.5910 O.2       5 ALP1        0.0000 
     49 O         120.2880   52.7640  -10.1555 O.2       1 ALC1        0.0000 
     50 O         120.5710   52.2310  -11.3870 O.2       5 ALP1        0.0000 
     51 N         121.7510   55.2640  -10.2685 N.am      2 SEC2        0.0000 
     52 N         121.5370   55.0840   -8.9420 N.am     10 SEL2        0.0000 
     53 N         121.9650   55.4440  -11.5950 N.am      6 SEP2        0.0000 
     54 CA        122.7125   54.6725   -9.7490 C.3       4 GLC5        0.0000 
     55 CA        122.2900   56.0310   -8.3130 C.3      12 GLL5        0.0000 
     56 CA        121.8910   56.2875  -10.3705 C.3       4 GLC5        0.0000 
     57 CA        121.4920   56.5440  -12.4280 C.3       8 GLP5        0.0000 
     58 CA        121.6510   52.5778   -6.9247 C.3       4 GLC5        0.0000 
     59 CA        122.5670   50.8720   -6.3180 C.3       8 GLP5        0.0000 
@<TRIPOS>BOND
@<TRIPOS>SUBSTRUCTURE
     1 ALC1       29 GROUP        1 X    ALC  0     ROOT ALC X 1
     2 SEC2        1 GROUP        1 X    SEC  0     **** SEC X 2
     3 LYC4        4 GROUP        1 X    LYC  0     **** LYC X 4
     4 GLC5       26 GROUP        1 X    GLC  0     **** GLC X 6
     5 ALP1       31 GROUP        1 Y    ALP  0     ROOT ALP Y 8
     6 SEP2        3 GROUP        1 Y    SEP  0     **** SEP Y 9
     7 LYP4        6 GROUP        1 Y    LYP  0     **** LYP Y 11
     8 GLP5       28 GROUP        1 Y    GLP  0     **** GLP Y 13
     9 ALL1       30 GROUP        1 Z    ALL  0     ROOT ALL Z 15
    10 SEL2        2 GROUP        1 Z    SEL  0     **** SEL Z 16
    11 LYL4        5 GROUP        1 Z    LYL  0     **** LYL Z 18
    12 GLL5       27 GROUP        1 Z    GLL  0     **** GLL Z 20
@<TRIPOS>SET

