#    Name: 3i12_ADP_4_ligand
#    Modification time : Tue Mar 25 15:27:20 2014

@<TRIPOS>MOLECULE
3i12_ADP_4_ligand
   39    41     1     0     0
SMALL
NO_CHARGES


@<TRIPOS>ATOM
      1 PB        117.2700   54.2630    1.4530 P.3       1 ADP365      0.0000 
      2 O1B       117.1700   55.8080    1.3670 O.co2     1 ADP365      0.0000 
      3 O2B       118.0700   53.4680    2.4840 O.co2     1 ADP365      0.0000 
      4 O3B       115.8670   53.7220    1.3480 O.co2     1 ADP365      0.0000 
      5 PA        117.9670   54.4290   -1.3500 P.3       1 ADP365      0.0000 
      6 O1A       117.4270   55.8100   -1.3030 O.co2     1 ADP365      0.0000 
      7 O2A       117.4730   53.3270   -2.2600 O.co2     1 ADP365      0.0000 
      8 O3A       118.0180   53.7110    0.1280 O.3       1 ADP365      0.0000 
      9 O5'       119.5670   54.6550   -1.5770 O.3       1 ADP365      0.0000 
     10 C5'       120.2900   55.5430   -0.7390 C.3       1 ADP365      0.0000 
     11 C4'       121.1560   56.4030   -1.6800 C.3       1 ADP365      0.0000 
     12 O4'       121.9520   55.5630   -2.5420 O.3       1 ADP365      0.0000 
     13 C3'       120.3440   57.2860   -2.6520 C.3       1 ADP365      0.0000 
     14 O3'       119.7910   58.4660   -2.0470 O.3       1 ADP365      0.0000 
     15 C2'       121.3950   57.5580   -3.7330 C.3       1 ADP365      0.0000 
     16 O2'       122.2220   58.6700   -3.2990 O.3       1 ADP365      0.0000 
     17 C1'       122.0760   56.1910   -3.8450 C.3       1 ADP365      0.0000 
     18 N9        121.3930   55.3100   -4.8380 N.pl3     1 ADP365      0.0000 
     19 C8        120.5120   54.2840   -4.6010 C.2       1 ADP365      0.0000 
     20 N7        120.0880   53.6970   -5.7790 N.2       1 ADP365      0.0000 
     21 C5        120.7190   54.3380   -6.7950 C.ar      1 ADP365      0.0000 
     22 C6        120.7510   54.2290   -8.2680 C.ar      1 ADP365      0.0000 
     23 N6        120.0050   53.2970   -8.9240 N.pl3     1 ADP365      0.0000 
     24 N1        121.5370   55.0840   -8.9420 N.ar      1 ADP365      0.0000 
     25 C2        122.2900   56.0310   -8.3130 C.ar      1 ADP365      0.0000 
     26 N3        122.3150   56.1820   -6.9680 N.ar      1 ADP365      0.0000 
     27 C4        121.5640   55.3920   -6.1720 C.ar      1 ADP365      0.0000 
     28 H         120.9561   55.0262   -0.0626 H         1 ADP365      0.0000 
     29 H         119.6445   56.2112   -0.1867 H         1 ADP365      0.0000 
     30 H         121.7913   57.0455   -1.1016 H         1 ADP365      0.0000 
     31 H         119.6022   56.6384   -3.0980 H         1 ADP365      0.0000 
     32 H         120.8611   57.7494   -4.6342 H         1 ADP365      0.0000 
     33 H         123.0943   56.3279   -4.0992 H         1 ADP365      0.0000 
     34 H         120.2188   54.0008   -3.7153 H         1 ADP365      0.0000 
     35 H         119.4038   52.7352   -8.3558 H         1 ADP365      0.0000 
     36 H         120.1243   53.2567   -9.9160 H         1 ADP365      0.0000 
     37 H         122.8824   56.6775   -8.9091 H         1 ADP365      0.0000 
     38 H         119.2148   58.8741   -2.7552 H         1 ADP365      0.0000 
     39 H         121.6773   59.4869   -3.4885 H         1 ADP365      0.0000 
@<TRIPOS>BOND
     1    2    1 ar   
     2    3    1 ar   
     3    4    1 ar   
     4    8    1 1    
     5    6    5 ar   
     6    7    5 ar   
     7    8    5 1    
     8    9    5 1    
     9   10    9 1    
    10   11   10 1    
    11   28   10 1    
    12   29   10 1    
    13   12   11 1    
    14   13   11 1    
    15   30   11 1    
    16   17   12 1    
    17   14   13 1    
    18   15   13 1    
    19   31   13 1    
    20   38   14 1    
    21   16   15 1    
    22   17   15 1    
    23   32   15 1    
    24   39   16 1    
    25   18   17 1    
    26   33   17 1    
    27   19   18 1    
    28   27   18 1    
    29   20   19 2    
    30   34   19 1    
    31   21   20 1    
    32   22   21 ar   
    33   27   21 ar   
    34   23   22 1    
    35   24   22 ar   
    36   35   23 1    
    37   36   23 1    
    38   25   24 ar   
    39   26   25 ar   
    40   37   25 1    
    41   27   26 ar   
@<TRIPOS>SUBSTRUCTURE
     1 ADP365      1 GROUP   
@<TRIPOS>SET

