#    Name: 3tif_ADP_2_INTS_M
#    Modification time : Mon Mar 24 20:09:51 2014

@<TRIPOS>MOLECULE
3tif_ADP_2_INTS_M
   54     0    12     0     0
SMALL
NO_CHARGES


@<TRIPOS>ATOM
      1 NZ         28.1965   29.1060  -14.4175 N.4       3 LYC4        0.0000 
      2 NZ         28.6800   29.0000  -16.0980 N.4      11 LYL4        0.0000 
      3 NZ         27.7130   29.2120  -12.7370 N.4       7 LYP4        0.0000 
      4 N          27.4140   29.4945  -16.3290 N.am      2 SEC2        0.0000 
      5 N          28.6800   29.0000  -16.0980 N.am     10 SEL2        0.0000 
      6 N          26.1480   29.9890  -16.5600 N.am      6 SEP2        0.0000 
      7 NZ         28.2970   30.0100  -13.5895 N.4       3 LYC4        0.0000 
      8 NZ         28.8810   30.8080  -14.4420 N.4      11 LYL4        0.0000 
      9 N          28.9545   32.2490  -14.6765 N.am      2 SEC2        0.0000 
     10 N          28.8810   30.8080  -14.4420 N.am     10 SEL2        0.0000 
     11 N          29.0280   33.6900  -14.9110 N.am      6 SEP2        0.0000 
     12 N          29.9100   31.6430  -13.8650 N.am      2 SEC2        0.0000 
     13 N          30.9390   32.4780  -13.2880 N.am      6 SEP2        0.0000 
     14 N          28.2970   30.0100  -13.5895 N.am      2 SEC2        0.0000 
     15 N          27.7130   29.2120  -12.7370 N.am      6 SEP2        0.0000 
     16 NZ         29.2980   29.3670  -13.9195 N.4       3 LYC4        0.0000 
     17 NZ         30.8830   29.5220  -15.1020 N.4      11 LYL4        0.0000 
     18 N          31.9750   30.0475  -14.4715 N.am      2 SEC2        0.0000 
     19 N          30.8830   29.5220  -15.1020 N.am     10 SEL2        0.0000 
     20 N          33.0670   30.5730  -13.8410 N.am      6 SEP2        0.0000 
     21 N          33.4130   32.1115  -16.1525 N.am      2 SEC2        0.0000 
     22 N          32.2310   32.0180  -16.8250 N.am     10 SEL2        0.0000 
     23 N          34.5950   32.2050  -15.4800 N.am      6 SEP2        0.0000 
     24 N          33.0390   32.9265  -17.2560 N.am      2 SEC2        0.0000 
     25 N          33.8470   33.8350  -17.6870 N.am      6 SEP2        0.0000 
     26 N          29.4105   32.4110  -15.8285 N.am      2 SEC2        0.0000 
     27 N          29.7930   31.1320  -16.7460 N.am     10 SEL2        0.0000 
     28 CA         28.1925   32.1850  -18.0565 C.3       4 GLC5        0.0000 
     29 CA         29.8990   33.2560  -18.7030 C.3      12 GLL5        0.0000 
     30 CA         26.4860   31.1140  -17.4100 C.3       8 GLP5        0.0000 
     31 CA         30.1350   33.7485  -16.7885 C.3       4 GLC5        0.0000 
     32 CA         30.3710   34.2410  -14.8740 C.3       8 GLP5        0.0000 
     33 CA         27.4610   31.9605  -19.0310 C.3       4 GLC5        0.0000 
     34 CA         28.4360   32.8070  -20.6520 C.3      12 GLL5        0.0000 
     35 O          27.6070   30.6830  -22.4835 O.2       1 ALC1        0.0000 
     36 O          28.4230   31.8760  -22.8370 O.2       9 ALL1        0.0000 
     37 O          26.7910   29.4900  -22.1300 O.2       5 ALP1        0.0000 
     38 CA         33.3600   35.1305  -25.4430 C.3       4 GLC5        0.0000 
     39 CA         33.6610   32.9280  -25.3670 C.3      12 GLL5        0.0000 
     40 CA         33.0590   37.3330  -25.5190 C.3       8 GLP5        0.0000 
     41 CA         31.7130   32.3725  -26.9410 C.3       4 GLC5        0.0000 
     42 CA         31.8880   34.2100  -26.1660 C.3      12 GLL5        0.0000 
     43 CA         31.5380   30.5350  -27.7160 C.3       8 GLP5        0.0000 
     44 CA         32.4735   35.7715  -25.8425 C.3       4 GLC5        0.0000 
     45 CA         31.3045   34.6170  -27.8160 C.3       4 GLC5        0.0000 
     46 CA         30.7210   35.0240  -29.4660 C.3       8 GLP5        0.0000 
     47 CA         32.4020   35.3505  -24.7560 C.3       4 GLC5        0.0000 
     48 CA         31.7450   33.3680  -23.9930 C.3      12 GLL5        0.0000 
     49 CA         30.9273   35.1760  -19.3115 C.3       4 GLC5        0.0000 
     50 CA         29.3200   33.8080  -19.9770 C.3      12 GLL5        0.0000 
     51 CA         32.2450   36.8200  -19.2830 C.3       8 GLP5        0.0000 
     52 CA         32.2486   31.4374  -25.4190 C.3       4 GLC5        0.0000 
     53 CA         32.9900   32.7750  -24.1550 C.3      12 GLL5        0.0000 
     54 CA         31.9620   29.7650  -26.4610 C.3       8 GLP5        0.0000 
@<TRIPOS>BOND
@<TRIPOS>SUBSTRUCTURE
     1 ALC1       35 GROUP        1 X    ALC  0     ROOT ALC X 1
     2 SEC2        4 GROUP        1 X    SEC  0     **** SEC X 2
     3 LYC4        1 GROUP        1 X    LYC  0     **** LYC X 4
     4 GLC5       28 GROUP        1 X    GLC  0     **** GLC X 6
     5 ALP1       37 GROUP        1 Y    ALP  0     ROOT ALP Y 8
     6 SEP2        6 GROUP        1 Y    SEP  0     **** SEP Y 9
     7 LYP4        3 GROUP        1 Y    LYP  0     **** LYP Y 11
     8 GLP5       30 GROUP        1 Y    GLP  0     **** GLP Y 13
     9 ALL1       36 GROUP        1 Z    ALL  0     ROOT ALL Z 15
    10 SEL2        5 GROUP        1 Z    SEL  0     **** SEL Z 16
    11 LYL4        2 GROUP        1 Z    LYL  0     **** LYL Z 18
    12 GLL5       29 GROUP        1 Z    GLL  0     **** GLL Z 20
@<TRIPOS>SET

