#    Name: 3tif_ADP_2_ligand
#    Modification time : Mon Mar 24 20:09:51 2014

@<TRIPOS>MOLECULE
3tif_ADP_2_ligand
   39    41     1     0     0
SMALL
NO_CHARGES


@<TRIPOS>ATOM
      1 PB         29.5960   30.0870  -15.5510 P.3       1 ADP1        0.0000 
      2 O1B        28.6800   29.0000  -16.0980 O.co2     1 ADP1        0.0000 
      3 O2B        28.8810   30.8080  -14.4420 O.co2     1 ADP1        0.0000 
      4 O3B        30.8830   29.5220  -15.1020 O.co2     1 ADP1        0.0000 
      5 PA         31.1130   31.2840  -17.6240 P.3       1 ADP1        0.0000 
      6 O1A        31.6700   29.9860  -18.1850 O.co2     1 ADP1        0.0000 
      7 O2A        32.2310   32.0180  -16.8250 O.co2     1 ADP1        0.0000 
      8 O3A        29.7930   31.1320  -16.7460 O.3       1 ADP1        0.0000 
      9 O5'        30.7120   32.1450  -18.8770 O.3       1 ADP1        0.0000 
     10 C5'        29.8990   33.2560  -18.7030 C.3       1 ADP1        0.0000 
     11 C4'        29.3200   33.8080  -19.9770 C.3       1 ADP1        0.0000 
     12 O4'        30.3230   34.1620  -20.8910 O.3       1 ADP1        0.0000 
     13 C3'        28.4360   32.8070  -20.6520 C.3       1 ADP1        0.0000 
     14 O3'        27.2530   33.3740  -21.1180 O.3       1 ADP1        0.0000 
     15 C2'        29.2070   32.3170  -21.7600 C.3       1 ADP1        0.0000 
     16 O2'        28.4230   31.8760  -22.8370 O.3       1 ADP1        0.0000 
     17 C1'        30.0910   33.4650  -22.1240 C.3       1 ADP1        0.0000 
     18 N9         31.3440   33.0620  -22.7390 N.pl3     1 ADP1        0.0000 
     19 C8         32.2930   32.3150  -22.1490 C.2       1 ADP1        0.0000 
     20 N7         33.3110   32.1290  -23.0060 N.2       1 ADP1        0.0000 
     21 C5         32.9900   32.7750  -24.1550 C.ar      1 ADP1        0.0000 
     22 C6         33.6610   32.9280  -25.3670 C.ar      1 ADP1        0.0000 
     23 N6         34.9260   32.3340  -25.5600 N.pl3     1 ADP1        0.0000 
     24 N1         33.0900   33.6400  -26.3470 N.ar      1 ADP1        0.0000 
     25 C2         31.8880   34.2100  -26.1660 C.ar      1 ADP1        0.0000 
     26 N3         31.2140   34.0860  -25.0080 N.ar      1 ADP1        0.0000 
     27 C4         31.7450   33.3680  -23.9930 C.ar      1 ADP1        0.0000 
     28 H          30.4463   34.0966  -18.1975 H         1 ADP1        0.0000 
     29 H          29.0375   33.0372  -18.0162 H         1 ADP1        0.0000 
     30 H          28.7048   34.6749  -19.7282 H         1 ADP1        0.0000 
     31 H          28.2627   31.9981  -19.9579 H         1 ADP1        0.0000 
     32 H          29.8709   31.5226  -21.3911 H         1 ADP1        0.0000 
     33 H          29.5283   34.1152  -22.7938 H         1 ADP1        0.0000 
     34 H          32.2493   31.9635  -21.2417 H         1 ADP1        0.0000 
     35 H          35.2775   31.7900  -24.7981 H         1 ADP1        0.0000 
     36 H          35.3636   32.5075  -26.4423 H         1 ADP1        0.0000 
     37 H          31.4596   34.7699  -26.9512 H         1 ADP1        0.0000 
     38 H          27.2124   33.1284  -22.0865 H         1 ADP1        0.0000 
     39 H          27.9240   31.0836  -22.4863 H         1 ADP1        0.0000 
@<TRIPOS>BOND
     1    2    1 ar   
     2    3    1 ar   
     3    4    1 ar   
     4    8    1 1    
     5    6    5 ar   
     6    7    5 ar   
     7    8    5 1    
     8    9    5 1    
     9   10    9 1    
    10   11   10 1    
    11   28   10 1    
    12   29   10 1    
    13   12   11 1    
    14   13   11 1    
    15   30   11 1    
    16   17   12 1    
    17   14   13 1    
    18   15   13 1    
    19   31   13 1    
    20   38   14 1    
    21   16   15 1    
    22   17   15 1    
    23   32   15 1    
    24   39   16 1    
    25   18   17 1    
    26   33   17 1    
    27   19   18 1    
    28   27   18 1    
    29   20   19 2    
    30   34   19 1    
    31   21   20 1    
    32   22   21 ar   
    33   27   21 ar   
    34   23   22 1    
    35   24   22 ar   
    36   35   23 1    
    37   36   23 1    
    38   25   24 ar   
    39   26   25 ar   
    40   37   25 1    
    41   27   26 ar   
@<TRIPOS>SUBSTRUCTURE
     1 ADP1        1 GROUP   
@<TRIPOS>SET

