#    Name: 3VC3_6_CAVITY_N1_ALL.mol2
#    Modification time : Tue Mar 11 10:43:53 2014

@<TRIPOS>MOLECULE
3VC3_6_CAVITY_N1_ALL.mol2
   54     0     4     0     0
SMALL
NO_CHARGES


@<TRIPOS>ATOM
      1 OG         -1.3908    5.5242   32.5320 O.2       1 SER1        0.0000 
      2 N          -1.9543    5.3747   30.4923 N.2       2 ALA2        0.0000 
      3 N          -2.1925    4.5491   31.7218 N.2       2 ALA2        0.0000 
      4 OG         -2.4308    3.7235   32.9513 O.2       1 SER1        0.0000 
      5 O           0.6231    2.3015   34.4182 O.2       2 ALA2        0.0000 
      6 CA          0.2979    2.9775   31.1491 C.3       3 GLY6        0.0000 
      7 O           0.0596    2.1519   32.3786 O.2       2 ALA2        0.0000 
      8 CA         -0.1786    1.3263   33.6080 C.3       3 GLY6        0.0000 
      9 CA         -0.4169    0.5007   34.8375 C.3       3 GLY6        0.0000 
     10 CA         -0.0274    3.6535   27.8799 C.3       3 GLY6        0.0000 
     11 CA         -0.2656    2.8279   29.1094 C.3       3 GLY6        0.0000 
     12 CA         -0.5038    2.0023   30.3389 C.3       3 GLY6        0.0000 
     13 CA         -0.7421    1.1767   31.5684 C.3       3 GLY6        0.0000 
     14 N          -0.9803    0.3512   32.7979 N.2       2 ALA2        0.0000 
     15 N          -1.2186   -0.4744   34.0274 N.2       2 ALA2        0.0000 
     16 CA         -0.8291    2.6784   27.0698 C.3       3 GLY6        0.0000 
     17 CA         -1.0673    1.8528   28.2993 C.3       3 GLY6        0.0000 
     18 CA         -1.3055    1.0272   29.5288 C.3       3 GLY6        0.0000 
     19 CA         -1.5438    0.2016   30.7582 C.3       3 GLY6        0.0000 
     20 OG         -1.8690    0.8776   27.4891 O.2       1 SER1        0.0000 
     21 OG         -2.1073    0.0520   28.7186 O.2       1 SER1        0.0000 
     22 CA         -2.3455   -0.7736   29.9481 C.3       3 GLY6        0.0000 
     23 CA         -0.1456    4.7384   32.2456 C.3       3 GLY6        0.0000 
     24 OG         -0.3839    3.9128   33.4751 O.2       1 SER1        0.0000 
     25 CA         -0.7091    4.5889   30.2059 C.3       3 GLY6        0.0000 
     26 DU         -0.9473    3.7633   31.4354 H         4 CUB7        0.0000 
     27 CA         -1.1856    2.9377   32.6649 C.3       3 GLY6        0.0000 
     28 N          -2.9942    3.5739   30.9117 N.2       2 ALA2        0.0000 
     29 N          -3.2325    2.7483   32.1411 N.2       2 ALA2        0.0000 
     30 OG         -3.5577    3.4244   28.8720 O.2       1 SER1        0.0000 
     31 O          -3.7959    2.5988   30.1015 O.2       2 ALA2        0.0000 
     32 CA         -4.0342    1.7732   31.3310 C.3       3 GLY6        0.0000 
     33 N          -3.4377    5.3349   32.0082 N.2       2 ALA2        0.0000 
     34 N          -4.2394    4.3597   31.1980 N.2       2 ALA2        0.0000 
     35 CA         -1.2726    4.4393   28.1663 C.3       3 GLY6        0.0000 
     36 N          -1.5108    3.6137   29.3958 N.2       2 ALA2        0.0000 
     37 DU         -1.7490    2.7881   30.6253 H         4 CUB7        0.0000 
     38 N          -1.9873    1.9625   31.8548 N.2       2 ALA2        0.0000 
     39 CA         -2.0743    3.4642   27.3562 C.3       3 GLY6        0.0000 
     40 OG         -2.3125    2.6386   28.5856 O.2       1 SER1        0.0000 
     41 DU         -2.5507    1.8130   29.8151 H         4 CUB7        0.0000 
     42 N          -2.7890    0.9874   31.0446 N.2       2 ALA2        0.0000 
     43 N          -2.8760    2.4890   26.5460 N.2       2 ALA2        0.0000 
     44 OG         -3.1142    1.6634   27.7755 O.2       1 SER1        0.0000 
     45 OG         -3.3524    0.8378   29.0050 O.2       1 SER1        0.0000 
     46 O          -3.5907    0.0122   30.2345 O.2       2 ALA2        0.0000 
     47 OG         -4.1542   -0.1373   28.1948 O.2       1 SER1        0.0000 
     48 O          -4.3924   -0.9629   29.4243 O.2       2 ALA2        0.0000 
     49 O           1.3048    1.3661   32.0922 O.2       2 ALA2        0.0000 
     50 O           1.0666    0.5405   33.3217 O.2       2 ALA2        0.0000 
     51 CA          0.5031    0.3909   31.2820 C.3       3 GLY6        0.0000 
     52 CA          0.2649   -0.4346   32.5115 C.3       3 GLY6        0.0000 
     53 CA         -0.2986   -0.5842   30.4719 C.3       3 GLY6        0.0000 
     54 CA         -0.5368   -1.4098   31.7014 C.3       3 GLY6        0.0000 
@<TRIPOS>BOND
@<TRIPOS>SUBSTRUCTURE
     1 SER1        1 GROUP   
     2 ALA2        2 GROUP   
     3 GLY6        6 GROUP   
     4 CUB7       26 GROUP   
@<TRIPOS>SET

