#    Name: 3vc3_C6P_6_INTS_M
#    Modification time : Tue Mar 25 00:38:07 2014

@<TRIPOS>MOLECULE
3vc3_C6P_6_INTS_M
   68     0     6     0     0
SMALL
NO_CHARGES


@<TRIPOS>ATOM
      1 N          -1.8640    8.0095   32.9675 N.am      1 SEC2        0.0000 
      2 N          -2.5760    6.9590   32.5830 N.am      5 SEL2        0.0000 
      3 N          -1.1520    9.0600   33.3520 N.am      3 SEP2        0.0000 
      4 N          -2.7125    7.5175   33.9560 N.am      1 SEC2        0.0000 
      5 N          -2.8490    8.0760   35.3290 N.am      3 SEP2        0.0000 
      6 N          -3.4985    7.5745   31.3765 N.am      1 SEC2        0.0000 
      7 N          -4.4210    8.1900   30.1700 N.am      3 SEP2        0.0000 
      8 N          -5.5900   -0.6115   30.5345 N.am      1 SEC2        0.0000 
      9 N          -4.9290   -0.6980   29.2640 N.am      5 SEL2        0.0000 
     10 N          -6.2510   -0.5250   31.8050 N.am      3 SEP2        0.0000 
     11 N          -6.2545   -0.2175   28.8170 N.am      1 SEC2        0.0000 
     12 N          -7.5800    0.2630   28.3700 N.am      3 SEP2        0.0000 
     13 N          -5.4570    1.8510   29.6435 N.am      1 SEC2        0.0000 
     14 N          -4.2360    1.6570   29.1430 N.am      5 SEL2        0.0000 
     15 N          -6.6780    2.0450   30.1440 N.am      3 SEP2        0.0000 
     16 N          -4.9930    2.1630   28.2895 N.am      1 SEC2        0.0000 
     17 N          -5.7500    2.6690   27.4360 N.am      3 SEP2        0.0000 
     18 N          -3.8845   -0.7250   26.3045 N.am      1 SEC2        0.0000 
     19 N          -3.3970    0.0790   27.4270 N.am      5 SEL2        0.0000 
     20 N          -4.3720   -1.5290   25.1820 N.am      3 SEP2        0.0000 
     21 N          -2.5880   -0.7865   26.8810 N.am      1 SEC2        0.0000 
     22 N          -1.7790   -1.6520   26.3350 N.am      3 SEP2        0.0000 
     23 N          -2.8885    0.9520   26.6370 N.am      1 SEC2        0.0000 
     24 N          -2.3800    1.8250   25.8470 N.am      3 SEP2        0.0000 
     25 CA         -4.5090    0.2545   31.6430 C.3       2 GLC5        0.0000 
     26 CA         -2.7660   -0.3570   31.0600 C.3       6 GLL5        0.0000 
     27 CA         -6.2520    0.8660   32.2260 C.3       4 GLP5        0.0000 
     28 CA         -0.6145   -2.0870   34.4940 C.3       2 GLC5        0.0000 
     29 CA         -1.0890   -1.1150   32.7170 C.3       6 GLL5        0.0000 
     30 CA         -0.1400   -3.0590   36.2710 C.3       4 GLP5        0.0000 
     31 CA          0.7135   -1.7445   32.2940 C.3       2 GLC5        0.0000 
     32 CA          2.5160   -2.3740   31.8710 C.3       4 GLP5        0.0000 
     33 N           0.4010   -1.8535   34.4865 N.am      1 SEC2        0.0000 
     34 N          -0.1100   -0.9170   33.6070 N.am      5 SEL2        0.0000 
     35 N           0.9120   -2.7900   35.3660 N.am      3 SEP2        0.0000 
     36 CA          3.4505    0.3925   34.7340 C.3       2 GLC5        0.0000 
     37 CA          1.4700    0.4750   34.8450 C.3       6 GLL5        0.0000 
     38 CA          5.4310    0.3100   34.6230 C.3       4 GLP5        0.0000 
     39 N           1.6875    2.8360   33.8125 N.am      1 SEC2        0.0000 
     40 N           0.3590    2.6390   33.4330 N.am      5 SEL2        0.0000 
     41 N           3.0160    3.0330   34.1920 N.am      3 SEP2        0.0000 
     42 CA         -1.6620    6.3575   30.8855 C.3       2 GLC5        0.0000 
     43 CA         -2.5530    4.6900   31.8060 C.3       6 GLL5        0.0000 
     44 CA         -0.7710    8.0250   29.9650 C.3       4 GLP5        0.0000 
     45 N           0.2140    6.5940   32.0820 N.am      1 SEC2        0.0000 
     46 N          -0.7320    5.8300   32.8320 N.am      5 SEL2        0.0000 
     47 N           1.1600    7.3580   31.3320 N.am      3 SEP2        0.0000 
     48 CA         -3.7680    5.1985   35.2200 C.3       2 GLC5        0.0000 
     49 CA         -4.5580    4.3790   33.7380 C.3       6 GLL5        0.0000 
     50 CA         -2.9780    6.0180   36.7020 C.3       4 GLP5        0.0000 
     51 CA         -3.5350    3.0875   34.7875 C.3       2 GLC5        0.0000 
     52 CA         -2.5120    1.7960   35.8370 C.3       4 GLP5        0.0000 
     53 CA         -6.4035    4.1555   34.2345 C.3       2 GLC5        0.0000 
     54 CA         -8.2490    3.9320   34.7310 C.3       4 GLP5        0.0000 
     55 CA         -1.9405    0.6040   34.1013 C.3       2 GLC5        0.0000 
     56 CA         -1.6490   -0.0610   32.0140 C.3       6 GLL5        0.0000 
     57 CA         -1.4801   -2.1695   30.8430 C.3       2 GLC5        0.0000 
     58 CA         -1.3120   -3.6770   29.5590 C.3       4 GLP5        0.0000 
     59 CA         -0.7945    1.0915   35.0905 C.3       2 GLC5        0.0000 
     60 CA          0.3760    0.2990   33.8430 C.3       6 GLL5        0.0000 
     61 CA          0.3915   -1.3360   35.3075 C.3       2 GLC5        0.0000 
     62 CA          1.7195   -0.9935   33.1075 C.3       2 GLC5        0.0000 
     63 CA         -1.8489    1.8371   33.9806 C.3       2 GLC5        0.0000 
     64 CA         -0.1450    1.3940   33.1720 C.3       6 GLL5        0.0000 
     65 CA         -6.0305    5.6785   32.3882 C.3       2 GLC5        0.0000 
     66 CA         -7.7730    6.8220   31.8670 C.3       4 GLP5        0.0000 
     67 CA         -5.2700    2.7005   32.5678 C.3       2 GLC5        0.0000 
     68 CA         -4.0180    4.6910   32.0810 C.3       6 GLL5        0.0000 
@<TRIPOS>BOND
@<TRIPOS>SUBSTRUCTURE
     1 SEC2        1 GROUP        1 X    SEC  0     ROOT SEC X 2
     2 GLC5       25 GROUP        1 X    GLC  0     **** GLC X 6
     3 SEP2        3 GROUP        1 Y    SEP  0     ROOT SEP Y 9
     4 GLP5       27 GROUP        1 Y    GLP  0     **** GLP Y 13
     5 SEL2        2 GROUP        1 Z    SEL  0     ROOT SEL Z 16
     6 GLL5       26 GROUP        1 Z    GLL  0     **** GLL Z 20
@<TRIPOS>SET

