#    Name: 3vc3_C6P_6_ligand
#    Modification time : Tue Mar 25 00:38:07 2014

@<TRIPOS>MOLECULE
3vc3_C6P_6_ligand
   34    34     1     0     0
SMALL
NO_CHARGES


@<TRIPOS>ATOM
      1 N          -1.9510    3.5490   32.4320 N.4       1 C6P501      0.0000 
      2 C          -1.9270    5.8910   32.4360 C.2       1 C6P501      0.0000 
      3 O          -2.5760    6.9590   32.5830 O.co2     1 C6P501      0.0000 
      4 P          -3.8260    0.2370   28.8600 P.3       1 C6P501      0.0000 
      5 OP3        -4.9290   -0.6980   29.2640 O.co2     1 C6P501      0.0000 
      6 OP1        -4.2360    1.6570   29.1430 O.co2     1 C6P501      0.0000 
      7 OP2        -3.3970    0.0790   27.4270 O.co2     1 C6P501      0.0000 
      8 OP4        -2.5790   -0.1200   29.7310 O.3       1 C6P501      0.0000 
      9 C5M        -2.7660   -0.3570   31.0600 C.3       1 C6P501      0.0000 
     10 C5         -1.6490   -0.0610   32.0140 C.ar      1 C6P501      0.0000 
     11 C6         -1.0890   -1.1150   32.7170 C.ar      1 C6P501      0.0000 
     12 N1         -0.1100   -0.9170   33.6070 N.ar      1 C6P501      0.0000 
     13 C2          0.3760    0.2990   33.8430 C.ar      1 C6P501      0.0000 
     14 C2A         1.4700    0.4750   34.8450 C.3       1 C6P501      0.0000 
     15 C3         -0.1450    1.3940   33.1720 C.ar      1 C6P501      0.0000 
     16 O3          0.3590    2.6390   33.4330 O.3       1 C6P501      0.0000 
     17 C4         -1.1700    1.2310   32.2370 C.ar      1 C6P501      0.0000 
     18 C4A        -1.7140    2.4440   31.5440 C.3       1 C6P501      0.0000 
     19 CA         -2.5530    4.6900   31.8060 C.3       1 C6P501      0.0000 
     20 OXT        -0.7320    5.8300   32.8320 O.co2     1 C6P501      0.0000 
     21 CB         -4.0180    4.6910   32.0810 C.3       1 C6P501      0.0000 
     22 SG         -4.5580    4.3790   33.7380 S.3       1 C6P501      0.0000 
     23 H          -3.0697   -1.4464   31.2522 H         1 C6P501      0.0000 
     24 H          -3.6841    0.2027   31.4599 H         1 C6P501      0.0000 
     25 H          -1.4540   -2.0797   32.5331 H         1 C6P501      0.0000 
     26 H          -1.0014    2.7331   30.7394 H         1 C6P501      0.0000 
     27 H          -2.6521    2.1533   31.0203 H         1 C6P501      0.0000 
     28 H          -2.3712    4.7020   30.7626 H         1 C6P501      0.0000 
     29 H          -4.5676    3.9235   31.5047 H         1 C6P501      0.0000 
     30 H          -4.5010    5.6596   31.8533 H         1 C6P501      0.0000 
     31 H           2.2872   -0.0456   34.5979 H         1 C6P501      0.0000 
     32 H           1.7465    1.4324   34.9287 H         1 C6P501      0.0000 
     33 H           1.1921    0.1695   35.7558 H         1 C6P501      0.0000 
     34 H          -0.0258    3.2281   32.7224 H         1 C6P501      0.0000 
@<TRIPOS>BOND
     1   18    1 1    
     2   19    1 1    
     3    3    2 ar   
     4   19    2 1    
     5   20    2 ar   
     6    5    4 ar   
     7    6    4 ar   
     8    7    4 ar   
     9    8    4 1    
    10    9    8 1    
    11   10    9 1    
    12   23    9 1    
    13   24    9 1    
    14   11   10 ar   
    15   17   10 ar   
    16   12   11 ar   
    17   25   11 1    
    18   13   12 ar   
    19   14   13 1    
    20   15   13 ar   
    21   31   14 1    
    22   32   14 1    
    23   33   14 1    
    24   16   15 1    
    25   17   15 ar   
    26   34   16 1    
    27   18   17 1    
    28   26   18 1    
    29   27   18 1    
    30   21   19 1    
    31   28   19 1    
    32   22   21 1    
    33   29   21 1    
    34   30   21 1    
@<TRIPOS>SUBSTRUCTURE
     1 C6P501      1 GROUP   
@<TRIPOS>SET

