#    Name: 3oxt_3SB_1_INTS_M
#    Modification time : Tue Mar 25 05:36:40 2014

@<TRIPOS>MOLECULE
3oxt_3SB_1_INTS_M
   64     0    12     0     0
SMALL
NO_CHARGES


@<TRIPOS>ATOM
      1 OD1        24.4165   -7.8575   -0.7665 O.co2     3 ASC3        0.0000 
      2 OD1        24.3810   -8.3210    0.4730 O.co2    11 ASL3        0.0000 
      3 OD1        24.4520   -7.3940   -2.0060 O.co2     7 ASP3        0.0000 
      4 O          24.8300   -6.7825    0.7085 O.2       1 ALC1        0.0000 
      5 O          24.3810   -8.3210    0.4730 O.2       9 ALL1        0.0000 
      6 O          25.2790   -5.2440    0.9440 O.2       5 ALP1        0.0000 
      7 O          24.4165   -7.8575   -0.7665 O.2       1 ALC1        0.0000 
      8 O          24.4520   -7.3940   -2.0060 O.2       5 ALP1        0.0000 
      9 O          24.9165   -7.6130    1.5835 O.2       1 ALC1        0.0000 
     10 O          25.4520   -6.9050    2.6940 O.2       5 ALP1        0.0000 
     11 N          36.3795   -9.3680    4.2465 N.am      2 SEC2        0.0000 
     12 N          35.1480   -9.8310    3.4690 N.am     10 SEL2        0.0000 
     13 N          37.6110   -8.9050    5.0240 N.am      6 SEP2        0.0000 
     14 O          36.2040  -10.0390    2.6300 O.2       1 ALC1        0.0000 
     15 O          35.1480   -9.8310    3.4690 O.2       9 ALL1        0.0000 
     16 O          37.2600  -10.2470    1.7910 O.2       5 ALP1        0.0000 
     17 N          31.3585   -8.6330   -0.0965 N.am      2 SEC2        0.0000 
     18 N          31.2540   -9.6820    0.6890 N.am     10 SEL2        0.0000 
     19 N          31.4630   -7.5840   -0.8820 N.am      6 SEP2        0.0000 
     20 CA         25.8205  -13.6665   -1.3140 C.3       4 GLC5        0.0000 
     21 CA         23.7200  -13.1280   -0.7950 C.3      12 GLL5        0.0000 
     22 CA         27.9210  -14.2050   -1.8330 C.3       8 GLP5        0.0000 
     23 CA         24.5215  -14.6965    1.5285 C.3       4 GLC5        0.0000 
     24 CA         24.1540  -13.1330    0.5220 C.3      12 GLL5        0.0000 
     25 CA         24.8890  -16.2600    2.5350 C.3       8 GLP5        0.0000 
     26 CA         30.5210  -11.5910    6.5235 C.3       4 GLC5        0.0000 
     27 CA         30.6110  -10.0670    5.5130 C.3      12 GLL5        0.0000 
     28 CA         30.4310  -13.1150    7.5340 C.3       8 GLP5        0.0000 
     29 CA         31.1535   -9.4040    7.0025 C.3       4 GLC5        0.0000 
     30 CA         31.6960   -8.7410    8.4920 C.3       8 GLP5        0.0000 
     31 CA         34.5310   -8.9570    0.5420 C.3       4 GLC5        0.0000 
     32 CA         33.1940   -9.7460    2.0910 C.3      12 GLL5        0.0000 
     33 CA         35.8680   -8.1680   -1.0070 C.3       8 GLP5        0.0000 
     34 CA         31.1115  -11.6815    2.4355 C.3       4 GLC5        0.0000 
     35 CA         31.8050   -9.7590    1.9480 C.3      12 GLL5        0.0000 
     36 CA         30.4180  -13.6040    2.9230 C.3       8 GLP5        0.0000 
     37 CA         32.1240   -8.2387    3.5688 C.3       4 GLC5        0.0000 
     38 CA         30.9890   -9.8620    3.0590 C.3      12 GLL5        0.0000 
     39 CA         32.9760   -6.5670    3.4440 C.3       8 GLP5        0.0000 
     40 CA         30.6545   -8.0668    1.5143 C.3       4 GLC5        0.0000 
     41 CA         29.9120   -6.3230    0.5250 C.3       8 GLP5        0.0000 
     42 CA         25.8418  -11.5554   -1.6639 C.3       4 GLC5        0.0000 
     43 CA         23.7110  -11.9360   -1.5210 C.3      12 GLL5        0.0000 
     44 CA         27.6550  -11.7660   -2.4420 C.3       8 GLP5        0.0000 
     45 CA         24.4733  -14.0045   -2.3560 C.3       4 GLC5        0.0000 
     46 CA         25.2310  -15.4770   -3.5540 C.3       8 GLP5        0.0000 
     47 CA         23.1365  -15.0338   -0.1733 C.3       4 GLC5        0.0000 
     48 CA         22.3360  -16.9370   -0.2100 C.3       8 GLP5        0.0000 
     49 CA         23.6035  -13.0365    2.7470 C.3       4 GLC5        0.0000 
     50 CA         22.8440  -13.5300    4.6660 C.3       8 GLP5        0.0000 
     51 CA         26.2755  -12.8450    1.3120 C.3       4 GLC5        0.0000 
     52 CA         28.1880  -13.1470    1.7960 C.3       8 GLP5        0.0000 
     53 CA         32.5760  -11.5975    5.6233 C.3       4 GLC5        0.0000 
     54 CA         31.5550   -9.9590    4.3280 C.3      12 GLL5        0.0000 
     55 CA         32.8990  -13.2450    6.8420 C.3       8 GLP5        0.0000 
     56 CA         33.4105  -11.4660    3.6692 C.3       4 GLC5        0.0000 
     57 CA         32.9510   -9.9410    4.4810 C.3      12 GLL5        0.0000 
     58 CA         34.5680  -12.9820    2.9340 C.3       8 GLP5        0.0000 
     59 CA         30.6797  -11.7964    3.7631 C.3       4 GLC5        0.0000 
     60 CA         33.1670   -8.2293    3.6812 C.3       4 GLC5        0.0000 
     61 CA         32.7378   -8.1598    2.7317 C.3       4 GLC5        0.0000 
     62 CA         33.6051  -11.3792    2.6349 C.3       4 GLC5        0.0000 
     63 CA         22.3708  -12.4479    0.7124 C.3       4 GLC5        0.0000 
     64 CA         20.7040  -12.5080    1.6800 C.3       8 GLP5        0.0000 
@<TRIPOS>BOND
@<TRIPOS>SUBSTRUCTURE
     1 ALC1        4 GROUP        1 X    ALC  0     ROOT ALC X 1
     2 SEC2       11 GROUP        1 X    SEC  0     **** SEC X 2
     3 ASC3        1 GROUP        1 X    ASC  0     **** ASC X 3
     4 GLC5       20 GROUP        1 X    GLC  0     **** GLC X 6
     5 ALP1        6 GROUP        1 Y    ALP  0     ROOT ALP Y 8
     6 SEP2       13 GROUP        1 Y    SEP  0     **** SEP Y 9
     7 ASP3        3 GROUP        1 Y    ASP  0     **** ASP Y 10
     8 GLP5       22 GROUP        1 Y    GLP  0     **** GLP Y 13
     9 ALL1        5 GROUP        1 Z    ALL  0     ROOT ALL Z 15
    10 SEL2       12 GROUP        1 Z    SEL  0     **** SEL Z 16
    11 ASL3        2 GROUP        1 Z    ASL  0     **** ASL Z 17
    12 GLL5       21 GROUP        1 Z    GLL  0     **** GLL Z 20
@<TRIPOS>SET

