#    Name: 3oxt_3SB_1_ligand
#    Modification time : Tue Mar 25 05:36:40 2014

@<TRIPOS>MOLECULE
3oxt_3SB_1_ligand
   40    41     1     0     0
SMALL
NO_CHARGES


@<TRIPOS>ATOM
      1 C1         24.5580  -10.7550    0.4120 C.ar      1 3SB2001     0.0000 
      2 N1         24.3810   -8.3210    0.4730 N.4       1 3SB2001     0.0000 
      3 O1         26.9680   -8.9360   -0.2220 O.2       1 3SB2001     0.0000 
      4 C2         25.0190   -9.4600    1.0570 C.3       1 3SB2001     0.0000 
      5 N2         27.4170   -9.6100    1.9590 N.am      1 3SB2001     0.0000 
      6 O2         35.1480   -9.8310    3.4690 O.3       1 3SB2001     0.0000 
      7 C3         26.5160   -9.3020    0.8590 C.2       1 3SB2001     0.0000 
      8 N3         28.7930   -9.5100    1.8760 N.2       1 3SB2001     0.0000 
      9 O3         31.2540   -9.6820    0.6890 O.3       1 3SB2001     0.0000 
     10 C4         29.4780   -9.8890    2.9590 C.2       1 3SB2001     0.0000 
     11 C5         30.9890   -9.8620    3.0590 C.ar      1 3SB2001     0.0000 
     12 C6         24.1340  -10.7520   -0.9130 C.ar      1 3SB2001     0.0000 
     13 C7         23.7110  -11.9360   -1.5210 C.ar      1 3SB2001     0.0000 
     14 C8         23.7200  -13.1280   -0.7950 C.ar      1 3SB2001     0.0000 
     15 C9         24.1540  -13.1330    0.5220 C.ar      1 3SB2001     0.0000 
     16 C10        24.5720  -11.9530    1.1340 C.ar      1 3SB2001     0.0000 
     17 C11        31.5550   -9.9590    4.3280 C.ar      1 3SB2001     0.0000 
     18 C12        30.6110  -10.0670    5.5130 C.3       1 3SB2001     0.0000 
     19 C13        32.9510   -9.9410    4.4810 C.ar      1 3SB2001     0.0000 
     20 C14        33.7650   -9.8420    3.3560 C.ar      1 3SB2001     0.0000 
     21 C15        33.1940   -9.7460    2.0910 C.ar      1 3SB2001     0.0000 
     22 C16        31.8050   -9.7590    1.9480 C.ar      1 3SB2001     0.0000 
     23 H          24.8307   -9.5126    2.1167 H         1 3SB2001     0.0000 
     24 H          26.9690   -9.9226    2.8517 H         1 3SB2001     0.0000 
     25 H          29.0068  -10.2372    3.8290 H         1 3SB2001     0.0000 
     26 H          24.1311   -9.8737   -1.4502 H         1 3SB2001     0.0000 
     27 H          23.3956  -11.9292   -2.4956 H         1 3SB2001     0.0000 
     28 H          23.4045  -13.9991   -1.2397 H         1 3SB2001     0.0000 
     29 H          24.1687  -14.0163    1.0558 H         1 3SB2001     0.0000 
     30 H          24.8886  -11.9603    2.1082 H         1 3SB2001     0.0000 
     31 H          33.3618  -10.0006    5.4159 H         1 3SB2001     0.0000 
     32 H          33.7928   -9.6654    1.2599 H         1 3SB2001     0.0000 
     33 H          24.5746   -8.2478   -0.5053 H         1 3SB2001     0.0000 
     34 H          23.3868   -8.3604    0.5728 H         1 3SB2001     0.0000 
     35 H          24.6845   -7.4675    0.8966 H         1 3SB2001     0.0000 
     36 H          31.1074  -10.1280    6.3789 H         1 3SB2001     0.0000 
     37 H          30.0045   -9.2746    5.5781 H         1 3SB2001     0.0000 
     38 H          30.0287  -10.8776    5.4512 H         1 3SB2001     0.0000 
     39 H          35.4837  -10.0843    2.5617 H         1 3SB2001     0.0000 
     40 H          30.2720   -9.8098    0.8282 H         1 3SB2001     0.0000 
@<TRIPOS>BOND
     1    4    1 1    
     2   12    1 ar   
     3   16    1 ar   
     4    4    2 1    
     5   33    2 1    
     6   34    2 1    
     7   35    2 1    
     8    7    3 2    
     9    7    4 1    
    10   23    4 1    
    11    7    5 am   
    12    8    5 1    
    13   24    5 1    
    14   20    6 1    
    15   39    6 1    
    16   10    8 2    
    17   22    9 1    
    18   40    9 1    
    19   11   10 1    
    20   25   10 1    
    21   17   11 ar   
    22   22   11 ar   
    23   13   12 ar   
    24   26   12 1    
    25   14   13 ar   
    26   27   13 1    
    27   15   14 ar   
    28   28   14 1    
    29   16   15 ar   
    30   29   15 1    
    31   30   16 1    
    32   18   17 1    
    33   19   17 ar   
    34   36   18 1    
    35   37   18 1    
    36   38   18 1    
    37   20   19 ar   
    38   31   19 1    
    39   21   20 ar   
    40   22   21 ar   
    41   32   21 1    
@<TRIPOS>SUBSTRUCTURE
     1 3SB2001     1 GROUP   
@<TRIPOS>SET

