#    Name: 3g86_T18_2_INTS_M
#    Modification time : Tue Mar 25 07:19:54 2014

@<TRIPOS>MOLECULE
3g86_T18_2_INTS_M
   65     0     9     0     0
SMALL
NO_CHARGES


@<TRIPOS>ATOM
      1 CA         35.5885  -10.9245   -4.7785 C.3       3 GLC5        0.0000 
      2 CA         34.0740  -10.0980   -3.6610 C.3       9 GLL5        0.0000 
      3 CA         37.1030  -11.7510   -5.8960 C.3       6 GLP5        0.0000 
      4 CA         31.3780   -6.8045   -1.4650 C.3       3 GLC5        0.0000 
      5 CA         32.4430   -8.3580   -2.2170 C.3       9 GLL5        0.0000 
      6 CA         30.3130   -5.2510   -0.7130 C.3       6 GLP5        0.0000 
      7 CA         32.7600   -5.5255   -6.3475 C.3       3 GLC5        0.0000 
      8 CA         31.9880   -7.1380   -6.0280 C.3       9 GLL5        0.0000 
      9 CA         33.5320   -3.9130   -6.6670 C.3       6 GLP5        0.0000 
     10 O          32.9515  -10.9080    0.3065 O.2       1 ALC1        0.0000 
     11 O          32.7580   -9.6650   -0.2000 O.2       7 ALL1        0.0000 
     12 O          33.1450  -12.1510    0.8130 O.2       4 ALP1        0.0000 
     13 CA         30.4910   -6.8365    0.1405 C.3       3 GLC5        0.0000 
     14 CA         30.6690   -8.4220    0.9940 C.3       9 GLL5        0.0000 
     15 N          32.6530   -8.9655    3.5480 N.am      2 SEC2        0.0000 
     16 N          33.0180   -9.0330    2.1490 N.am      8 SEL2        0.0000 
     17 N          32.2880   -8.8980    4.9470 N.am      5 SEP2        0.0000 
     18 N          34.2160  -10.0145    2.1865 N.am      2 SEC2        0.0000 
     19 N          35.4140  -10.9960    2.2240 N.am      5 SEP2        0.0000 
     20 CA         30.5475   -8.6825  -14.8550 C.3       3 GLC5        0.0000 
     21 CA         31.4650   -8.8320  -12.8580 C.3       9 GLL5        0.0000 
     22 CA         29.6300   -8.5330  -16.8520 C.3       6 GLP5        0.0000 
     23 CA         31.5710   -5.0615  -10.5645 C.3       3 GLC5        0.0000 
     24 CA         31.1590   -7.1880  -11.1070 C.3       9 GLL5        0.0000 
     25 CA         31.9830   -2.9350  -10.0220 C.3       6 GLP5        0.0000 
     26 CA         34.2385   -7.9500  -11.5045 C.3       3 GLC5        0.0000 
     27 CA         32.5690   -9.1360  -10.7160 C.3       9 GLL5        0.0000 
     28 CA         35.9080   -6.7640  -12.2930 C.3       6 GLP5        0.0000 
     29 CA         29.8845   -7.7195  -15.0065 C.3       3 GLC5        0.0000 
     30 CA         30.1390   -6.9060  -13.1610 C.3       9 GLL5        0.0000 
     31 N          32.3315   -5.0680   -8.3025 N.am      2 SEC2        0.0000 
     32 N          31.7350   -6.2610   -8.5920 N.am      8 SEL2        0.0000 
     33 N          32.9280   -3.8750   -8.0130 N.am      5 SEP2        0.0000 
     34 CA         33.6560  -12.0475  -12.2370 C.3       3 GLC5        0.0000 
     35 CA         33.9580  -11.1430  -10.3240 C.3       9 GLL5        0.0000 
     36 CA         33.3540  -12.9520  -14.1500 C.3       6 GLP5        0.0000 
     37 CA         39.8515   -8.7390  -13.3865 C.3       3 GLC5        0.0000 
     38 CA         38.9600   -9.4630  -12.3940 C.3       9 GLL5        0.0000 
     39 CA         40.7430   -8.0150  -14.3790 C.3       6 GLP5        0.0000 
     40 CA         37.4340   -8.1135  -12.3435 C.3       3 GLC5        0.0000 
     41 CA         36.0188   -9.9217   -2.9487 C.3       3 GLC5        0.0000 
     42 CA         38.0820   -9.6380   -2.9170 C.3       6 GLP5        0.0000 
     43 CA         35.1328  -11.8577   -2.4367 C.3       3 GLC5        0.0000 
     44 CA         36.3100  -13.5100   -1.8930 C.3       6 GLP5        0.0000 
     45 CA         34.2515   -6.8830   -7.5835 C.3       3 GLC5        0.0000 
     46 CA         32.8920   -8.0360   -6.5020 C.3       9 GLL5        0.0000 
     47 CA         35.6540   -5.5620   -7.9350 C.3       6 GLP5        0.0000 
     48 CA         29.8170   -6.1527  -14.1148 C.3       3 GLC5        0.0000 
     49 CA         30.9150   -7.6430  -12.3760 C.3       9 GLL5        0.0000 
     50 CA         29.1070   -5.0310  -15.4610 C.3       6 GLP5        0.0000 
     51 CA         32.9603   -8.4823  -13.7005 C.3       3 GLC5        0.0000 
     52 CA         34.0550   -7.7620  -14.9630 C.3       6 GLP5        0.0000 
     53 CA         32.2365   -6.8234  -13.3081 C.3       3 GLC5        0.0000 
     54 CA         33.8850   -6.4860  -14.1650 C.3       6 GLP5        0.0000 
     55 CA         35.9991  -11.6986   -8.7724 C.3       3 GLC5        0.0000 
     56 CA         36.2770  -10.1830  -10.0680 C.3       9 GLL5        0.0000 
     57 CA         36.5470  -12.8450   -7.2040 C.3       6 GLP5        0.0000 
     58 CA         38.4220   -9.1783  -13.8540 C.3       3 GLC5        0.0000 
     59 CA         37.7600   -9.8730  -11.9280 C.3       9 GLL5        0.0000 
     60 CA         39.5610   -8.2210  -15.3470 C.3       6 GLP5        0.0000 
     61 CA         39.6060  -10.3585  -10.7564 C.3       3 GLC5        0.0000 
     62 CA         40.9170  -11.0750   -9.6930 C.3       6 GLP5        0.0000 
     63 CA         39.3837  -11.2096  -12.8053 C.3       3 GLC5        0.0000 
     64 CA         40.6460  -12.6200  -13.2330 C.3       6 GLP5        0.0000 
     65 CA         36.2216   -8.5271  -11.8564 C.3       3 GLC5        0.0000 
@<TRIPOS>BOND
@<TRIPOS>SUBSTRUCTURE
     1 ALC1       10 GROUP        1 X    ALC  0     ROOT ALC X 1
     2 SEC2       15 GROUP        1 X    SEC  0     **** SEC X 2
     3 GLC5        1 GROUP        1 X    GLC  0     **** GLC X 6
     4 ALP1       12 GROUP        1 Y    ALP  0     ROOT ALP Y 8
     5 SEP2       17 GROUP        1 Y    SEP  0     **** SEP Y 9
     6 GLP5        3 GROUP        1 Y    GLP  0     **** GLP Y 13
     7 ALL1       11 GROUP        1 Z    ALL  0     ROOT ALL Z 15
     8 SEL2       16 GROUP        1 Z    SEL  0     **** SEL Z 16
     9 GLL5        2 GROUP        1 Z    GLL  0     **** GLL Z 20
@<TRIPOS>SET

