#    Name: 3g86_T18_2_ligand
#    Modification time : Tue Mar 25 07:19:55 2014

@<TRIPOS>MOLECULE
3g86_T18_2_ligand
   56    60     1     0     0
SMALL
NO_CHARGES


@<TRIPOS>ATOM
      1 C1         33.8370  -10.3130   -2.3000 C.ar      1 T18571      0.0000 
      2 C2         33.0290   -9.4390   -1.5670 C.ar      1 T18571      0.0000 
      3 C3         34.0740  -10.0980   -3.6610 C.ar      1 T18571      0.0000 
      4 C4         32.4430   -8.3580   -2.2170 C.ar      1 T18571      0.0000 
      5 C5         33.5080   -8.9760   -4.3010 C.ar      1 T18571      0.0000 
      6 C6         32.6850   -8.1140   -3.5540 C.ar      1 T18571      0.0000 
      7 S7         31.9620   -6.6890   -4.3170 S.o2      1 T18571      0.0000 
      8 C8         31.9880   -7.1380   -6.0280 C.2       1 T18571      0.0000 
      9 C9         32.8920   -8.0360   -6.5020 C.2       1 T18571      0.0000 
     10 N10        33.7450   -8.7340   -5.6490 N.pl3     1 T18571      0.0000 
     11 N11        32.7580   -9.6650   -0.2000 N.pl3     1 T18571      0.0000 
     12 S12        32.4720   -8.5090    0.9490 S.o2      1 T18571      0.0000 
     13 C13        30.6690   -8.4220    0.9940 C.3       1 T18571      0.0000 
     14 O14        33.0180   -9.0330    2.1490 O.2       1 T18571      0.0000 
     15 O15        33.0970   -7.3000    0.5060 O.2       1 T18571      0.0000 
     16 O16        30.6490   -6.4650   -3.8810 O.2       1 T18571      0.0000 
     17 O17        32.9020   -5.6230   -4.0810 O.2       1 T18571      0.0000 
     18 C18        30.9150   -7.6430  -12.3760 C.ar      1 T18571      0.0000 
     19 C19        31.4650   -8.8320  -12.8580 C.ar      1 T18571      0.0000 
     20 C20        32.2660   -9.5730  -12.0180 C.ar      1 T18571      0.0000 
     21 C21        31.1590   -7.1880  -11.1070 C.ar      1 T18571      0.0000 
     22 C22        32.0320   -7.9160  -10.2800 C.ar      1 T18571      0.0000 
     23 C23        32.5690   -9.1360  -10.7160 C.ar      1 T18571      0.0000 
     24 N24        33.3200   -9.9040   -9.8280 N.am      1 T18571      0.0000 
     25 C25        33.3590   -9.5890   -8.4850 C.2       1 T18571      0.0000 
     26 C26        32.8060   -8.3720   -7.9620 C.2       1 T18571      0.0000 
     27 C27        32.2030   -7.4860   -8.8970 C.2       1 T18571      0.0000 
     28 F28        30.1390   -6.9060  -13.1610 F         1 T18571      0.0000 
     29 O29        31.7350   -6.2610   -8.5920 O.co2     1 T18571      0.0000 
     30 C30        33.9580  -11.1430  -10.3240 C.3       1 T18571      0.0000 
     31 O31        33.9740  -10.3180   -7.7210 O.2       1 T18571      0.0000 
     32 C32        35.2930  -10.7000  -10.9030 C.ar      1 T18571      0.0000 
     33 C33        36.2770  -10.1830  -10.0680 C.ar      1 T18571      0.0000 
     34 C34        37.7600   -9.8730  -11.9280 C.ar      1 T18571      0.0000 
     35 C35        36.8060  -10.3980  -12.7940 C.ar      1 T18571      0.0000 
     36 C36        37.5000   -9.7690  -10.5630 C.ar      1 T18571      0.0000 
     37 C37        35.5730  -10.8150  -12.2700 C.ar      1 T18571      0.0000 
     38 F38        38.9600   -9.4630  -12.3940 F         1 T18571      0.0000 
     39 H          34.2637  -11.1267   -1.8311 H         1 T18571      0.0000 
     40 H          34.6543  -10.7482   -4.1947 H         1 T18571      0.0000 
     41 H          31.8145   -7.7274   -1.6844 H         1 T18571      0.0000 
     42 H          31.2714   -6.6379   -6.5015 H         1 T18571      0.0000 
     43 H          34.6499   -9.1113   -6.0645 H         1 T18571      0.0000 
     44 H          32.7145  -10.6147    0.2119 H         1 T18571      0.0000 
     45 H          31.2729   -9.1372  -13.8112 H         1 T18571      0.0000 
     46 H          32.6617  -10.4772  -12.3416 H         1 T18571      0.0000 
     47 H          30.7217   -6.3354  -10.7522 H         1 T18571      0.0000 
     48 H          33.3695  -11.5908  -11.1003 H         1 T18571      0.0000 
     49 H          34.1342  -11.8298   -9.5198 H         1 T18571      0.0000 
     50 H          36.0859  -10.1072   -9.0485 H         1 T18571      0.0000 
     51 H          36.9940  -10.4804  -13.7910 H         1 T18571      0.0000 
     52 H          38.2144   -9.3871   -9.9333 H         1 T18571      0.0000 
     53 H          34.8619  -11.2127  -12.9035 H         1 T18571      0.0000 
     54 H          30.3461   -7.7505    1.6610 H         1 T18571      0.0000 
     55 H          30.2875   -8.1611    0.1072 H         1 T18571      0.0000 
     56 H          30.2608   -9.3007    1.2416 H         1 T18571      0.0000 
@<TRIPOS>BOND
     1    2    1 ar   
     2    3    1 ar   
     3   39    1 1    
     4    4    2 ar   
     5   11    2 1    
     6    5    3 ar   
     7   40    3 1    
     8    6    4 ar   
     9   41    4 1    
    10    6    5 ar   
    11   10    5 1    
    12    7    6 1    
    13    8    7 1    
    14   16    7 2    
    15   17    7 2    
    16    9    8 2    
    17   42    8 1    
    18   10    9 1    
    19   26    9 1    
    20   43   10 1    
    21   12   11 1    
    22   44   11 1    
    23   13   12 1    
    24   14   12 2    
    25   15   12 2    
    26   54   13 1    
    27   55   13 1    
    28   56   13 1    
    29   19   18 ar   
    30   21   18 ar   
    31   28   18 1    
    32   20   19 ar   
    33   45   19 1    
    34   23   20 ar   
    35   46   20 1    
    36   22   21 ar   
    37   47   21 1    
    38   23   22 ar   
    39   27   22 1    
    40   24   23 1    
    41   25   24 am   
    42   30   24 1    
    43   26   25 1    
    44   31   25 2    
    45   27   26 2    
    46   29   27 ar   
    47   32   30 1    
    48   48   30 1    
    49   49   30 1    
    50   33   32 ar   
    51   37   32 ar   
    52   36   33 ar   
    53   50   33 1    
    54   35   34 ar   
    55   36   34 ar   
    56   38   34 1    
    57   37   35 ar   
    58   51   35 1    
    59   52   36 1    
    60   53   37 1    
@<TRIPOS>SUBSTRUCTURE
     1 T18571      1 GROUP   
@<TRIPOS>SET

