#    Name: 3qrj_919_2_INTS_M
#    Modification time : Mon Apr  7 19:48:48 2014

@<TRIPOS>MOLECULE
3qrj_919_2_INTS_M
  106     0     9     0     0
SMALL
NO_CHARGES


@<TRIPOS>ATOM
      1 CA          0.0205    6.5220   16.1020 C.3       3 GLC5        0.0000 
      2 CA         -0.9380    6.6250   14.0940 C.3       9 GLL5        0.0000 
      3 CA          0.9790    6.4190   18.1100 C.3       6 GLP5        0.0000 
      4 CA         -4.8935   21.5775   14.3060 C.3       3 GLC5        0.0000 
      5 CA         -4.2170   20.1520   13.1750 C.3       9 GLL5        0.0000 
      6 CA         -5.5700   23.0030   15.4370 C.3       6 GLP5        0.0000 
      7 CA         -2.8035   21.6545   13.1900 C.3       3 GLC5        0.0000 
      8 CA         -1.3900   23.1570   13.2050 C.3       6 GLP5        0.0000 
      9 N          -4.0315   22.2670   13.0935 N.am      2 SEC2        0.0000 
     10 N          -4.3880   21.0210   12.1520 N.am      8 SEL2        0.0000 
     11 N          -3.6750   23.5130   14.0350 N.am      5 SEP2        0.0000 
     12 CA         -4.4045   18.0130   14.9395 C.3       3 GLC5        0.0000 
     13 CA         -4.5450   18.8030   13.0290 C.3       9 GLL5        0.0000 
     14 CA         -4.2640   17.2230   16.8500 C.3       6 GLP5        0.0000 
     15 CA         -2.2505   17.5010   12.0715 C.3       3 GLC5        0.0000 
     16 CA         -3.3700   15.8320   12.2670 C.3       9 GLL5        0.0000 
     17 CA         -1.1310   19.1700   11.8760 C.3       6 GLP5        0.0000 
     18 CA         -6.6575   16.4695   11.0520 C.3       3 GLC5        0.0000 
     19 CA         -4.7600   15.9010   12.0480 C.3       9 GLL5        0.0000 
     20 CA         -8.5550   17.0380   10.0560 C.3       6 GLP5        0.0000 
     21 CA         -6.8770   14.7630   10.6885 C.3       3 GLC5        0.0000 
     22 CA         -5.5390   14.7740   12.2640 C.3       9 GLL5        0.0000 
     23 CA         -8.2150   14.7520    9.1130 C.3       6 GLP5        0.0000 
     24 CA         -7.4635   13.6590   12.3505 C.3       3 GLC5        0.0000 
     25 CA         -9.3880   12.5440   12.4370 C.3       6 GLP5        0.0000 
     26 CA          0.4605   12.6000   15.3115 C.3       3 GLC5        0.0000 
     27 CA          0.8920   10.7420   14.4940 C.3       9 GLL5        0.0000 
     28 CA          0.0290   14.4580   16.1290 C.3       6 GLP5        0.0000 
     29 CA         -1.2615   10.2870   15.9080 C.3       3 GLC5        0.0000 
     30 CA         -0.2960   10.1810   14.0240 C.3       9 GLL5        0.0000 
     31 CA         -2.2270   10.3930   17.7920 C.3       6 GLP5        0.0000 
     32 O          -2.8570   10.1865   13.4185 O.2       1 ALC1        0.0000 
     33 O          -1.5470   10.6780   13.7610 O.2       7 ALL1        0.0000 
     34 O          -4.1670    9.6950   13.0760 O.2       4 ALP1        0.0000 
     35 O          -3.6540   10.9975   13.2200 O.2       1 ALC1        0.0000 
     36 O          -3.1410   12.3000   13.3640 O.2       7 ALL1        0.0000 
     37 N           0.1250   12.6080   12.2235 N.am      2 SEC2        0.0000 
     38 N          -0.9950   12.7680   13.1830 N.am      8 SEL2        0.0000 
     39 N           1.2450   12.4480   11.2640 N.am      5 SEP2        0.0000 
     40 CA         -6.9940   11.5120   12.1820 C.3       3 GLC5        0.0000 
     41 CA         -5.7510   12.5290   12.9720 C.3       9 GLL5        0.0000 
     42 CA         -8.2370   10.4950   11.3920 C.3       6 GLP5        0.0000 
     43 O          -3.9550   23.8260   10.7405 O.2       1 ALC1        0.0000 
     44 O          -4.8120   22.7990   10.1370 O.2       7 ALL1        0.0000 
     45 O          -3.0980   24.8530   11.3440 O.2       4 ALP1        0.0000 
     46 CA         -6.9985   23.4255    8.8370 C.3       3 GLC5        0.0000 
     47 CA         -5.2300   23.8840    9.2780 C.3       9 GLL5        0.0000 
     48 CA         -8.7670   22.9670    8.3960 C.3       6 GLP5        0.0000 
     49 CA         -6.4270   24.0860   10.4905 C.3       3 GLC5        0.0000 
     50 CA         -7.6240   24.2880   11.7030 C.3       6 GLP5        0.0000 
     51 CA         -3.4825   23.9530    8.6015 C.3       3 GLC5        0.0000 
     52 CA         -1.7350   24.0220    7.9250 C.3       6 GLP5        0.0000 
     53 CA          6.0300    9.5985   14.6330 C.3       3 GLC5        0.0000 
     54 CA          4.0250    8.9680   13.9060 C.3       9 GLL5        0.0000 
     55 CA          8.0350   10.2290   15.3600 C.3       6 GLP5        0.0000 
     56 CA          5.1000    9.8795   12.6060 C.3       3 GLC5        0.0000 
     57 CA          6.1750   10.7910   11.3060 C.3       6 GLP5        0.0000 
     58 CA          2.8120    9.5370   12.2690 C.3       3 GLC5        0.0000 
     59 CA          1.5990   10.1060   10.6320 C.3       6 GLP5        0.0000 
     60 CA          4.9670   12.5950   15.8860 C.3       3 GLC5        0.0000 
     61 CA          3.8270   11.1540   15.0030 C.3       9 GLL5        0.0000 
     62 CA          6.1070   14.0360   16.7690 C.3       6 GLP5        0.0000 
     63 CA          5.9310   10.6915   15.1815 C.3       3 GLC5        0.0000 
     64 CA          5.0010   10.9725   13.1545 C.3       3 GLC5        0.0000 
     65 CA          2.2720    7.7465   17.2215 C.3       3 GLC5        0.0000 
     66 CA          3.5650    9.0740   16.3330 C.3       9 GLL5        0.0000 
     67 CA          3.1990    9.5195   18.2430 C.3       3 GLC5        0.0000 
     68 CA          2.8330    9.9650   20.1530 C.3       6 GLP5        0.0000 
     69 CA          5.4395    9.7075   17.0800 C.3       3 GLC5        0.0000 
     70 CA          7.3140   10.3410   17.8270 C.3       6 GLP5        0.0000 
     71 CA          4.1040    7.4050   17.5110 C.3       3 GLC5        0.0000 
     72 CA          4.6430    5.7360   18.6890 C.3       6 GLP5        0.0000 
     73 CA         -2.6643    7.6285   14.2770 C.3       3 GLC5        0.0000 
     74 CA         -4.4440    8.0150   14.7860 C.3       6 GLP5        0.0000 
     75 CA          0.2097    9.0072   11.7355 C.3       3 GLC5        0.0000 
     76 CA         -0.8310    7.8590   13.4420 C.3       9 GLL5        0.0000 
     77 CA         -3.4493    6.0867   13.9527 C.3       3 GLC5        0.0000 
     78 CA         -2.3990    5.7230   12.4230 C.3       9 GLL5        0.0000 
     79 CA         -4.8480    6.5230   14.8950 C.3       6 GLP5        0.0000 
     80 CA         -3.1807    7.7280   13.3833 C.3       3 GLC5        0.0000 
     81 CA         -2.3070    6.9240   11.7250 C.3       9 GLL5        0.0000 
     82 CA         -5.1685    4.1505   10.5772 C.3       3 GLC5        0.0000 
     83 CA         -3.7600    6.0460   10.0560 C.3       9 GLL5        0.0000 
     84 CA         -6.5570    2.8530   10.7340 C.3       6 GLP5        0.0000 
     85 CA         -6.8830   20.3672   10.2630 C.3       3 GLC5        0.0000 
     86 CA         -4.8510   20.5710   10.9600 C.3       9 GLL5        0.0000 
     87 CA         -8.7380   20.8300    9.6590 C.3       6 GLP5        0.0000 
     88 CA         -6.8385   17.9125   10.6730 C.3       3 GLC5        0.0000 
     89 CA         -5.2050   19.2380   10.7740 C.3       9 GLL5        0.0000 
     90 CA         -3.1805   13.3693   14.6755 C.3       3 GLC5        0.0000 
     91 CA         -2.8030   14.6470   12.7180 C.3       9 GLL5        0.0000 
     92 CA         -3.1610   12.6630   16.5210 C.3       6 GLP5        0.0000 
     93 CA         -2.2027   15.9057   14.0527 C.3       3 GLC5        0.0000 
     94 CA         -1.3190   16.5720   15.6130 C.3       6 GLP5        0.0000 
     95 CA         -1.0562   15.3377   12.1463 C.3       3 GLC5        0.0000 
     96 CA          0.9740   15.4360   11.8000 C.3       6 GLP5        0.0000 
     97 CA         -6.2062   15.2423   13.8340 C.3       3 GLC5        0.0000 
     98 CA         -7.2630   15.1470   15.5120 C.3       6 GLP5        0.0000 
     99 CA         -4.2595   12.8625   14.6835 C.3       3 GLC5        0.0000 
    100 CA         -4.9650   13.5950   12.7200 C.3       9 GLL5        0.0000 
    101 CA         -6.3105   14.1045   14.1790 C.3       3 GLC5        0.0000 
    102 CA          0.9485   10.2837   12.4455 C.3       3 GLC5        0.0000 
    103 CA         -6.2510   19.4988   12.5942 C.3       3 GLC5        0.0000 
    104 CA         -5.0390   18.3360   11.8060 C.3       9 GLL5        0.0000 
    105 CA         -7.6330   19.5920   13.5280 C.3       6 GLP5        0.0000 
    106 CA         -3.0000   19.2878   11.7682 C.3       3 GLC5        0.0000 
@<TRIPOS>BOND
@<TRIPOS>SUBSTRUCTURE
     1 ALC1       32 GROUP        1 X    ALC  0     ROOT ALC X 1
     2 SEC2        9 GROUP        1 X    SEC  0     **** SEC X 2
     3 GLC5        1 GROUP        1 X    GLC  0     **** GLC X 6
     4 ALP1       34 GROUP        1 Y    ALP  0     ROOT ALP Y 8
     5 SEP2       11 GROUP        1 Y    SEP  0     **** SEP Y 9
     6 GLP5        3 GROUP        1 Y    GLP  0     **** GLP Y 13
     7 ALL1       33 GROUP        1 Z    ALL  0     ROOT ALL Z 15
     8 SEL2       10 GROUP        1 Z    SEL  0     **** SEL Z 16
     9 GLL5        2 GROUP        1 Z    GLL  0     **** GLL Z 20
@<TRIPOS>SET

