#    Name: 3qrj_919_2_ligand
#    Modification time : Mon Apr  7 19:48:48 2014

@<TRIPOS>MOLECULE
3qrj_919_2_ligand
   69    73     1     0     0
SMALL
NO_CHARGES


@<TRIPOS>ATOM
      1 C1         -0.8310    7.8590   13.4420 C.ar      1 9191        0.0000 
      2 C2         -0.9380    6.6250   14.0940 C.ar      1 9191        0.0000 
      3 C3         -1.7020    5.5780   13.5980 C.ar      1 9191        0.0000 
      4 C4         -2.3990    5.7230   12.4230 C.ar      1 9191        0.0000 
      5 C5         -2.3070    6.9240   11.7250 C.ar      1 9191        0.0000 
      6 C6         -1.5280    7.9580   12.2360 C.ar      1 9191        0.0000 
      7 C9         -3.8000    4.8500   10.7850 C.ar      1 9191        0.0000 
      8 N10        -3.1320    4.7000   11.9450 N.ar      1 9191        0.0000 
      9 C13        -2.9900    7.1020   10.5320 C.ar      1 9191        0.0000 
     10 C14        -3.7600    6.0460   10.0560 C.ar      1 9191        0.0000 
     11 C22        -4.2170   20.1520   13.1750 C.ar      1 9191        0.0000 
     12 N23        -4.3880   21.0210   12.1520 N.ar      1 9191        0.0000 
     13 C24        -4.8510   20.5710   10.9600 C.ar      1 9191        0.0000 
     14 C25        -5.2050   19.2380   10.7740 C.ar      1 9191        0.0000 
     15 C26        -5.0390   18.3360   11.8060 C.ar      1 9191        0.0000 
     16 C27        -4.5450   18.8030   13.0290 C.ar      1 9191        0.0000 
     17 C34        -2.8030   14.6470   12.7180 C.ar      1 9191        0.0000 
     18 C35        -3.3700   15.8320   12.2670 C.ar      1 9191        0.0000 
     19 C36        -4.7600   15.9010   12.0480 C.ar      1 9191        0.0000 
     20 C37        -5.5390   14.7740   12.2640 C.ar      1 9191        0.0000 
     21 C38        -4.9650   13.5950   12.7200 C.ar      1 9191        0.0000 
     22 C39        -3.5970   13.5040   12.9420 C.ar      1 9191        0.0000 
     23 C46         1.7940    9.6760   14.5890 C.2       1 9191        0.0000 
     24 C47         0.8920   10.7420   14.4940 C.2       1 9191        0.0000 
     25 C48        -0.2960   10.1810   14.0240 C.2       1 9191        0.0000 
     26 N49        -0.0490    8.8450   13.8980 N.pl3     1 9191        0.0000 
     27 N50         1.2750    8.4970   14.2060 N.2       1 9191        0.0000 
     28 N56        -1.5470   10.6780   13.7610 N.am      1 9191        0.0000 
     29 C58        -1.8470   11.9490   13.4290 C.2       1 9191        0.0000 
     30 N60        -3.1410   12.3000   13.3640 N.am      1 9191        0.0000 
     31 O63        -0.9950   12.7680   13.1830 O.2       1 9191        0.0000 
     32 O65        -5.3940   17.0300   11.5770 O.3       1 9191        0.0000 
     33 F68        -5.7510   12.5290   12.9720 F         1 9191        0.0000 
     34 C70        -5.0650   21.5410    9.8570 C.2       1 9191        0.0000 
     35 O72        -5.5680   21.1970    8.7780 O.2       1 9191        0.0000 
     36 N74        -4.8120   22.7990   10.1370 N.am      1 9191        0.0000 
     37 C76        -5.2300   23.8840    9.2780 C.3       1 9191        0.0000 
     38 C79         3.2690    9.7380   14.9850 C.3       1 9191        0.0000 
     39 C81         4.0250    8.9680   13.9060 C.3       1 9191        0.0000 
     40 C83         3.8270   11.1540   15.0030 C.3       1 9191        0.0000 
     41 C85         3.5650    9.0740   16.3330 C.3       1 9191        0.0000 
     42 H          -0.4184    6.4913   14.9925 H         1 9191        0.0000 
     43 H          -1.7429    4.6864   14.1202 H         1 9191        0.0000 
     44 H          -1.4603    8.8516   11.6928 H         1 9191        0.0000 
     45 H          -4.3727    4.0634   10.3970 H         1 9191        0.0000 
     46 H          -2.9314    7.9762   10.0193 H         1 9191        0.0000 
     47 H          -4.2897    6.1363    9.1891 H         1 9191        0.0000 
     48 H          -3.8383   20.4741   14.0876 H         1 9191        0.0000 
     49 H          -5.5877   18.9314    9.8710 H         1 9191        0.0000 
     50 H          -4.4249   18.1557   13.8140 H         1 9191        0.0000 
     51 H          -1.7878   14.5934   12.8941 H         1 9191        0.0000 
     52 H          -2.7887   16.6557   12.0920 H         1 9191        0.0000 
     53 H          -6.5560   14.8116   12.0841 H         1 9191        0.0000 
     54 H           1.0524   11.6316   14.7003 H         1 9191        0.0000 
     55 H          -2.3664    9.9738   13.8292 H         1 9191        0.0000 
     56 H          -3.8747   11.5745   13.6687 H         1 9191        0.0000 
     57 H          -4.2905   23.0850   11.0032 H         1 9191        0.0000 
     58 H          -4.9508   24.7732    9.6403 H         1 9191        0.0000 
     59 H          -4.8376   23.8045    8.3617 H         1 9191        0.0000 
     60 H          -6.2238   23.9104    9.1700 H         1 9191        0.0000 
     61 H           5.0098    8.9560   14.0793 H         1 9191        0.0000 
     62 H           3.7255    8.0155   13.8507 H         1 9191        0.0000 
     63 H           3.8917    9.3703   13.0002 H         1 9191        0.0000 
     64 H           4.7932   11.1692   15.2605 H         1 9191        0.0000 
     65 H           3.7555   11.5928   14.1073 H         1 9191        0.0000 
     66 H           3.3408   11.7365   15.6544 H         1 9191        0.0000 
     67 H           4.5347    9.1314   16.5703 H         1 9191        0.0000 
     68 H           3.0549    9.5032   17.0784 H         1 9191        0.0000 
     69 H           3.3207    8.1043   16.3310 H         1 9191        0.0000 
@<TRIPOS>BOND
     1    2    1 ar   
     2    6    1 ar   
     3   26    1 1    
     4    3    2 ar   
     5   42    2 1    
     6    4    3 ar   
     7   43    3 1    
     8    5    4 ar   
     9    8    4 ar   
    10    6    5 ar   
    11    9    5 ar   
    12   44    6 1    
    13    8    7 ar   
    14   10    7 ar   
    15   45    7 1    
    16   10    9 ar   
    17   46    9 1    
    18   47   10 1    
    19   12   11 ar   
    20   16   11 ar   
    21   48   11 1    
    22   13   12 ar   
    23   14   13 ar   
    24   34   13 1    
    25   15   14 ar   
    26   49   14 1    
    27   16   15 ar   
    28   32   15 1    
    29   50   16 1    
    30   18   17 ar   
    31   22   17 ar   
    32   51   17 1    
    33   19   18 ar   
    34   52   18 1    
    35   20   19 ar   
    36   32   19 1    
    37   21   20 ar   
    38   53   20 1    
    39   22   21 ar   
    40   33   21 1    
    41   30   22 1    
    42   24   23 1    
    43   27   23 2    
    44   38   23 1    
    45   25   24 2    
    46   54   24 1    
    47   26   25 1    
    48   28   25 1    
    49   27   26 1    
    50   29   28 am   
    51   55   28 1    
    52   30   29 am   
    53   31   29 2    
    54   56   30 1    
    55   35   34 2    
    56   36   34 am   
    57   37   36 1    
    58   57   36 1    
    59   58   37 1    
    60   59   37 1    
    61   60   37 1    
    62   39   38 1    
    63   40   38 1    
    64   41   38 1    
    65   61   39 1    
    66   62   39 1    
    67   63   39 1    
    68   64   40 1    
    69   65   40 1    
    70   66   40 1    
    71   67   41 1    
    72   68   41 1    
    73   69   41 1    
@<TRIPOS>SUBSTRUCTURE
     1 9191        1 GROUP   
@<TRIPOS>SET

