#    Name: 3lix_E17_1_INTS_M
#    Modification time : Mon Mar 24 21:43:36 2014

@<TRIPOS>MOLECULE
3lix_E17_1_INTS_M
  105     0     9     0     0
SMALL
NO_CHARGES


@<TRIPOS>ATOM
      1 N          24.2885   28.4350   30.5810 N.am      2 SEC2        0.0000 
      2 N          24.9790   27.8550   29.6640 N.am      8 SEL2        0.0000 
      3 N          23.5980   29.0150   31.4980 N.am      5 SEP2        0.0000 
      4 CA         26.2830   29.1490   31.1580 C.3       3 GLC5        0.0000 
      5 CA         27.4600   27.3480   31.1240 C.3       9 GLL5        0.0000 
      6 CA         25.1060   30.9500   31.1920 C.3       6 GLP5        0.0000 
      7 CA         27.8140   30.3395   31.6345 C.3       3 GLC5        0.0000 
      8 CA         28.5390   28.3340   31.5870 C.3       9 GLL5        0.0000 
      9 CA         27.0890   32.3450   31.6820 C.3       6 GLP5        0.0000 
     10 N          23.5650   28.3620   23.4955 N.am      2 SEC2        0.0000 
     11 N          23.7600   28.9450   24.8960 N.am      8 SEL2        0.0000 
     12 N          23.3700   27.7790   22.0950 N.am      5 SEP2        0.0000 
     13 CA         27.6880   32.0675   23.6275 C.3       3 GLC5        0.0000 
     14 CA         26.4800   32.3890   25.2190 C.3       9 GLL5        0.0000 
     15 CA         28.8960   31.7460   22.0360 C.3       6 GLP5        0.0000 
     16 CA         27.3935   32.1675   29.6325 C.3       3 GLC5        0.0000 
     17 CA         27.6980   31.9900   27.5830 C.3       9 GLL5        0.0000 
     18 CA         25.9350   30.8715   29.5270 C.3       3 GLC5        0.0000 
     19 CA         26.7640   30.7930   27.8620 C.3       9 GLL5        0.0000 
     20 O          22.5765   30.2065   27.9025 O.2       1 ALC1        0.0000 
     21 O          22.4110   29.8780   26.5220 O.2       7 ALL1        0.0000 
     22 O          22.7420   30.5350   29.2830 O.2       4 ALP1        0.0000 
     23 CA         21.4010   29.5940   23.5525 C.3       3 GLC5        0.0000 
     24 CA         21.3460   30.0000   25.5610 C.3       9 GLL5        0.0000 
     25 CA         21.4560   29.1880   21.5440 C.3       6 GLP5        0.0000 
     26 CA         20.4075   28.0945   23.4135 C.3       3 GLC5        0.0000 
     27 CA         20.7780   27.5870   25.3340 C.3       9 GLL5        0.0000 
     28 CA         20.0370   28.6020   21.4930 C.3       6 GLP5        0.0000 
     29 CA         20.4755   25.8775   26.4130 C.3       3 GLC5        0.0000 
     30 CA         20.1730   24.1680   27.4920 C.3       6 GLP5        0.0000 
     31 CA         20.5205   28.0905   29.1025 C.3       3 GLC5        0.0000 
     32 CA         20.3240   28.7630   27.5400 C.3       9 GLL5        0.0000 
     33 CA         20.7170   27.4180   30.6650 C.3       6 GLP5        0.0000 
     34 CA         19.4705   28.9355   23.5040 C.3       3 GLC5        0.0000 
     35 CA         18.9040   29.2690   25.5150 C.3       9 GLL5        0.0000 
     36 CA         17.8755   27.2955   25.6215 C.3       3 GLC5        0.0000 
     37 CA         16.8470   25.3220   25.7280 C.3       6 GLP5        0.0000 
     38 CA         16.8955   29.0855   24.7295 C.3       3 GLC5        0.0000 
     39 CA         14.8870   28.9020   23.9440 C.3       6 GLP5        0.0000 
     40 O          21.8150   31.8480   23.2755 O.2       1 ALC1        0.0000 
     41 O          20.8750   32.2030   24.4180 O.2       7 ALL1        0.0000 
     42 O          22.7550   31.4930   22.1330 O.2       4 ALP1        0.0000 
     43 N          19.3190   35.6900   21.9690 N.am      2 SEC2        0.0000 
     44 N          18.1760   35.2980   22.7380 N.am      8 SEL2        0.0000 
     45 N          20.4620   36.0820   21.2000 N.am      5 SEP2        0.0000 
     46 CA         20.8510   32.8925   21.5640 C.3       3 GLC5        0.0000 
     47 CA         19.3440   33.3010   23.1540 C.3       9 GLL5        0.0000 
     48 CA         22.3580   32.4840   19.9740 C.3       6 GLP5        0.0000 
     49 N          20.2520   34.8150   21.5830 N.am      2 SEC2        0.0000 
     50 N          20.0420   33.5480   21.9660 N.am      8 SEL2        0.0000 
     51 O          19.5380   32.9115   20.8150 O.2       1 ALC1        0.0000 
     52 O          20.0420   33.5480   21.9660 O.2       7 ALL1        0.0000 
     53 O          19.0340   32.2750   19.6640 O.2       4 ALP1        0.0000 
     54 O          18.9365   32.5340   21.6470 O.2       1 ALC1        0.0000 
     55 O          17.8310   31.5200   21.3280 O.2       4 ALP1        0.0000 
     56 CA         20.7105   36.0405   28.2025 C.3       3 GLC5        0.0000 
     57 CA         21.5880   35.7900   26.4640 C.3       9 GLL5        0.0000 
     58 CA         19.8330   36.2910   29.9410 C.3       6 GLP5        0.0000 
     59 CA         14.6090   35.0945   27.5150 C.3       3 GLC5        0.0000 
     60 CA         13.6850   35.1720   25.5710 C.3       9 GLL5        0.0000 
     61 CA         15.5330   35.0170   29.4590 C.3       6 GLP5        0.0000 
     62 CA         13.5895   32.8630   21.9650 C.3       3 GLC5        0.0000 
     63 CA         13.7410   33.7510   23.5130 C.3       9 GLL5        0.0000 
     64 CA         13.4380   31.9750   20.4170 C.3       6 GLP5        0.0000 
     65 CA         15.3985   33.9295   27.5745 C.3       3 GLC5        0.0000 
     66 CA         15.2640   32.8420   25.6900 C.3       9 GLL5        0.0000 
     67 CA         17.5225   37.6305   27.4555 C.3       3 GLC5        0.0000 
     68 CA         16.2700   38.3780   25.8850 C.3       9 GLL5        0.0000 
     69 CA         18.7750   36.8830   29.0260 C.3       6 GLP5        0.0000 
     70 CA         18.3960   38.4290   22.6645 C.3       3 GLC5        0.0000 
     71 CA         18.4890   38.3180   24.5120 C.3       9 GLL5        0.0000 
     72 CA         18.3030   38.5400   20.8170 C.3       6 GLP5        0.0000 
     73 CA         17.6235   39.3850   22.5230 C.3       3 GLC5        0.0000 
     74 CA         16.9440   40.2300   24.2290 C.3       9 GLL5        0.0000 
     75 CA         16.3185   42.1405   23.3155 C.3       3 GLC5        0.0000 
     76 CA         15.6930   44.0510   22.4020 C.3       6 GLP5        0.0000 
     77 CA         16.9205   39.9530   28.0310 C.3       3 GLC5        0.0000 
     78 CA         18.1930   39.7720   26.4710 C.3       9 GLL5        0.0000 
     79 CA         15.6480   40.1340   29.5910 C.3       6 GLP5        0.0000 
     80 CA         19.4385   40.1380   28.1520 C.3       3 GLC5        0.0000 
     81 CA         20.6840   40.5040   29.8330 C.3       6 GLP5        0.0000 
     82 CA         18.4840   38.3275   27.7485 C.3       3 GLC5        0.0000 
     83 CA         25.1583   30.3708   29.0780 C.3       3 GLC5        0.0000 
     84 CA         25.6860   30.3890   26.8170 C.3       9 GLL5        0.0000 
     85 CA         18.5685   29.8313   27.5909 C.3       3 GLC5        0.0000 
     86 CA         17.5220   30.6090   29.0400 C.3       6 GLP5        0.0000 
     87 CA         22.3315   36.6475   24.5815 C.3       3 GLC5        0.0000 
     88 CA         22.0690   34.7930   25.4030 C.3       9 GLL5        0.0000 
     89 CA         22.9980   38.5880   24.3960 C.3       6 GLP5        0.0000 
     90 CA         24.4390   34.1003   29.3268 C.3       3 GLC5        0.0000 
     91 CA         24.1410   34.1870   26.8880 C.3       9 GLL5        0.0000 
     92 CA         24.9670   33.5150   31.2230 C.3       6 GLP5        0.0000 
     93 CA         22.0530   34.1520   28.8710 C.3       3 GLC5        0.0000 
     94 CA         23.6810   35.1840   27.9730 C.3       9 GLL5        0.0000 
     95 CA         21.0690   32.7160   29.8790 C.3       6 GLP5        0.0000 
     96 CA         21.4350   35.9395   28.9020 C.3       3 GLC5        0.0000 
     97 CA         22.4943   37.2395   25.7523 C.3       3 GLC5        0.0000 
     98 CA         22.3930   35.9920   27.7530 C.3       9 GLL5        0.0000 
     99 CA         15.4290   30.8040   24.5980 C.3       3 GLC5        0.0000 
    100 CA         16.6780   32.5700   24.8140 C.3       9 GLL5        0.0000 
    101 CA         15.6662   39.4875   27.8373 C.3       3 GLC5        0.0000 
    102 CA         19.1571   41.0306   25.1706 C.3       3 GLC5        0.0000 
    103 CA         20.6190   42.3230   24.7340 C.3       6 GLP5        0.0000 
    104 CA         17.3591   41.5946   26.0321 C.3       3 GLC5        0.0000 
    105 CA         17.0230   43.4510   26.4570 C.3       6 GLP5        0.0000 
@<TRIPOS>BOND
@<TRIPOS>SUBSTRUCTURE
     1 ALC1       20 GROUP        1 X    ALC  0     ROOT ALC X 1
     2 SEC2        1 GROUP        1 X    SEC  0     **** SEC X 2
     3 GLC5        4 GROUP        1 X    GLC  0     **** GLC X 6
     4 ALP1       22 GROUP        1 Y    ALP  0     ROOT ALP Y 8
     5 SEP2        3 GROUP        1 Y    SEP  0     **** SEP Y 9
     6 GLP5        6 GROUP        1 Y    GLP  0     **** GLP Y 13
     7 ALL1       21 GROUP        1 Z    ALL  0     ROOT ALL Z 15
     8 SEL2        2 GROUP        1 Z    SEL  0     **** SEL Z 16
     9 GLL5        5 GROUP        1 Z    GLL  0     **** GLL Z 20
@<TRIPOS>SET

