#    Name: 3lix_E17_1_ligand
#    Modification time : Mon Mar 24 21:43:36 2014

@<TRIPOS>MOLECULE
3lix_E17_1_ligand
  119   122     1     0     0
SMALL
NO_CHARGES


@<TRIPOS>ATOM
      1 CB1        25.6920   27.2920   28.5520 C.2       1 E17117      0.0000 
      2 OA1        24.9790   27.8550   29.6640 O.2       1 E17117      0.0000 
      3 CB0        26.4530   26.1040   29.1530 C.3       1 E17117      0.0000 
      4 NB1        27.7550   26.6500   29.7820 N.4       1 E17117      0.0000 
      5 OA4        28.8840   29.3580   30.5050 O.3       1 E17117      0.0000 
      6 CA2        28.4900   27.5430   28.7490 C.3       1 E17117      0.0000 
      7 CA6        27.4600   27.3480   31.1240 C.3       1 E17117      0.0000 
      8 CA3        29.4160   28.6610   29.2520 C.3       1 E17117      0.0000 
      9 CA5        28.5390   28.3340   31.5870 C.3       1 E17117      0.0000 
     10 CBF        23.6340   29.2730   26.0350 C.2       1 E17117      0.0000 
     11 NAJ        25.5620   27.9670   27.2310 N.am      1 E17117      0.0000 
     12 OAK        23.7600   28.9450   24.8960 O.2       1 E17117      0.0000 
     13 CBM        24.7350   29.1940   27.1110 C.3       1 E17117      0.0000 
     14 CBK        25.6860   30.3890   26.8170 C.ar      1 E17117      0.0000 
     15 CAQ        27.5570   32.7910   26.2610 C.ar      1 E17117      0.0000 
     16 CAT        26.4800   32.3890   25.2190 C.ar      1 E17117      0.0000 
     17 CAU        27.6980   31.9900   27.5830 C.ar      1 E17117      0.0000 
     18 CAX        25.5440   31.1920   25.5020 C.ar      1 E17117      0.0000 
     19 CAY        26.7640   30.7930   27.8620 C.ar      1 E17117      0.0000 
     20 N          22.4110   29.8780   26.5220 N.am      1 E17117      0.0000 
     21 CA         21.3460   30.0000   25.5610 C.3       1 E17117      0.0000 
     22 CB         20.3280   28.9130   25.9970 C.3       1 E17117      0.0000 
     23 CAG        20.7780   27.5870   25.3340 C.3       1 E17117      0.0000 
     24 CG1        20.3240   28.7630   27.5400 C.3       1 E17117      0.0000 
     25 CG2        18.9040   29.2690   25.5150 C.3       1 E17117      0.0000 
     26 C          20.7510   31.4110   25.6230 C.2       1 E17117      0.0000 
     27 O          20.2250   31.8340   26.5940 O.2       1 E17117      0.0000 
     28 CBI        18.1520   34.2410   23.2680 C.2       1 E17117      0.0000 
     29 NBC        20.8750   32.2030   24.4180 N.am      1 E17117      0.0000 
     30 OAN        18.1760   35.2980   22.7380 O.2       1 E17117      0.0000 
     31 CBN        19.3440   33.3010   23.1540 C.3       1 E17117      0.0000 
     32 CBJ        22.0690   34.7930   25.4030 C.ar      1 E17117      0.0000 
     33 CBA        21.2610   34.6210   24.1310 C.3       1 E17117      0.0000 
     34 CAP        23.6810   35.1840   27.9730 C.ar      1 E17117      0.0000 
     35 CBO        20.2550   33.5070   24.3820 C.3       1 E17117      0.0000 
     36 OAO        20.0420   33.5480   21.9660 O.3       1 E17117      0.0000 
     37 CAV        21.5880   35.7900   26.4640 C.ar      1 E17117      0.0000 
     38 CAW        23.3400   33.9750   25.5930 C.ar      1 E17117      0.0000 
     39 CAR        22.3930   35.9920   27.7530 C.ar      1 E17117      0.0000 
     40 CAS        24.1410   34.1870   26.8880 C.ar      1 E17117      0.0000 
     41 CBH        16.3250   36.0000   25.0610 C.2       1 E17117      0.0000 
     42 NBR        16.9640   33.8660   24.0230 N.am      1 E17117      0.0000 
     43 OAM        17.2000   35.7410   25.8380 O.2       1 E17117      0.0000 
     44 CBQ        15.7860   34.9140   24.1210 C.3       1 E17117      0.0000 
     45 CBU        14.5510   34.1960   24.7350 C.3       1 E17117      0.0000 
     46 CAZ        16.6780   32.5700   24.8140 C.3       1 E17117      0.0000 
     47 CAH        13.6850   35.1720   25.5710 C.3       1 E17117      0.0000 
     48 CAI        13.7410   33.7510   23.5130 C.3       1 E17117      0.0000 
     49 SBE        15.2640   32.8420   25.6900 S.3       1 E17117      0.0000 
     50 NBB        15.7600   37.3480   24.9810 N.am      1 E17117      0.0000 
     51 CBL        16.2700   38.3780   25.8850 C.3       1 E17117      0.0000 
     52 CBS        17.4510   39.1790   25.2580 C.3       1 E17117      0.0000 
     53 CAA        15.0990   39.3040   26.2820 C.3       1 E17117      0.0000 
     54 CAB        18.4890   38.3180   24.5120 C.3       1 E17117      0.0000 
     55 CAC        16.9440   40.2300   24.2290 C.3       1 E17117      0.0000 
     56 CAD        18.1930   39.7720   26.4710 C.3       1 E17117      0.0000 
     57 H          26.7018   25.4047   28.3780 H         1 E17117      0.0000 
     58 H          25.8579   25.6431   29.9178 H         1 E17117      0.0000 
     59 H          28.3969   25.7806   29.9825 H         1 E17117      0.0000 
     60 H          27.7158   27.9998   28.0762 H         1 E17117      0.0000 
     61 H          29.0815   26.8706   28.0718 H         1 E17117      0.0000 
     62 H          27.3247   26.5750   31.9007 H         1 E17117      0.0000 
     63 H          26.4986   27.8841   31.0382 H         1 E17117      0.0000 
     64 H          30.4023   28.2333   29.4698 H         1 E17117      0.0000 
     65 H          29.5420   29.4029   28.4539 H         1 E17117      0.0000 
     66 H          28.1838   28.8586   32.4781 H         1 E17117      0.0000 
     67 H          29.4405   27.7762   31.8544 H         1 E17117      0.0000 
     68 H          26.0273   27.5964   26.4350 H         1 E17117      0.0000 
     69 H          24.2756   29.4417   28.0796 H         1 E17117      0.0000 
     70 H          28.1463   33.5479   26.0854 H         1 E17117      0.0000 
     71 H          26.3959   32.8919   24.3884 H         1 E17117      0.0000 
     72 H          28.3773   32.2456   28.2346 H         1 E17117      0.0000 
     73 H          24.8609   30.9413   24.8495 H         1 E17117      0.0000 
     74 H          26.8463   30.2875   28.6918 H         1 E17117      0.0000 
     75 H          22.3188   30.1838   27.4488 H         1 E17117      0.0000 
     76 H          21.6785   29.7757   24.5856 H         1 E17117      0.0000 
     77 H          21.3790   31.8540   23.6287 H         1 E17117      0.0000 
     78 H          18.9661   32.2856   23.2031 H         1 E17117      0.0000 
     79 H          21.9123   34.3423   23.3212 H         1 E17117      0.0000 
     80 H          20.7384   35.5341   23.9058 H         1 E17117      0.0000 
     81 H          24.2032   35.2971   28.7860 H         1 E17117      0.0000 
     82 H          19.6561   33.6783   25.2105 H         1 E17117      0.0000 
     83 H          20.7619   36.3006   26.3173 H         1 E17117      0.0000 
     84 H          23.6375   33.3438   24.9272 H         1 E17117      0.0000 
     85 H          22.0910   36.6280   28.4287 H         1 E17117      0.0000 
     86 H          24.9755   33.6709   27.0325 H         1 E17117      0.0000 
     87 H          15.5896   35.2883   23.1830 H         1 E17117      0.0000 
     88 H          17.4288   32.3775   25.5280 H         1 E17117      0.0000 
     89 H          16.4698   31.7611   24.1714 H         1 E17117      0.0000 
     90 H          15.0433   37.5585   24.3244 H         1 E17117      0.0000 
     91 H          16.6362   37.9135   26.8027 H         1 E17117      0.0000 
     92 H          21.6974   27.3204   25.6233 H         1 E17117      0.0000 
     93 H          20.1669   26.8300   25.5654 H         1 E17117      0.0000 
     94 H          20.7933   27.6570   24.3366 H         1 E17117      0.0000 
     95 H          21.2225   28.4975   27.8897 H         1 E17117      0.0000 
     96 H          20.0729   29.6171   27.9955 H         1 E17117      0.0000 
     97 H          19.6738   28.0666   27.8438 H         1 E17117      0.0000 
     98 H          18.5940   30.1441   25.8866 H         1 E17117      0.0000 
     99 H          18.8561   29.3402   24.5187 H         1 E17117      0.0000 
    100 H          18.2349   28.5794   25.7921 H         1 E17117      0.0000 
    101 H          14.2005   35.5684   26.3307 H         1 E17117      0.0000 
    102 H          13.3451   35.9332   25.0187 H         1 E17117      0.0000 
    103 H          12.8868   34.7162   25.9647 H         1 E17117      0.0000 
    104 H          14.2645   33.1346   22.9248 H         1 E17117      0.0000 
    105 H          12.9069   33.2665   23.7767 H         1 E17117      0.0000 
    106 H          13.4625   34.5283   22.9489 H         1 E17117      0.0000 
    107 H          15.3940   40.0306   26.9025 H         1 E17117      0.0000 
    108 H          14.6896   39.7476   25.4848 H         1 E17117      0.0000 
    109 H          14.3688   38.8016   26.7451 H         1 E17117      0.0000 
    110 H          19.2267   38.8742   24.1292 H         1 E17117      0.0000 
    111 H          18.9137   37.6427   25.1150 H         1 E17117      0.0000 
    112 H          18.0770   37.8146   23.7525 H         1 E17117      0.0000 
    113 H          17.6979   40.7488   23.8259 H         1 E17117      0.0000 
    114 H          16.4469   39.8013   23.4746 H         1 E17117      0.0000 
    115 H          16.3242   40.8925   24.6496 H         1 E17117      0.0000 
    116 H          18.5335   39.0584   27.0833 H         1 E17117      0.0000 
    117 H          18.9817   40.3200   26.1923 H         1 E17117      0.0000 
    118 H          17.6004   40.3664   27.0146 H         1 E17117      0.0000 
    119 H          19.4831   33.1349   21.2469 H         1 E17117      0.0000 
@<TRIPOS>BOND
     1    2    1 2    
     2    3    1 1    
     3   11    1 am   
     4    4    3 1    
     5   57    3 1    
     6   58    3 1    
     7    6    4 1    
     8    7    4 1    
     9   59    4 1    
    10    8    5 1    
    11    9    5 1    
    12    8    6 1    
    13   60    6 1    
    14   61    6 1    
    15    9    7 1    
    16   62    7 1    
    17   63    7 1    
    18   64    8 1    
    19   65    8 1    
    20   66    9 1    
    21   67    9 1    
    22   12   10 2    
    23   13   10 1    
    24   20   10 am   
    25   13   11 1    
    26   68   11 1    
    27   14   13 1    
    28   69   13 1    
    29   18   14 ar   
    30   19   14 ar   
    31   16   15 ar   
    32   17   15 ar   
    33   70   15 1    
    34   18   16 ar   
    35   71   16 1    
    36   19   17 ar   
    37   72   17 1    
    38   73   18 1    
    39   74   19 1    
    40   21   20 1    
    41   75   20 1    
    42   22   21 1    
    43   26   21 1    
    44   76   21 1    
    45   23   22 1    
    46   24   22 1    
    47   25   22 1    
    48   92   23 1    
    49   93   23 1    
    50   94   23 1    
    51   95   24 1    
    52   96   24 1    
    53   97   24 1    
    54   98   25 1    
    55   99   25 1    
    56  100   25 1    
    57   27   26 2    
    58   29   26 am   
    59   30   28 2    
    60   31   28 1    
    61   42   28 am   
    62   35   29 1    
    63   77   29 1    
    64   35   31 1    
    65   36   31 1    
    66   78   31 1    
    67   33   32 1    
    68   37   32 ar   
    69   38   32 ar   
    70   35   33 1    
    71   79   33 1    
    72   80   33 1    
    73   39   34 ar   
    74   40   34 ar   
    75   81   34 1    
    76   82   35 1    
    77  119   36 1    
    78   39   37 ar   
    79   83   37 1    
    80   40   38 ar   
    81   84   38 1    
    82   85   39 1    
    83   86   40 1    
    84   43   41 2    
    85   44   41 1    
    86   50   41 am   
    87   44   42 1    
    88   46   42 1    
    89   45   44 1    
    90   87   44 1    
    91   47   45 1    
    92   48   45 1    
    93   49   45 1    
    94   49   46 1    
    95   88   46 1    
    96   89   46 1    
    97  101   47 1    
    98  102   47 1    
    99  103   47 1    
   100  104   48 1    
   101  105   48 1    
   102  106   48 1    
   103   51   50 1    
   104   90   50 1    
   105   52   51 1    
   106   53   51 1    
   107   91   51 1    
   108   54   52 1    
   109   55   52 1    
   110   56   52 1    
   111  107   53 1    
   112  108   53 1    
   113  109   53 1    
   114  110   54 1    
   115  111   54 1    
   116  112   54 1    
   117  113   55 1    
   118  114   55 1    
   119  115   55 1    
   120  116   56 1    
   121  117   56 1    
   122  118   56 1    
@<TRIPOS>SUBSTRUCTURE
     1 E17117      1 GROUP   
@<TRIPOS>SET

