#    Name: 3bgc_LJH_1_INTS_M
#    Modification time : Mon Mar 24 19:26:26 2014

@<TRIPOS>MOLECULE
3bgc_LJH_1_INTS_M
  103     0     9     0     0
SMALL
NO_CHARGES


@<TRIPOS>ATOM
      1 OD1       -14.2235   17.2430  -18.1565 O.co2     2 ASC3        0.0000 
      2 OD1       -13.3820   18.9010  -17.8500 O.co2     8 ASL3        0.0000 
      3 OD1       -15.0650   15.5850  -18.4630 O.co2     5 ASP3        0.0000 
      4 OD1       -14.0685   17.7945  -17.2295 O.co2     2 ASC3        0.0000 
      5 OD1       -14.7550   16.6880  -16.6090 O.co2     5 ASP3        0.0000 
      6 OD1       -14.4310   17.9385  -19.1855 O.co2     2 ASC3        0.0000 
      7 OD1       -15.4800   16.9760  -20.5210 O.co2     5 ASP3        0.0000 
      8 OD1       -13.5975   18.5880  -19.4735 O.co2     2 ASC3        0.0000 
      9 OD1       -13.8130   18.2750  -21.0970 O.co2     5 ASP3        0.0000 
     10 CA        -16.1215   18.8170  -18.4220 C.3       3 GLC5        0.0000 
     11 CA        -14.2520   19.9470  -18.4590 C.3       9 GLL5        0.0000 
     12 CA        -17.9910   17.6870  -18.3850 C.3       6 GLP5        0.0000 
     13 CA         -9.9380   23.1490  -20.5110 C.3       3 GLC5        0.0000 
     14 CA         -9.8200   20.9900  -21.0350 C.3       9 GLL5        0.0000 
     15 CA        -10.0560   25.3080  -19.9870 C.3       6 GLP5        0.0000 
     16 CA        -17.6400   19.3030  -14.0390 C.3       3 GLC5        0.0000 
     17 CA        -16.1350   20.4060  -13.2470 C.3       9 GLL5        0.0000 
     18 CA        -19.1450   18.2000  -14.8310 C.3       6 GLP5        0.0000 
     19 CA        -11.1910   15.8500  -17.6305 C.3       3 GLC5        0.0000 
     20 CA        -11.0850   17.8590  -17.9090 C.3       9 GLL5        0.0000 
     21 CA        -11.2970   13.8410  -17.3520 C.3       6 GLP5        0.0000 
     22 CA        -13.6770   22.5135  -11.7410 C.3       3 GLC5        0.0000 
     23 CA        -13.4870   21.2080  -13.4320 C.3       9 GLL5        0.0000 
     24 CA        -13.8670   23.8190  -10.0500 C.3       6 GLP5        0.0000 
     25 CA        -11.6820   21.7195  -12.9450 C.3       3 GLC5        0.0000 
     26 CA         -9.8770   22.2310  -12.4580 C.3       6 GLP5        0.0000 
     27 CA        -13.4100   21.6950  -10.8200 C.3       3 GLC5        0.0000 
     28 CA        -13.9010   20.4540  -12.3350 C.3       9 GLL5        0.0000 
     29 CA        -12.9190   22.9360   -9.3050 C.3       6 GLP5        0.0000 
     30 CA        -15.8845   21.0950  -11.5585 C.3       3 GLC5        0.0000 
     31 CA        -17.8680   21.7360  -10.7820 C.3       6 GLP5        0.0000 
     32 CA        -11.9400   20.9535  -11.7390 C.3       3 GLC5        0.0000 
     33 CA         -9.9790   21.4530  -11.1430 C.3       6 GLP5        0.0000 
     34 CA        -16.7100   19.6995  -11.5535 C.3       3 GLC5        0.0000 
     35 CA        -15.2500   20.1080  -12.2040 C.3       9 GLL5        0.0000 
     36 CA        -18.1700   19.2910  -10.9030 C.3       6 GLP5        0.0000 
     37 CA        -13.0445   24.0365  -15.3605 C.3       3 GLC5        0.0000 
     38 CA        -13.8740   22.4580  -15.5850 C.3       9 GLL5        0.0000 
     39 CA        -12.2150   25.6150  -15.1360 C.3       6 GLP5        0.0000 
     40 CA         -9.5500   18.7865  -13.1485 C.3       3 GLC5        0.0000 
     41 CA         -9.5100   17.5760  -14.9800 C.3       9 GLL5        0.0000 
     42 CA         -9.5900   19.9970  -11.3170 C.3       6 GLP5        0.0000 
     43 CA         -6.9200   20.1735  -21.9810 C.3       3 GLC5        0.0000 
     44 CA         -8.6900   19.0040  -21.8130 C.3       9 GLL5        0.0000 
     45 CA         -5.1500   21.3430  -22.1490 C.3       6 GLP5        0.0000 
     46 CA        -12.3465   17.0390  -14.0015 C.3       3 GLC5        0.0000 
     47 CA        -10.4610   16.7560  -14.3650 C.3       9 GLL5        0.0000 
     48 CA        -14.2320   17.3220  -13.6380 C.3       6 GLP5        0.0000 
     49 CA        -12.1875   15.0675  -13.4780 C.3       3 GLC5        0.0000 
     50 CA        -10.0180   15.5740  -13.7700 C.3       9 GLL5        0.0000 
     51 CA        -14.3570   14.5610  -13.1860 C.3       6 GLP5        0.0000 
     52 O          -9.4085   13.2475  -13.0870 O.2       1 ALC1        0.0000 
     53 O          -8.2860   13.9910  -13.2910 O.2       7 ALL1        0.0000 
     54 O         -10.5310   12.5040  -12.8830 O.2       4 ALP1        0.0000 
     55 O         -17.1430   24.4210  -23.0060 O.2       1 ALC1        0.0000 
     56 O         -16.7480   25.2980  -21.8970 O.2       7 ALL1        0.0000 
     57 O         -17.5380   23.5440  -24.1150 O.2       4 ALP1        0.0000 
     58 CA        -16.2598   20.6260  -19.2832 C.3       3 GLC5        0.0000 
     59 CA        -14.8450   20.9590  -17.4680 C.3       9 GLL5        0.0000 
     60 CA        -17.9710   20.7990  -20.6030 C.3       6 GLP5        0.0000 
     61 CA         -9.6498   17.4453  -22.2925 C.3       3 GLC5        0.0000 
     62 CA         -8.4930   18.5970  -20.4970 C.3       9 GLL5        0.0000 
     63 CA        -10.7080   16.0900  -23.4300 C.3       6 GLP5        0.0000 
     64 CA         -6.5510   17.1360  -13.3573 C.3       3 GLC5        0.0000 
     65 CA         -8.1500   17.2640  -15.0420 C.3       9 GLL5        0.0000 
     66 CA         -5.1670   17.6100  -11.9640 C.3       6 GLP5        0.0000 
     67 CA        -16.8995   21.2732  -12.2795 C.3       3 GLC5        0.0000 
     68 CA        -15.7270   21.2150  -14.3070 C.3       9 GLL5        0.0000 
     69 CA        -11.0307   15.6160  -15.3673 C.3       3 GLC5        0.0000 
     70 CA        -12.0760   14.0660  -16.0620 C.3       6 GLP5        0.0000 
     71 CA         -7.8309   21.2626  -18.4771 C.3       3 GLC5        0.0000 
     72 CA         -8.9500   19.3840  -19.4380 C.3       9 GLL5        0.0000 
     73 CA         -6.4450   22.6470  -17.7400 C.3       6 GLP5        0.0000 
     74 CA         -8.5427   19.0828  -23.6255 C.3       3 GLC5        0.0000 
     75 CA         -9.3170   20.2210  -22.0850 C.3       9 GLL5        0.0000 
     76 CA         -8.0820   18.5530  -25.3020 C.3       6 GLP5        0.0000 
     77 CA        -10.4386   20.0159  -23.0008 C.3       3 GLC5        0.0000 
     78 CA        -11.7480   20.2270  -24.3150 C.3       6 GLP5        0.0000 
     79 CA        -10.7108   14.7308  -14.9393 C.3       3 GLC5        0.0000 
     80 CA         -8.3272   16.3317  -12.2248 C.3       3 GLC5        0.0000 
     81 CA         -7.3090   17.2680  -10.6330 C.3       6 GLP5        0.0000 
     82 CA        -10.3566   15.8485  -12.1371 C.3       3 GLC5        0.0000 
     83 CA         -8.6730   15.2170  -13.8630 C.3       9 GLL5        0.0000 
     84 CA        -11.2570   16.0060  -10.3090 C.3       6 GLP5        0.0000 
     85 CA         -8.0956   21.8189  -21.5000 C.3       3 GLC5        0.0000 
     86 CA         -6.6810   23.1310  -21.7700 C.3       6 GLP5        0.0000 
     87 CA        -12.9617   24.6465  -19.7742 C.3       3 GLC5        0.0000 
     88 CA        -14.0640   23.5050  -19.1970 C.3       9 GLL5        0.0000 
     89 CA        -11.4550   25.2540  -20.5550 C.3       6 GLP5        0.0000 
     90 CA        -13.6210   25.0915  -20.4565 C.3       3 GLC5        0.0000 
     91 CA        -15.7500   25.1620  -19.7010 C.3       9 GLL5        0.0000 
     92 CA        -14.6970   26.6250  -20.7070 C.3       3 GLC5        0.0000 
     93 CA        -13.6070   28.3210  -21.0560 C.3       6 GLP5        0.0000 
     94 CA        -13.0090   24.2998  -20.7623 C.3       3 GLC5        0.0000 
     95 CA        -15.0050   23.6430  -21.4250 C.3       9 GLL5        0.0000 
     96 CA        -13.6085   22.9843  -22.2362 C.3       3 GLC5        0.0000 
     97 CA        -14.1210   23.0480  -20.5140 C.3       9 GLL5        0.0000 
     98 CA        -12.6540   22.6230  -23.5030 C.3       6 GLP5        0.0000 
     99 CA        -15.8739   22.2594  -21.3115 C.3       3 GLC5        0.0000 
    100 CA        -16.9800   20.9100  -21.7560 C.3       6 GLP5        0.0000 
    101 CA        -14.5524   24.7064  -22.4365 C.3       3 GLC5        0.0000 
    102 CA        -14.3370   25.8040  -24.0060 C.3       6 GLP5        0.0000 
    103 CA        -14.5240   19.0819  -13.4804 C.3       3 GLC5        0.0000 
@<TRIPOS>BOND
@<TRIPOS>SUBSTRUCTURE
     1 ALC1       52 GROUP        1 X    ALC  0     ROOT ALC X 1
     2 ASC3        1 GROUP        1 X    ASC  0     **** ASC X 3
     3 GLC5       10 GROUP        1 X    GLC  0     **** GLC X 6
     4 ALP1       54 GROUP        1 Y    ALP  0     ROOT ALP Y 8
     5 ASP3        3 GROUP        1 Y    ASP  0     **** ASP Y 10
     6 GLP5       12 GROUP        1 Y    GLP  0     **** GLP Y 13
     7 ALL1       53 GROUP        1 Z    ALL  0     ROOT ALL Z 15
     8 ASL3        2 GROUP        1 Z    ASL  0     **** ASL Z 17
     9 GLL5       11 GROUP        1 Z    GLL  0     **** GLL Z 20
@<TRIPOS>SET

