#    Name: 3bgc_LJH_1_ligand
#    Modification time : Mon Mar 24 19:26:26 2014

@<TRIPOS>MOLECULE
3bgc_LJH_1_ligand
   75    78     1     0     0
SMALL
NO_CHARGES


@<TRIPOS>ATOM
      1 N1        -13.3820   18.9010  -17.8500 N.4       1 LJH2501     0.0000 
      2 C5        -14.2520   19.9470  -18.4590 C.3       1 LJH2501     0.0000 
      3 C6        -14.8450   20.9590  -17.4680 C.3       1 LJH2501     0.0000 
      4 C8         -8.7430   18.9390  -17.9890 C.3       1 LJH2501     0.0000 
      5 C10        -8.4930   18.5970  -20.4970 C.ar      1 LJH2501     0.0000 
      6 C13        -9.8200   20.9900  -21.0350 C.ar      1 LJH2501     0.0000 
      7 C17        -8.1500   17.2640  -15.0420 C.ar      1 LJH2501     0.0000 
      8 C28       -16.1350   20.4060  -13.2470 C.ar      1 LJH2501     0.0000 
      9 C2        -12.1640   18.6730  -18.6780 C.3       1 LJH2501     0.0000 
     10 C3        -11.0850   17.8590  -17.9090 C.3       1 LJH2501     0.0000 
     11 N4         -9.9890   18.6150  -17.3040 N.pl3     1 LJH2501     0.0000 
     12 C27       -15.7270   21.2150  -14.3070 C.ar      1 LJH2501     0.0000 
     13 C31       -13.4870   21.2080  -13.4320 C.ar      1 LJH2501     0.0000 
     14 C30       -13.9010   20.4540  -12.3350 C.ar      1 LJH2501     0.0000 
     15 C29       -15.2500   20.1080  -12.2040 C.ar      1 LJH2501     0.0000 
     16 C25       -13.8740   22.4580  -15.5850 C.3       1 LJH2501     0.0000 
     17 N7        -13.9590   21.9910  -16.9630 N.pl3     1 LJH2501     0.0000 
     18 C18        -7.7200   16.0600  -14.4590 C.ar      1 LJH2501     0.0000 
     19 C16        -9.5100   17.5760  -14.9800 C.ar      1 LJH2501     0.0000 
     20 C14        -9.5870   20.5950  -19.7150 C.ar      1 LJH2501     0.0000 
     21 C9         -8.9500   19.3840  -19.4380 C.ar      1 LJH2501     0.0000 
     22 C11        -8.6900   19.0040  -21.8130 C.ar      1 LJH2501     0.0000 
     23 S15       -10.1040   19.1010  -15.7120 S.o2      1 LJH2501     0.0000 
     24 O24        -9.1370   20.1340  -15.4550 O.2       1 LJH2501     0.0000 
     25 O23       -11.4960   19.2250  -15.4010 O.2       1 LJH2501     0.0000 
     26 C21       -10.4610   16.7560  -14.3650 C.ar      1 LJH2501     0.0000 
     27 C20       -10.0180   15.5740  -13.7700 C.ar      1 LJH2501     0.0000 
     28 C19        -8.6730   15.2170  -13.8630 C.ar      1 LJH2501     0.0000 
     29 N22        -8.2860   13.9910  -13.2910 N.pl3     1 LJH2501     0.0000 
     30 C12        -9.3170   20.2210  -22.0850 C.ar      1 LJH2501     0.0000 
     31 S32       -12.9500   22.7540  -18.0350 S.o2      1 LJH2501     0.0000 
     32 O41       -12.1450   21.7670  -18.7190 O.2       1 LJH2501     0.0000 
     33 O40       -12.3010   23.7860  -17.2520 O.2       1 LJH2501     0.0000 
     34 C33       -14.0640   23.5050  -19.1970 C.ar      1 LJH2501     0.0000 
     35 C38       -14.8730   24.5730  -18.7900 C.ar      1 LJH2501     0.0000 
     36 C37       -15.7500   25.1620  -19.7010 C.ar      1 LJH2501     0.0000 
     37 C36       -15.8240   24.6960  -21.0150 C.ar      1 LJH2501     0.0000 
     38 N39       -16.7480   25.2980  -21.8970 N.pl3     1 LJH2501     0.0000 
     39 C35       -15.0050   23.6430  -21.4250 C.ar      1 LJH2501     0.0000 
     40 C34       -14.1210   23.0480  -20.5140 C.ar      1 LJH2501     0.0000 
     41 C26       -14.3890   21.6180  -14.4270 C.ar      1 LJH2501     0.0000 
     42 H         -15.0928   19.4662  -19.0028 H         1 LJH2501     0.0000 
     43 H         -13.6797   20.5120  -19.2252 H         1 LJH2501     0.0000 
     44 H         -15.2836   20.3689  -16.6165 H         1 LJH2501     0.0000 
     45 H         -15.7413   21.4222  -17.9659 H         1 LJH2501     0.0000 
     46 H          -8.0629   18.0659  -17.9966 H         1 LJH2501     0.0000 
     47 H          -8.2052   19.7485  -17.4595 H         1 LJH2501     0.0000 
     48 H          -8.0074   17.7102  -20.3007 H         1 LJH2501     0.0000 
     49 H         -10.3573   21.8397  -21.2298 H         1 LJH2501     0.0000 
     50 H          -7.4904   17.8844  -15.4928 H         1 LJH2501     0.0000 
     51 H         -17.0901   20.0253  -13.2291 H         1 LJH2501     0.0000 
     52 H         -11.7178   19.6278  -18.9739 H         1 LJH2501     0.0000 
     53 H         -12.4175   18.1200  -19.5881 H         1 LJH2501     0.0000 
     54 H         -10.6850   17.0938  -18.6236 H         1 LJH2501     0.0000 
     55 H         -11.6241   17.2600  -17.1301 H         1 LJH2501     0.0000 
     56 H         -16.4135   21.5220  -15.0118 H         1 LJH2501     0.0000 
     57 H         -12.4886   21.4750  -13.5194 H         1 LJH2501     0.0000 
     58 H         -13.2237   20.1544  -11.6286 H         1 LJH2501     0.0000 
     59 H         -15.5849   19.6447  -11.3600 H         1 LJH2501     0.0000 
     60 H         -14.3797   23.4830  -15.5021 H         1 LJH2501     0.0000 
     61 H         -12.7860   22.7247  -15.3434 H         1 LJH2501     0.0000 
     62 H          -6.7376   15.8037  -14.4683 H         1 LJH2501     0.0000 
     63 H          -9.8882   21.2032  -18.9398 H         1 LJH2501     0.0000 
     64 H          -8.3733   18.4076  -22.5889 H         1 LJH2501     0.0000 
     65 H         -11.4395   17.0127  -14.3524 H         1 LJH2501     0.0000 
     66 H         -10.6773   14.9722  -13.2678 H         1 LJH2501     0.0000 
     67 H          -7.3431   13.9369  -12.9624 H         1 LJH2501     0.0000 
     68 H          -8.9869   13.2783  -13.2620 H         1 LJH2501     0.0000 
     69 H          -9.4074   20.5481  -23.0518 H         1 LJH2501     0.0000 
     70 H         -14.8194   24.9183  -17.8277 H         1 LJH2501     0.0000 
     71 H         -16.3473   25.9462  -19.4027 H         1 LJH2501     0.0000 
     72 H         -17.4499   24.6957  -22.2773 H         1 LJH2501     0.0000 
     73 H         -16.6219   26.2754  -22.0664 H         1 LJH2501     0.0000 
     74 H         -15.0477   23.3027  -22.3912 H         1 LJH2501     0.0000 
     75 H         -13.5173   22.2768  -20.8187 H         1 LJH2501     0.0000 
@<TRIPOS>BOND
     1    2    1 1    
     2    9    1 1    
     3    3    2 1    
     4   42    2 1    
     5   43    2 1    
     6   17    3 1    
     7   44    3 1    
     8   45    3 1    
     9   11    4 1    
    10   21    4 1    
    11   46    4 1    
    12   47    4 1    
    13   21    5 ar   
    14   22    5 ar   
    15   48    5 1    
    16   20    6 ar   
    17   30    6 ar   
    18   49    6 1    
    19   18    7 ar   
    20   19    7 ar   
    21   50    7 1    
    22   12    8 ar   
    23   15    8 ar   
    24   51    8 1    
    25   10    9 1    
    26   52    9 1    
    27   53    9 1    
    28   11   10 1    
    29   54   10 1    
    30   55   10 1    
    31   23   11 1    
    32   41   12 ar   
    33   56   12 1    
    34   14   13 ar   
    35   41   13 ar   
    36   57   13 1    
    37   15   14 ar   
    38   58   14 1    
    39   59   15 1    
    40   17   16 1    
    41   41   16 1    
    42   60   16 1    
    43   61   16 1    
    44   31   17 1    
    45   28   18 ar   
    46   62   18 1    
    47   23   19 1    
    48   26   19 ar   
    49   21   20 ar   
    50   63   20 1    
    51   30   22 ar   
    52   64   22 1    
    53   24   23 2    
    54   25   23 2    
    55   27   26 ar   
    56   65   26 1    
    57   28   27 ar   
    58   66   27 1    
    59   29   28 1    
    60   67   29 1    
    61   68   29 1    
    62   69   30 1    
    63   32   31 2    
    64   33   31 2    
    65   34   31 1    
    66   35   34 ar   
    67   40   34 ar   
    68   36   35 ar   
    69   70   35 1    
    70   37   36 ar   
    71   71   36 1    
    72   38   37 1    
    73   39   37 ar   
    74   72   38 1    
    75   73   38 1    
    76   40   39 ar   
    77   74   39 1    
    78   75   40 1    
@<TRIPOS>SUBSTRUCTURE
     1 LJH2501     1 GROUP   
@<TRIPOS>SET

