#    Name: 4H2V_2_CAVITY_N1_6.mol2
#    Modification time : Tue Mar 11 01:27:31 2014

@<TRIPOS>MOLECULE
4H2V_2_CAVITY_N1_6.mol2
   80     0     7     0     0
SMALL
NO_CHARGES


@<TRIPOS>ATOM
      1 CZ         71.2551   32.0202   42.0680 C.ar      5 PHE5        0.0000 
      2 CA         70.0761   31.6268   42.9078 C.3       6 GLY6        0.0000 
      3 N          68.8972   31.2334   43.7477 N.2       2 ALA2        0.0000 
      4 CZ         71.6893   30.5858   42.0056 C.ar      5 PHE5        0.0000 
      5 O          70.5104   30.1924   42.8455 O.2       2 ALA2        0.0000 
      6 CZ         72.1236   29.1514   41.9433 C.ar      5 PHE5        0.0000 
      7 OD1        70.9446   28.7580   42.7831 O.3       3 ASP3        0.0000 
      8 NZ         72.5578   27.7170   41.8809 N.2       4 LYS4        0.0000 
      9 O          71.3789   27.3236   42.7208 O.2       2 ALA2        0.0000 
     10 OD1        72.6094   30.5755   48.6504 O.3       3 ASP3        0.0000 
     11 OD1        73.0436   29.1411   48.5881 O.3       3 ASP3        0.0000 
     12 CA         71.8647   28.7477   49.4279 C.3       6 GLY6        0.0000 
     13 NZ         73.4779   27.7067   48.5257 N.2       4 LYS4        0.0000 
     14 NZ         72.2989   27.3133   49.3656 N.2       4 LYS4        0.0000 
     15 O          75.0910   26.6657   47.6235 O.2       2 ALA2        0.0000 
     16 CA         73.9121   26.2723   48.4634 C.3       6 GLY6        0.0000 
     17 CA         72.7332   25.8789   49.3033 C.3       6 GLY6        0.0000 
     18 N          71.5543   25.4855   50.1431 N.2       2 ALA2        0.0000 
     19 CA         70.4614   33.2554   44.2114 C.3       6 GLY6        0.0000 
     20 O          69.2825   32.8620   45.0513 O.2       2 ALA2        0.0000 
     21 N          68.1035   32.4686   45.8911 N.2       2 ALA2        0.0000 
     22 CZ         72.0746   32.2143   43.3092 C.ar      5 PHE5        0.0000 
     23 DU         70.8956   31.8209   44.1491 H         7 CUB7        0.0000 
     24 N          69.7167   31.4275   44.9889 N.2       2 ALA2        0.0000 
     25 N          68.5378   31.0341   45.8288 N.2       2 ALA2        0.0000 
     26 CZ         72.5088   30.7799   43.2469 C.ar      5 PHE5        0.0000 
     27 O          71.3299   30.3865   44.0867 O.2       2 ALA2        0.0000 
     28 O          70.1509   29.9931   44.9266 O.2       2 ALA2        0.0000 
     29 CZ         72.9430   29.3455   43.1845 C.ar      5 PHE5        0.0000 
     30 O          71.7641   28.9521   44.0244 O.2       2 ALA2        0.0000 
     31 NZ         73.3773   27.9111   43.1222 N.2       4 LYS4        0.0000 
     32 O          72.1984   27.5177   43.9621 O.2       2 ALA2        0.0000 
     33 O          71.0194   27.1243   44.8019 O.2       2 ALA2        0.0000 
     34 O          68.6616   26.3375   46.4816 O.2       2 ALA2        0.0000 
     35 NZ         72.6326   26.0833   43.8997 N.2       4 LYS4        0.0000 
     36 O          71.4537   25.6899   44.7396 O.2       2 ALA2        0.0000 
     37 O          70.2747   25.2965   45.5794 O.2       2 ALA2        0.0000 
     38 O          70.7090   23.8621   45.5171 O.2       2 ALA2        0.0000 
     39 CA         71.2809   33.4495   45.4527 C.3       6 GLY6        0.0000 
     40 CA         70.1019   33.0561   46.2925 C.3       6 GLY6        0.0000 
     41 O          68.9230   32.6627   47.1324 O.2       2 ALA2        0.0000 
     42 CA         71.7151   32.0151   45.3903 C.3       6 GLY6        0.0000 
     43 DU         70.5362   31.6217   46.2302 H         7 CUB7        0.0000 
     44 CA         69.3572   31.2283   47.0701 C.3       6 GLY6        0.0000 
     45 O          73.3283   30.9741   44.4882 O.2       2 ALA2        0.0000 
     46 O          72.1494   30.5807   45.3280 O.2       2 ALA2        0.0000 
     47 DU         70.9704   30.1873   46.1679 H         7 CUB7        0.0000 
     48 N          69.7915   29.7939   47.0077 N.2       2 ALA2        0.0000 
     49 O          72.5836   29.1462   45.2657 O.2       2 ALA2        0.0000 
     50 O          71.4047   28.7528   46.1055 O.2       2 ALA2        0.0000 
     51 O          70.2257   28.3594   46.9454 O.2       2 ALA2        0.0000 
     52 NZ         69.0468   27.9660   47.7852 N.2       4 LYS4        0.0000 
     53 O          71.8389   27.3184   46.0432 O.2       2 ALA2        0.0000 
     54 O          70.6600   26.9250   46.8830 O.2       2 ALA2        0.0000 
     55 NZ         69.4810   26.5316   47.7229 N.2       4 LYS4        0.0000 
     56 O          73.4521   26.2774   45.1410 O.2       2 ALA2        0.0000 
     57 O          72.2731   25.8840   45.9809 O.2       2 ALA2        0.0000 
     58 DU         71.0942   25.4906   46.8207 H         7 CUB7        0.0000 
     59 NZ         69.9153   25.0972   47.6606 N.2       4 LYS4        0.0000 
     60 NZ         73.8863   24.8430   45.0787 N.2       4 LYS4        0.0000 
     61 O          72.7074   24.4496   45.9185 O.2       2 ALA2        0.0000 
     62 O          71.5285   24.0562   46.7584 O.2       2 ALA2        0.0000 
     63 CA         72.1004   33.6436   46.6940 C.3       6 GLY6        0.0000 
     64 CA         72.5346   32.2092   46.6316 C.3       6 GLY6        0.0000 
     65 OG         71.3557   31.8158   47.4715 O.2       1 SER1        0.0000 
     66 CA         70.1767   31.4224   48.3113 C.3       6 GLY6        0.0000 
     67 O          72.9688   30.7748   46.5693 O.2       2 ALA2        0.0000 
     68 DU         71.7899   30.3814   47.4091 H         7 CUB7        0.0000 
     69 NZ         70.6110   29.9880   48.2490 N.2       4 LYS4        0.0000 
     70 O          72.2241   28.9470   47.3468 O.2       2 ALA2        0.0000 
     71 NZ         71.0452   28.5536   48.1867 N.2       4 LYS4        0.0000 
     72 O          72.6584   27.5126   47.2845 O.2       2 ALA2        0.0000 
     73 NZ         71.4795   27.1192   48.1243 N.2       4 LYS4        0.0000 
     74 O          74.2716   26.4716   46.3823 O.2       2 ALA2        0.0000 
     75 CA         73.0926   26.0782   47.2221 C.3       6 GLY6        0.0000 
     76 CA         71.9137   25.6848   48.0620 C.3       6 GLY6        0.0000 
     77 NZ         70.7348   25.2914   48.9018 N.2       4 LYS4        0.0000 
     78 CA         74.7058   25.0371   46.3199 C.3       6 GLY6        0.0000 
     79 CA         73.5269   24.6437   47.1598 C.3       6 GLY6        0.0000 
     80 CA         72.3479   24.2503   47.9996 C.3       6 GLY6        0.0000 
@<TRIPOS>BOND
@<TRIPOS>SUBSTRUCTURE
     1 SER1       65 GROUP   
     2 ALA2        3 GROUP   
     3 ASP3        7 GROUP   
     4 LYS4        8 GROUP   
     5 PHE5        1 GROUP   
     6 GLY6        2 GROUP   
     7 CUB7       23 GROUP   
@<TRIPOS>SET

