#    Name: 4h2v_AMP_2_INTS_M
#    Modification time : Tue Mar 25 00:13:13 2014

@<TRIPOS>MOLECULE
4h2v_AMP_2_INTS_M
   59     0    12     0     0
SMALL
NO_CHARGES


@<TRIPOS>ATOM
      1 NZ         72.1710   30.7490   50.2710 N.4       3 LYC4        0.0000 
      2 NZ         71.9900   31.0630   48.9440 N.4      11 LYL4        0.0000 
      3 NZ         72.3520   30.4350   51.5980 N.4       7 LYP4        0.0000 
      4 N          72.1710   30.7490   50.2710 N.am      2 SEC2        0.0000 
      5 N          71.9900   31.0630   48.9440 N.am     10 SEL2        0.0000 
      6 N          72.3520   30.4350   51.5980 N.am      6 SEP2        0.0000 
      7 N          71.3220   32.2130   49.4775 N.am      2 SEC2        0.0000 
      8 N          70.6540   33.3630   50.0110 N.am      6 SEP2        0.0000 
      9 NZ         74.3035   29.1925   46.5755 N.4       3 LYC4        0.0000 
     10 NZ         73.4280   29.4960   47.5790 N.4      11 LYL4        0.0000 
     11 NZ         76.0970   29.7880   45.2200 N.4       7 LYP4        0.0000 
     12 N          74.3035   29.1925   46.5755 N.am      2 SEC2        0.0000 
     13 N          73.4280   29.4960   47.5790 N.am     10 SEL2        0.0000 
     14 N          75.1790   28.8890   45.5720 N.am      6 SEP2        0.0000 
     15 NZ         75.2875   31.2595   47.0825 N.4       3 LYC4        0.0000 
     16 NZ         74.3400   31.6050   48.2590 N.4      11 LYL4        0.0000 
     17 N          75.2875   31.2595   47.0825 N.am      2 SEC2        0.0000 
     18 N          74.3400   31.6050   48.2590 N.am     10 SEL2        0.0000 
     19 N          76.2350   30.9140   45.9060 N.am      6 SEP2        0.0000 
     20 CA         69.5610   33.5375   43.9160 C.3       4 GLC5        0.0000 
     21 CA         70.6690   32.5760   45.5040 C.3      12 GLL5        0.0000 
     22 CA         68.4530   34.4990   42.3280 C.3       8 GLP5        0.0000 
     23 CA         67.0460   31.3885   44.6450 C.3       4 GLC5        0.0000 
     24 CA         69.2240   31.0980   44.3190 C.3      12 GLL5        0.0000 
     25 CA         64.8680   31.6790   44.9710 C.3       8 GLP5        0.0000 
     26 O          67.3420   30.7160   44.5795 O.2       1 ALC1        0.0000 
     27 O          68.1150   31.9340   44.0370 O.2       9 ALL1        0.0000 
     28 O          66.5690   29.4980   45.1220 O.2       5 ALP1        0.0000 
     29 CA         72.1410   31.6430   42.3440 C.3       4 GLC5        0.0000 
     30 CA         70.4030   31.5280   43.4280 C.3      12 GLL5        0.0000 
     31 CA         73.8790   31.7580   41.2600 C.3       8 GLP5        0.0000 
     32 CA         70.8755   26.2720   39.5350 C.3       4 GLC5        0.0000 
     33 CA         71.9430   27.8330   40.6450 C.3      12 GLL5        0.0000 
     34 CA         69.8080   24.7110   38.4250 C.3       8 GLP5        0.0000 
     35 O          73.7995   26.0845   41.2750 O.2       1 ALC1        0.0000 
     36 O          72.7470   26.7700   40.5290 O.2       9 ALL1        0.0000 
     37 O          74.8520   25.3990   42.0210 O.2       5 ALP1        0.0000 
     38 O          73.3425   26.6600   39.2275 O.2       1 ALC1        0.0000 
     39 O          73.9380   26.5500   37.9260 O.2       5 ALP1        0.0000 
     40 N          71.2555   27.1770   38.4380 N.am      2 SEC2        0.0000 
     41 N          71.1670   28.1770   39.5950 N.am     10 SEL2        0.0000 
     42 N          71.3440   26.1770   37.2810 N.am      6 SEP2        0.0000 
     43 CA         71.1605   28.6305   37.7120 C.3       4 GLC5        0.0000 
     44 CA         70.4040   29.2710   39.6890 C.3      12 GLL5        0.0000 
     45 CA         71.9170   27.9900   35.7350 C.3       8 GLP5        0.0000 
     46 CA         71.5040   30.4725   38.6980 C.3       4 GLC5        0.0000 
     47 CA         72.6040   31.6740   37.7070 C.3       8 GLP5        0.0000 
     48 CA         68.5640   29.4575   40.1885 C.3       4 GLC5        0.0000 
     49 CA         66.7240   29.6440   40.6880 C.3       8 GLP5        0.0000 
     50 CA         69.0670   29.4030   41.8900 C.3       4 GLC5        0.0000 
     51 CA         71.0510   29.7500   41.7400 C.3      12 GLL5        0.0000 
     52 CA         67.0830   29.0560   42.0400 C.3       8 GLP5        0.0000 
     53 CA         72.9038   33.2030   45.0985 C.3       4 GLC5        0.0000 
     54 CA         74.5850   33.7610   44.1870 C.3       8 GLP5        0.0000 
     55 CA         71.2918   34.4290   46.9405 C.3       4 GLC5        0.0000 
     56 CA         71.7760   32.7140   46.5160 C.3      12 GLL5        0.0000 
     57 CA         71.3610   36.2130   47.8710 C.3       8 GLP5        0.0000 
     58 CA         69.1333   32.9060   43.1008 C.3       4 GLC5        0.0000 
     59 CA         68.4483   30.1845   42.9567 C.3       4 GLC5        0.0000 
@<TRIPOS>BOND
@<TRIPOS>SUBSTRUCTURE
     1 ALC1       26 GROUP        1 X    ALC  0     ROOT ALC X 1
     2 SEC2        4 GROUP        1 X    SEC  0     **** SEC X 2
     3 LYC4        1 GROUP        1 X    LYC  0     **** LYC X 4
     4 GLC5       20 GROUP        1 X    GLC  0     **** GLC X 6
     5 ALP1       28 GROUP        1 Y    ALP  0     ROOT ALP Y 8
     6 SEP2        6 GROUP        1 Y    SEP  0     **** SEP Y 9
     7 LYP4        3 GROUP        1 Y    LYP  0     **** LYP Y 11
     8 GLP5       22 GROUP        1 Y    GLP  0     **** GLP Y 13
     9 ALL1       27 GROUP        1 Z    ALL  0     ROOT ALL Z 15
    10 SEL2        5 GROUP        1 Z    SEL  0     **** SEL Z 16
    11 LYL4        2 GROUP        1 Z    LYL  0     **** LYL Z 18
    12 GLL5       21 GROUP        1 Z    GLL  0     **** GLL Z 20
@<TRIPOS>SET

