#    Name: 4h2v_AMP_2_ligand
#    Modification time : Tue Mar 25 00:13:13 2014

@<TRIPOS>MOLECULE
4h2v_AMP_2_ligand
   35    37     1     0     0
SMALL
NO_CHARGES


@<TRIPOS>ATOM
      1 P          73.0600   30.8850   47.9260 P.3       1 AMP402      0.0000 
      2 O1P        71.9900   31.0630   48.9440 O.co2     1 AMP402      0.0000 
      3 O2P        73.4280   29.4960   47.5790 O.co2     1 AMP402      0.0000 
      4 O3P        74.3400   31.6050   48.2590 O.co2     1 AMP402      0.0000 
      5 O5'        72.5590   31.5280   46.5510 O.3       1 AMP402      0.0000 
      6 C5'        71.7760   32.7140   46.5160 C.3       1 AMP402      0.0000 
      7 C4'        70.6690   32.5760   45.5040 C.3       1 AMP402      0.0000 
      8 O4'        71.2510   32.3500   44.1920 O.3       1 AMP402      0.0000 
      9 C3'        69.7610   31.3720   45.7150 C.3       1 AMP402      0.0000 
     10 O3'        68.7450   31.5960   46.6840 O.3       1 AMP402      0.0000 
     11 C2'        69.2240   31.0980   44.3190 C.3       1 AMP402      0.0000 
     12 O2'        68.1150   31.9340   44.0370 O.3       1 AMP402      0.0000 
     13 C1'        70.4030   31.5280   43.4280 C.3       1 AMP402      0.0000 
     14 N9         71.1700   30.3690   42.9580 N.pl3     1 AMP402      0.0000 
     15 C8         72.0800   29.6250   43.6670 C.2       1 AMP402      0.0000 
     16 N7         72.5350   28.5840   43.0150 N.2       1 AMP402      0.0000 
     17 C5         71.8910   28.6470   41.7910 C.ar      1 AMP402      0.0000 
     18 C6         71.9430   27.8330   40.6450 C.ar      1 AMP402      0.0000 
     19 N6         72.7470   26.7700   40.5290 N.pl3     1 AMP402      0.0000 
     20 N1         71.1670   28.1770   39.5950 N.ar      1 AMP402      0.0000 
     21 C2         70.4040   29.2710   39.6890 C.ar      1 AMP402      0.0000 
     22 N3         70.2780   30.1190   40.7120 N.ar      1 AMP402      0.0000 
     23 C4         71.0510   29.7500   41.7400 C.ar      1 AMP402      0.0000 
     24 H          72.3827   33.5909   46.2425 H         1 AMP402      0.0000 
     25 H          71.3202   32.9264   47.4953 H         1 AMP402      0.0000 
     26 H          70.0672   33.4600   45.4786 H         1 AMP402      0.0000 
     27 H          70.4097   30.5360   45.9696 H         1 AMP402      0.0000 
     28 H          69.0651   30.0819   44.1948 H         1 AMP402      0.0000 
     29 H          69.9957   32.0663   42.5874 H         1 AMP402      0.0000 
     30 H          72.3509   29.8826   44.5989 H         1 AMP402      0.0000 
     31 H          72.9170   26.2532   41.3681 H         1 AMP402      0.0000 
     32 H          73.1059   26.5876   39.6136 H         1 AMP402      0.0000 
     33 H          69.7933   29.5048   38.7952 H         1 AMP402      0.0000 
     34 H          68.9417   30.9478   47.4196 H         1 AMP402      0.0000 
     35 H          67.3135   31.4001   44.3063 H         1 AMP402      0.0000 
@<TRIPOS>BOND
     1    2    1 ar   
     2    3    1 ar   
     3    4    1 ar   
     4    5    1 1    
     5    6    5 1    
     6    7    6 1    
     7   24    6 1    
     8   25    6 1    
     9    8    7 1    
    10    9    7 1    
    11   26    7 1    
    12   13    8 1    
    13   10    9 1    
    14   11    9 1    
    15   27    9 1    
    16   34   10 1    
    17   12   11 1    
    18   13   11 1    
    19   28   11 1    
    20   35   12 1    
    21   14   13 1    
    22   29   13 1    
    23   15   14 1    
    24   23   14 1    
    25   16   15 2    
    26   30   15 1    
    27   17   16 1    
    28   18   17 ar   
    29   23   17 ar   
    30   19   18 1    
    31   20   18 ar   
    32   31   19 1    
    33   32   19 1    
    34   21   20 ar   
    35   22   21 ar   
    36   33   21 1    
    37   23   22 ar   
@<TRIPOS>SUBSTRUCTURE
     1 AMP402      1 GROUP   
@<TRIPOS>SET

