#    Name: 3eqb_LUG_1_INTS_M
#    Modification time : Tue Mar 25 02:21:31 2014

@<TRIPOS>MOLECULE
3eqb_LUG_1_INTS_M
   78     0    12     0     0
SMALL
NO_CHARGES


@<TRIPOS>ATOM
      1 CA         34.2920  -15.8660    4.2420 C.3       4 GLC5        0.0000 
      2 CA         35.9040  -15.7180    3.6950 C.3      12 GLL5        0.0000 
      3 CA         32.6800  -16.0140    4.7890 C.3       8 GLP5        0.0000 
      4 CA         37.9165  -17.8255    7.3435 C.3       4 GLC5        0.0000 
      5 CA         37.7010  -16.2700    5.9800 C.3      12 GLL5        0.0000 
      6 CA         38.1320  -19.3810    8.7070 C.3       8 GLP5        0.0000 
      7 CA         38.0250  -15.0310    7.7870 C.3       4 GLC5        0.0000 
      8 CA         38.3490  -13.7920    9.5940 C.3       8 GLP5        0.0000 
      9 CA         37.9985  -11.0125    2.7850 C.3       4 GLC5        0.0000 
     10 CA         38.3200  -13.1370    3.4060 C.3      12 GLL5        0.0000 
     11 CA         37.6770   -8.8880    2.1640 C.3       8 GLP5        0.0000 
     12 N          42.3595  -11.6170    6.4110 N.am      2 SEC2        0.0000 
     13 N          40.9080  -12.3960    5.8920 N.am     10 SEL2        0.0000 
     14 N          43.8110  -10.8380    6.9300 N.am      6 SEP2        0.0000 
     15 N          42.8365  -11.1150    6.3445 N.am      2 SEC2        0.0000 
     16 N          41.8620  -11.3920    5.7590 N.am     10 SEL2        0.0000 
     17 CA         42.6840   -9.3545    6.3465 C.3       4 GLC5        0.0000 
     18 CA         42.3050   -8.6260    4.7260 C.3      12 GLL5        0.0000 
     19 CA         43.0630  -10.0830    7.9670 C.3       8 GLP5        0.0000 
     20 OD1        43.6695   -6.4750    3.7155 O.co2     3 ASC3        0.0000 
     21 OD1        42.3730   -6.2500    4.2050 O.co2    11 ASL3        0.0000 
     22 OD1        44.9660   -6.7000    3.2260 O.co2     7 ASP3        0.0000 
     23 O          43.5430   -5.2650    4.1455 O.2       1 ALC1        0.0000 
     24 O          42.3730   -6.2500    4.2050 O.2       9 ALL1        0.0000 
     25 O          44.7130   -4.2800    4.0860 O.2       5 ALP1        0.0000 
     26 O          41.5285   -4.9275    4.1405 O.2       1 ALC1        0.0000 
     27 O          40.6840   -3.6050    4.0760 O.2       5 ALP1        0.0000 
     28 O          43.6695   -6.4750    3.7155 O.2       1 ALC1        0.0000 
     29 O          44.9660   -6.7000    3.2260 O.2       5 ALP1        0.0000 
     30 CA         38.6655  -14.1280    7.4690 C.3       4 GLC5        0.0000 
     31 CA         38.9820  -14.4640    5.3440 C.3      12 GLL5        0.0000 
     32 CA         39.4890  -14.7980    8.1485 C.3       4 GLC5        0.0000 
     33 CA         40.6290  -15.8040    6.7030 C.3      12 GLL5        0.0000 
     34 CA         39.2480  -18.1885    7.3745 C.3       4 GLC5        0.0000 
     35 CA         40.3640  -16.9960    6.0420 C.3      12 GLL5        0.0000 
     36 CA         41.0960  -20.4845    7.4615 C.3       4 GLC5        0.0000 
     37 CA         43.1540  -19.9140    7.8320 C.3      12 GLL5        0.0000 
     38 CA         39.0380  -21.0550    7.0910 C.3       8 GLP5        0.0000 
     39 CA         45.1435  -20.1210    7.9375 C.3       4 GLC5        0.0000 
     40 CA         47.1330  -20.3280    8.0430 C.3       8 GLP5        0.0000 
     41 CA         44.3490  -18.9085    6.2365 C.3       4 GLC5        0.0000 
     42 CA         45.5440  -17.9030    4.6410 C.3       8 GLP5        0.0000 
     43 CA         42.9620  -20.3805    5.8070 C.3       4 GLC5        0.0000 
     44 CA         42.7700  -20.8470    3.7820 C.3       8 GLP5        0.0000 
     45 CA         43.8845  -16.3980    9.1255 C.3       4 GLC5        0.0000 
     46 CA         42.3430  -16.9680    8.0190 C.3      12 GLL5        0.0000 
     47 CA         45.4260  -15.8280   10.2320 C.3       8 GLP5        0.0000 
     48 CA         42.2625  -15.5535    5.7705 C.3       4 GLC5        0.0000 
     49 CA         41.6230  -15.8120    7.6990 C.3      12 GLL5        0.0000 
     50 CA         42.9020  -15.2950    3.8420 C.3       8 GLP5        0.0000 
     51 CA         42.1535  -12.8465    8.6620 C.3       4 GLC5        0.0000 
     52 CA         41.9210  -14.6850    8.3860 C.3      12 GLL5        0.0000 
     53 CA         42.3860  -11.0080    8.9380 C.3       8 GLP5        0.0000 
     54 CA         43.5075  -14.3915    9.4945 C.3       4 GLC5        0.0000 
     55 CA         45.0940  -14.0980   10.6030 C.3       8 GLP5        0.0000 
     56 CA         36.7040  -17.1582    4.3625 C.3       4 GLC5        0.0000 
     57 CA         36.9550  -18.9600    4.8700 C.3       8 GLP5        0.0000 
     58 CA         35.8275  -13.9237    4.8425 C.3       4 GLC5        0.0000 
     59 CA         35.2020  -12.4910    5.8300 C.3       8 GLP5        0.0000 
     60 CA         36.5847  -16.3933    6.8750 C.3       4 GLC5        0.0000 
     61 CA         37.8700  -15.2550    5.1160 C.3      12 GLL5        0.0000 
     62 CA         35.3840  -17.0240    8.2020 C.3       8 GLP5        0.0000 
     63 CA         37.3702  -17.3613    5.2090 C.3       4 GLC5        0.0000 
     64 CA         37.0712  -15.9476    1.9425 C.3       4 GLC5        0.0000 
     65 CA         37.0020  -14.9950    4.0150 C.3      12 GLL5        0.0000 
     66 CA         37.3020  -17.2480    0.3810 C.3       8 GLP5        0.0000 
     67 CA         40.9875  -14.6195    4.3740 C.3       4 GLC5        0.0000 
     68 CA         39.1640  -13.4240    4.4680 C.3      12 GLL5        0.0000 
     69 CA         38.8395  -18.2662    5.5365 C.3       4 GLC5        0.0000 
     70 CA         40.3090  -19.6033    6.9755 C.3       4 GLC5        0.0000 
     71 CA         41.0840  -18.1490    6.3640 C.3      12 GLL5        0.0000 
     72 CA         41.8461  -16.2848    5.1051 C.3       4 GLC5        0.0000 
     73 CA         44.1158  -17.3160    6.7553 C.3       4 GLC5        0.0000 
     74 CA         42.0760  -18.1540    7.3560 C.3      12 GLL5        0.0000 
     75 CA         46.0220  -17.0710    5.8230 C.3       8 GLP5        0.0000 
     76 CA         40.9610  -15.8168    9.6692 C.3       4 GLC5        0.0000 
     77 CA         39.9700  -16.0960   11.2160 C.3       8 GLP5        0.0000 
     78 CA         36.7433  -13.1653    4.9471 C.3       4 GLC5        0.0000 
@<TRIPOS>BOND
@<TRIPOS>SUBSTRUCTURE
     1 ALC1       23 GROUP        1 X    ALC  0     ROOT ALC X 1
     2 SEC2       12 GROUP        1 X    SEC  0     **** SEC X 2
     3 ASC3       20 GROUP        1 X    ASC  0     **** ASC X 3
     4 GLC5        1 GROUP        1 X    GLC  0     **** GLC X 6
     5 ALP1       25 GROUP        1 Y    ALP  0     ROOT ALP Y 8
     6 SEP2       14 GROUP        1 Y    SEP  0     **** SEP Y 9
     7 ASP3       22 GROUP        1 Y    ASP  0     **** ASP Y 10
     8 GLP5        3 GROUP        1 Y    GLP  0     **** GLP Y 13
     9 ALL1       24 GROUP        1 Z    ALL  0     ROOT ALL Z 15
    10 SEL2       13 GROUP        1 Z    SEL  0     **** SEL Z 16
    11 ASL3       21 GROUP        1 Z    ASL  0     **** ASL Z 17
    12 GLL5        2 GROUP        1 Z    GLL  0     **** GLL Z 20
@<TRIPOS>SET

