#    Name: 3eqb_LUG_1_ligand
#    Modification time : Tue Mar 25 02:21:31 2014

@<TRIPOS>MOLECULE
3eqb_LUG_1_ligand
   40    42     1     0     0
SMALL
NO_CHARGES


@<TRIPOS>ATOM
      1 F2         35.9040  -15.7180    3.6950 F         1 LUG1        0.0000 
      2 C11        37.0020  -14.9950    4.0150 C.ar      1 LUG1        0.0000 
      3 C12        37.8700  -15.2550    5.1160 C.ar      1 LUG1        0.0000 
      4 F1         37.7010  -16.2700    5.9800 F         1 LUG1        0.0000 
      5 C10        37.2280  -13.9380    3.1530 C.ar      1 LUG1        0.0000 
      6 C9         38.3200  -13.1370    3.4060 C.ar      1 LUG1        0.0000 
      7 C8         39.1640  -13.4240    4.4680 C.ar      1 LUG1        0.0000 
      8 C13        40.2750  -12.5090    4.7050 C.2       1 LUG1        0.0000 
      9 N2         40.9080  -12.3960    5.8920 N.2       1 LUG1        0.0000 
     10 N3         41.8620  -11.3920    5.7590 N.2       1 LUG1        0.0000 
     11 C14        41.7080  -10.9520    4.4940 C.2       1 LUG1        0.0000 
     12 N4         42.5090   -9.8560    3.9330 N.pl3     1 LUG1        0.0000 
     13 C15        42.3050   -8.6260    4.7260 C.3       1 LUG1        0.0000 
     14 C16        41.7730   -7.5550    3.7970 C.3       1 LUG1        0.0000 
     15 N5         42.3730   -6.2500    4.2050 N.4       1 LUG1        0.0000 
     16 O1         40.7360  -11.5990    3.8010 O.3       1 LUG1        0.0000 
     17 C7         38.9820  -14.4640    5.3440 C.ar      1 LUG1        0.0000 
     18 N1         39.9180  -14.5990    6.4290 N.pl3     1 LUG1        0.0000 
     19 C3         40.6290  -15.8040    6.7030 C.ar      1 LUG1        0.0000 
     20 C4         40.3640  -16.9960    6.0420 C.ar      1 LUG1        0.0000 
     21 C5         41.0840  -18.1490    6.3640 C.ar      1 LUG1        0.0000 
     22 C6         42.0760  -18.1540    7.3560 C.ar      1 LUG1        0.0000 
     23 I1         43.1540  -19.9140    7.8320 I         1 LUG1        0.0000 
     24 C1         42.3430  -16.9680    8.0190 C.ar      1 LUG1        0.0000 
     25 C2         41.6230  -15.8120    7.6990 C.ar      1 LUG1        0.0000 
     26 F3         41.9210  -14.6850    8.3860 F         1 LUG1        0.0000 
     27 H          36.6134  -13.7613    2.3667 H         1 LUG1        0.0000 
     28 H          38.5138  -12.3199    2.8055 H         1 LUG1        0.0000 
     29 H          43.0624   -9.9215    3.1910 H         1 LUG1        0.0000 
     30 H          43.2423   -8.2895    5.1541 H         1 LUG1        0.0000 
     31 H          41.5841   -8.7985    5.5170 H         1 LUG1        0.0000 
     32 H          40.6946   -7.5122    3.8807 H         1 LUG1        0.0000 
     33 H          42.0539   -7.7926    2.7790 H         1 LUG1        0.0000 
     34 H          40.0796  -13.7749    7.0392 H         1 LUG1        0.0000 
     35 H          39.6386  -17.0339    5.3149 H         1 LUG1        0.0000 
     36 H          40.8803  -19.0318    5.8543 H         1 LUG1        0.0000 
     37 H          43.0678  -16.9304    8.7461 H         1 LUG1        0.0000 
     38 H          43.2321   -6.0702    3.7258 H         1 LUG1        0.0000 
     39 H          41.7621   -5.4829    4.0092 H         1 LUG1        0.0000 
     40 H          42.5725   -6.2230    5.1846 H         1 LUG1        0.0000 
@<TRIPOS>BOND
     1    2    1 1    
     2    3    2 ar   
     3    5    2 ar   
     4    4    3 1    
     5   17    3 ar   
     6    6    5 ar   
     7   27    5 1    
     8    7    6 ar   
     9   28    6 1    
    10    8    7 1    
    11   17    7 ar   
    12    9    8 2    
    13   16    8 1    
    14   10    9 1    
    15   11   10 2    
    16   12   11 1    
    17   16   11 1    
    18   13   12 1    
    19   29   12 1    
    20   14   13 1    
    21   30   13 1    
    22   31   13 1    
    23   15   14 1    
    24   32   14 1    
    25   33   14 1    
    26   38   15 1    
    27   39   15 1    
    28   40   15 1    
    29   18   17 1    
    30   19   18 1    
    31   34   18 1    
    32   20   19 ar   
    33   25   19 ar   
    34   21   20 ar   
    35   35   20 1    
    36   22   21 ar   
    37   36   21 1    
    38   23   22 1    
    39   24   22 ar   
    40   25   24 ar   
    41   37   24 1    
    42   26   25 1    
@<TRIPOS>SUBSTRUCTURE
     1 LUG1        1 GROUP   
@<TRIPOS>SET

