#    Name: 4lgg_VGG_1_INTS_M
#    Modification time : Mon Apr  7 23:59:17 2014

@<TRIPOS>MOLECULE
4lgg_VGG_1_INTS_M
   57     0     9     0     0
SMALL
NO_CHARGES


@<TRIPOS>ATOM
      1 CA         -4.0690   -6.3440   -9.9815 C.3       3 GLC5        0.0000 
      2 CA         -4.5440   -4.3530   -9.4040 C.3       9 GLL5        0.0000 
      3 CA         -3.5940   -8.3350  -10.5590 C.3       6 GLP5        0.0000 
      4 CA         -7.9810   -2.3085   -7.5360 C.3       3 GLC5        0.0000 
      5 CA         -6.4600   -3.2830   -8.3680 C.3       9 GLL5        0.0000 
      6 CA         -9.5020   -1.3340   -6.7040 C.3       6 GLP5        0.0000 
      7 CA         -5.9030   -2.9210   -6.2960 C.3       3 GLC5        0.0000 
      8 CA         -5.3460   -2.5590   -4.2240 C.3       6 GLP5        0.0000 
      9 CA         -7.9260   -6.1145  -10.6820 C.3       3 GLC5        0.0000 
     10 CA         -6.7680   -5.2820   -9.7290 C.3       9 GLL5        0.0000 
     11 CA         -9.0840   -6.9470  -11.6350 C.3       6 GLP5        0.0000 
     12 CA         -8.1860   -6.8485   -8.0730 C.3       3 GLC5        0.0000 
     13 CA         -6.7070   -5.8570   -6.7790 C.3       9 GLL5        0.0000 
     14 CA         -9.6650   -7.8400   -9.3670 C.3       6 GLP5        0.0000 
     15 CA         -9.2690   -7.0400   -7.6380 C.3       3 GLC5        0.0000 
     16 CA         -8.8730   -6.2400   -5.9090 C.3       9 GLL5        0.0000 
     17 CA         -8.5920   -8.3680   -5.7235 C.3       3 GLC5        0.0000 
     18 CA         -8.3110  -10.4960   -5.5380 C.3       6 GLP5        0.0000 
     19 CA         -9.9995   -5.7885   -4.2130 C.3       3 GLC5        0.0000 
     20 CA        -11.1260   -5.3370   -2.5170 C.3       6 GLP5        0.0000 
     21 N          -9.5790   -6.8435   -3.8745 N.am      2 SEC2        0.0000 
     22 N          -8.3650   -6.9710   -4.8950 N.am      8 SEL2        0.0000 
     23 N         -10.7930   -6.7160   -2.8540 N.am      5 SEP2        0.0000 
     24 O          -7.5005   -8.5610   -2.6475 O.2       1 ALC1        0.0000 
     25 O          -6.6060   -7.9670   -3.6560 O.2       7 ALL1        0.0000 
     26 O          -8.3950   -9.1550   -1.6390 O.2       4 ALP1        0.0000 
     27 CA         -4.6215   -5.9445   -4.1665 C.3       3 GLC5        0.0000 
     28 CA         -3.5440   -7.1570   -5.2880 C.3       9 GLL5        0.0000 
     29 CA         -5.6990   -4.7320   -3.0450 C.3       6 GLP5        0.0000 
     30 CA         -5.3465  -12.2785   -6.8380 C.3       3 GLC5        0.0000 
     31 CA         -4.5090  -10.7830   -5.7220 C.3       9 GLL5        0.0000 
     32 CA         -6.1840  -13.7740   -7.9540 C.3       6 GLP5        0.0000 
     33 CA         -2.3075  -10.7710   -0.5130 C.3       3 GLC5        0.0000 
     34 CA         -3.0120  -11.0730   -2.2710 C.3       9 GLL5        0.0000 
     35 CA         -1.6030  -10.4690    1.2450 C.3       6 GLP5        0.0000 
     36 CA         -4.0480   -9.6525   -1.0295 C.3       3 GLC5        0.0000 
     37 CA         -5.0840   -8.2320    0.2120 C.3       6 GLP5        0.0000 
     38 CA         -6.0457   -6.8938   -9.3457 C.3       3 GLC5        0.0000 
     39 CA         -5.8670   -4.5970   -8.7560 C.3       9 GLL5        0.0000 
     40 CA         -5.7740   -8.8480   -9.4490 C.3       6 GLP5        0.0000 
     41 CA         -6.0980   -7.5410   -7.8540 C.3       3 GLC5        0.0000 
     42 CA         -7.4480   -8.6952   -5.3970 C.3       3 GLC5        0.0000 
     43 CA         -6.1370   -6.6110   -5.7390 C.3       9 GLL5        0.0000 
     44 CA         -6.2132   -5.7190   -4.2805 C.3       3 GLC5        0.0000 
     45 CA         -7.0330   -7.1780   -4.7730 C.3       9 GLL5        0.0000 
     46 CA         -1.9478   -8.5442   -6.2052 C.3       3 GLC5        0.0000 
     47 CA         -0.2530   -9.2030   -7.2520 C.3       6 GLP5        0.0000 
     48 CA         -5.0985   -9.4772   -7.6502 C.3       3 GLC5        0.0000 
     49 CA         -4.3370   -9.4300   -5.9810 C.3       9 GLL5        0.0000 
     50 CA         -6.2807  -10.6049   -5.3609 C.3       3 GLC5        0.0000 
     51 CA         -3.0578  -11.1759   -6.6779 C.3       3 GLC5        0.0000 
     52 CA         -1.8650  -11.6380   -8.1720 C.3       6 GLP5        0.0000 
     53 CA         -2.2016  -12.5850   -3.4748 C.3       3 GLC5        0.0000 
     54 CA         -4.0780  -11.3210   -4.5160 C.3       9 GLL5        0.0000 
     55 CA         -1.0080  -14.1770   -3.7930 C.3       6 GLP5        0.0000 
     56 CA         -4.8511  -12.0900   -2.2808 C.3       3 GLC5        0.0000 
     57 CA         -6.3070  -13.1870   -1.4050 C.3       6 GLP5        0.0000 
@<TRIPOS>BOND
@<TRIPOS>SUBSTRUCTURE
     1 ALC1       24 GROUP        1 X    ALC  0     ROOT ALC X 1
     2 SEC2       21 GROUP        1 X    SEC  0     **** SEC X 2
     3 GLC5        1 GROUP        1 X    GLC  0     **** GLC X 6
     4 ALP1       26 GROUP        1 Y    ALP  0     ROOT ALP Y 8
     5 SEP2       23 GROUP        1 Y    SEP  0     **** SEP Y 9
     6 GLP5        3 GROUP        1 Y    GLP  0     **** GLP Y 13
     7 ALL1       25 GROUP        1 Z    ALL  0     ROOT ALL Z 15
     8 SEL2       22 GROUP        1 Z    SEL  0     **** SEL Z 16
     9 GLL5        2 GROUP        1 Z    GLL  0     **** GLL Z 20
@<TRIPOS>SET

