#    Name: 4lgg_VGG_1_ligand
#    Modification time : Mon Apr  7 23:59:17 2014

@<TRIPOS>MOLECULE
4lgg_VGG_1_ligand
   43    45     1     0     0
SMALL
NO_CHARGES


@<TRIPOS>ATOM
      1 C20        -4.5440   -4.3530   -9.4040 C.3       1 VGG601      0.0000 
      2 C19        -5.8670   -4.5970   -8.7560 C.3       1 VGG601      0.0000 
      3 C21        -6.4600   -3.2830   -8.3680 C.3       1 VGG601      0.0000 
      4 C22        -6.7680   -5.2820   -9.7290 C.3       1 VGG601      0.0000 
      5 N7         -5.6980   -5.4100   -7.5850 N.pl3     1 VGG601      0.0000 
      6 N8         -4.5210   -5.8260   -7.1300 N.2       1 VGG601      0.0000 
      7 C3         -6.7070   -5.8570   -6.7790 C.ar      1 VGG601      0.0000 
      8 N2         -8.0720   -5.6930   -6.8310 N.ar      1 VGG601      0.0000 
      9 C1         -8.8730   -6.2400   -5.9090 C.ar      1 VGG601      0.0000 
     10 N6         -8.3650   -6.9710   -4.8950 N.ar      1 VGG601      0.0000 
     11 C5         -7.0330   -7.1780   -4.7730 C.ar      1 VGG601      0.0000 
     12 N10        -6.6060   -7.9670   -3.6560 N.pl3     1 VGG601      0.0000 
     13 C4         -6.1370   -6.6110   -5.7390 C.ar      1 VGG601      0.0000 
     14 C9         -4.7020   -6.5580   -6.0210 C.2       1 VGG601      0.0000 
     15 C11        -3.5440   -7.1570   -5.2880 C.3       1 VGG601      0.0000 
     16 C12        -3.7410   -8.6140   -5.0290 C.ar      1 VGG601      0.0000 
     17 C13        -3.3100   -9.1530   -3.8250 C.ar      1 VGG601      0.0000 
     18 C17        -4.3370   -9.4300   -5.9810 C.ar      1 VGG601      0.0000 
     19 C16        -4.5090  -10.7830   -5.7220 C.ar      1 VGG601      0.0000 
     20 C15        -4.0780  -11.3210   -4.5160 C.ar      1 VGG601      0.0000 
     21 C14        -3.4790  -10.5050   -3.5680 C.ar      1 VGG601      0.0000 
     22 C18        -3.0120  -11.0730   -2.2710 C.3       1 VGG601      0.0000 
     23 H          -9.9121   -6.1012   -5.9712 H         1 VGG601      0.0000 
     24 H          -5.6198   -8.1072   -3.5676 H         1 VGG601      0.0000 
     25 H          -7.3299   -8.3115   -3.0582 H         1 VGG601      0.0000 
     26 H          -3.4059   -6.6299   -4.3314 H         1 VGG601      0.0000 
     27 H          -2.6249   -7.0101   -5.8759 H         1 VGG601      0.0000 
     28 H          -2.8638   -8.5471   -3.1213 H         1 VGG601      0.0000 
     29 H          -4.6504   -9.0330   -6.8762 H         1 VGG601      0.0000 
     30 H          -4.9563  -11.3885   -6.4241 H         1 VGG601      0.0000 
     31 H          -4.2036  -12.3246   -4.3271 H         1 VGG601      0.0000 
     32 H          -3.9091   -3.8866   -8.7880 H         1 VGG601      0.0000 
     33 H          -4.1054   -5.2064   -9.6858 H         1 VGG601      0.0000 
     34 H          -4.6303   -3.7839  -10.2217 H         1 VGG601      0.0000 
     35 H          -5.8770   -2.7883   -7.7235 H         1 VGG601      0.0000 
     36 H          -6.5929   -2.6871   -9.1600 H         1 VGG601      0.0000 
     37 H          -7.3527   -3.3930   -7.9309 H         1 VGG601      0.0000 
     38 H          -6.9109   -4.7332  -10.5527 H         1 VGG601      0.0000 
     39 H          -6.3956   -6.1620  -10.0240 H         1 VGG601      0.0000 
     40 H          -7.6700   -5.4621   -9.3366 H         1 VGG601      0.0000 
     41 H          -2.0280  -10.9481   -2.1437 H         1 VGG601      0.0000 
     42 H          -3.4656  -10.6409   -1.4915 H         1 VGG601      0.0000 
     43 H          -3.1934  -12.0544   -2.2086 H         1 VGG601      0.0000 
@<TRIPOS>BOND
     1    2    1 1    
     2   32    1 1    
     3   33    1 1    
     4   34    1 1    
     5    3    2 1    
     6    4    2 1    
     7    5    2 1    
     8   35    3 1    
     9   36    3 1    
    10   37    3 1    
    11   38    4 1    
    12   39    4 1    
    13   40    4 1    
    14    6    5 1    
    15    7    5 1    
    16   14    6 2    
    17    8    7 ar   
    18   13    7 ar   
    19    9    8 ar   
    20   10    9 ar   
    21   23    9 1    
    22   11   10 ar   
    23   12   11 1    
    24   13   11 ar   
    25   24   12 1    
    26   25   12 1    
    27   14   13 1    
    28   15   14 1    
    29   16   15 1    
    30   26   15 1    
    31   27   15 1    
    32   17   16 ar   
    33   18   16 ar   
    34   21   17 ar   
    35   28   17 1    
    36   19   18 ar   
    37   29   18 1    
    38   20   19 ar   
    39   30   19 1    
    40   21   20 ar   
    41   31   20 1    
    42   22   21 1    
    43   41   22 1    
    44   42   22 1    
    45   43   22 1    
@<TRIPOS>SUBSTRUCTURE
     1 VGG601      1 GROUP   
@<TRIPOS>SET

