#    Name: 2qjk_SMA_3_INTS_M
#    Modification time : Mon Mar 24 22:15:11 2014

@<TRIPOS>MOLECULE
2qjk_SMA_3_INTS_M
  125     0     9     0     0
SMALL
NO_CHARGES


@<TRIPOS>ATOM
      1 CA         68.4400   54.2975  128.7915 C.3       3 GLC5        0.0000 
      2 CA         66.3720   54.8840  129.4150 C.3       9 GLL5        0.0000 
      3 CA         70.5080   53.7110  128.1680 C.3       6 GLP5        0.0000 
      4 CA         65.1635   54.3255  125.9555 C.3       3 GLC5        0.0000 
      5 CA         65.6340   54.7890  128.0990 C.3       9 GLL5        0.0000 
      6 CA         64.6930   53.8620  123.8120 C.3       6 GLP5        0.0000 
      7 CA         64.4455   55.8215  127.1220 C.3       3 GLC5        0.0000 
      8 CA         63.2570   56.8540  126.1450 C.3       6 GLP5        0.0000 
      9 CA         70.3115   49.0595  130.1345 C.3       3 GLC5        0.0000 
     10 CA         69.5020   50.5050  131.0470 C.3       9 GLL5        0.0000 
     11 CA         71.1210   47.6140  129.2220 C.3       6 GLP5        0.0000 
     12 CA         70.9250   51.3270  129.9340 C.3       3 GLC5        0.0000 
     13 CA         72.3480   52.1490  128.8210 C.3       6 GLP5        0.0000 
     14 CA         70.8255   50.0950  132.4115 C.3       3 GLC5        0.0000 
     15 CA         72.1490   49.6850  133.7760 C.3       6 GLP5        0.0000 
     16 CA         67.4115   50.3570  130.7125 C.3       3 GLC5        0.0000 
     17 CA         65.3210   50.2090  130.3780 C.3       6 GLP5        0.0000 
     18 CA         70.8530   51.3175  133.1260 C.3       3 GLC5        0.0000 
     19 CA         69.5570   52.9500  132.4760 C.3       9 GLL5        0.0000 
     20 CA         70.4530   52.0730  137.0685 C.3       3 GLC5        0.0000 
     21 CA         69.4520   53.4560  135.6680 C.3       9 GLL5        0.0000 
     22 CA         71.4540   50.6900  138.4690 C.3       6 GLP5        0.0000 
     23 CA         70.2780   51.4140  135.2165 C.3       3 GLC5        0.0000 
     24 CA         71.1040   49.3720  134.7650 C.3       6 GLP5        0.0000 
     25 CA         67.8425   53.3570  135.6995 C.3       3 GLC5        0.0000 
     26 CA         66.2330   53.2580  135.7310 C.3       6 GLP5        0.0000 
     27 CA         67.0830   54.3505  133.6975 C.3       3 GLC5        0.0000 
     28 CA         68.5150   54.9920  133.0010 C.3       9 GLL5        0.0000 
     29 CA         65.6510   53.7090  134.3940 C.3       6 GLP5        0.0000 
     30 CA         64.5520   57.8155  131.8985 C.3       3 GLC5        0.0000 
     31 CA         65.1770   57.0750  129.9560 C.3       9 GLL5        0.0000 
     32 CA         63.9270   58.5560  133.8410 C.3       6 GLP5        0.0000 
     33 CA         64.2170   56.9645  128.0505 C.3       3 GLC5        0.0000 
     34 CA         65.0135   58.2655  127.4275 C.3       3 GLC5        0.0000 
     35 CA         65.8050   58.3400  129.4730 C.3       9 GLL5        0.0000 
     36 CA         64.2220   58.1910  125.3820 C.3       6 GLP5        0.0000 
     37 CA         64.3670   60.2390  131.7035 C.3       3 GLC5        0.0000 
     38 CA         64.9380   59.5340  129.8870 C.3       9 GLL5        0.0000 
     39 CA         63.7960   60.9440  133.5200 C.3       6 GLP5        0.0000 
     40 CA         64.6425   59.4650  127.1470 C.3       3 GLC5        0.0000 
     41 CA         65.0630   60.7390  128.9120 C.3       9 GLL5        0.0000 
     42 CA         68.4505   60.6630  128.6290 C.3       3 GLC5        0.0000 
     43 CA         66.5160   61.3400  128.7660 C.3       9 GLL5        0.0000 
     44 CA         70.3850   59.9860  128.4920 C.3       6 GLP5        0.0000 
     45 CA         65.5095   62.4375  126.0155 C.3       3 GLC5        0.0000 
     46 CA         66.3980   62.7010  127.9940 C.3       9 GLL5        0.0000 
     47 CA         64.6210   62.1740  124.0370 C.3       6 GLP5        0.0000 
     48 CA         67.6105   64.9270  129.5895 C.3       3 GLC5        0.0000 
     49 CA         67.6300   63.5490  127.8980 C.3       9 GLL5        0.0000 
     50 CA         67.5910   66.3050  131.2810 C.3       6 GLP5        0.0000 
     51 CA         69.7885   62.6695  125.8210 C.3       3 GLC5        0.0000 
     52 CA         68.8440   63.1790  127.5530 C.3       9 GLL5        0.0000 
     53 CA         70.7330   62.1600  124.0890 C.3       6 GLP5        0.0000 
     54 CA         69.8815   63.7450  125.5730 C.3       3 GLC5        0.0000 
     55 CA         69.7660   64.2880  127.5750 C.3       9 GLL5        0.0000 
     56 CA         69.9970   63.2020  123.5710 C.3       6 GLP5        0.0000 
     57 CA         70.9065   63.1330  125.8335 C.3       3 GLC5        0.0000 
     58 CA         71.0800   64.1060  127.5780 C.3       9 GLL5        0.0000 
     59 CA         74.7890   64.1445  129.0300 C.3       3 GLC5        0.0000 
     60 CA         73.2480   65.0640  127.8380 C.3       9 GLL5        0.0000 
     61 CA         76.3300   63.2250  130.2220 C.3       6 GLP5        0.0000 
     62 CA         73.7115   66.7660  130.0800 C.3       3 GLC5        0.0000 
     63 CA         74.1720   66.2190  128.1940 C.3       9 GLL5        0.0000 
     64 CA         73.2510   67.3130  131.9660 C.3       6 GLP5        0.0000 
     65 CA         75.0910   66.0635  126.2505 C.3       3 GLC5        0.0000 
     66 CA         76.0100   65.9080  124.3070 C.3       6 GLP5        0.0000 
     67 CA         75.5470   65.3360  129.1095 C.3       3 GLC5        0.0000 
     68 CA         76.9220   64.4530  130.0250 C.3       6 GLP5        0.0000 
     69 CA         75.0960   68.0580  128.8720 C.3       3 GLC5        0.0000 
     70 CA         76.0200   69.8970  129.5500 C.3       6 GLP5        0.0000 
     71 CA         62.4995   61.0135  130.5640 C.3       3 GLC5        0.0000 
     72 CA         63.4400   59.1510  129.9790 C.3       9 GLL5        0.0000 
     73 CA         61.5590   62.8760  131.1490 C.3       6 GLP5        0.0000 
     74 CA         63.3120   59.4215  131.7785 C.3       3 GLC5        0.0000 
     75 CA         63.1840   59.6920  133.5780 C.3       6 GLP5        0.0000 
     76 CA         61.6945   58.2730  129.4795 C.3       3 GLC5        0.0000 
     77 CA         59.9490   57.3950  128.9800 C.3       6 GLP5        0.0000 
     78 CA         63.3485   58.0025  128.0620 C.3       3 GLC5        0.0000 
     79 CA         62.2970   62.5455  128.4910 C.3       3 GLC5        0.0000 
     80 CA         63.3740   61.1940  127.2580 C.3       9 GLL5        0.0000 
     81 CA         61.2200   63.8970  129.7240 C.3       6 GLP5        0.0000 
     82 CA         63.7980   59.6925  126.3200 C.3       3 GLC5        0.0000 
     83 CA         63.9975   61.6840  125.6475 C.3       3 GLC5        0.0000 
     84 CA         61.5875   61.6165  126.9180 C.3       3 GLC5        0.0000 
     85 CA         59.8010   62.0390  126.5780 C.3       6 GLP5        0.0000 
     86 CA         68.3000   62.0575  131.6115 C.3       3 GLC5        0.0000 
     87 CA         67.1230   61.5580  130.1710 C.3       9 GLL5        0.0000 
     88 CA         69.4770   62.5570  133.0520 C.3       6 GLP5        0.0000 
     89 CA         68.1750   60.0490  130.4085 C.3       3 GLC5        0.0000 
     90 CA         69.2270   58.5400  130.6460 C.3       6 GLP5        0.0000 
     91 CA         66.1465   61.3115  131.9500 C.3       3 GLC5        0.0000 
     92 CA         65.1700   61.0650  133.7290 C.3       6 GLP5        0.0000 
     93 CA         63.8880   65.7465  127.1965 C.3       3 GLC5        0.0000 
     94 CA         65.1230   64.7280  127.8810 C.3       9 GLL5        0.0000 
     95 CA         62.6530   66.7650  126.5120 C.3       6 GLP5        0.0000 
     96 CA         64.4010   64.6310  129.8920 C.3       3 GLC5        0.0000 
     97 CA         63.6790   64.5340  131.9030 C.3       6 GLP5        0.0000 
     98 CA         66.3570   65.5165  129.5810 C.3       3 GLC5        0.0000 
     99 N          67.4830   51.6560  128.2535 N.am      2 SEC2        0.0000 
    100 N          67.3930   52.9700  128.9830 N.am      8 SEL2        0.0000 
    101 N          67.5730   50.3420  127.5240 N.am      5 SEP2        0.0000 
    102 O          68.0475   56.0595  135.2195 O.2       1 ALC1        0.0000 
    103 O          68.3590   56.1020  133.9080 O.2       7 ALL1        0.0000 
    104 O          67.7360   56.0170  136.5310 O.2       4 ALP1        0.0000 
    105 CA         67.4520   57.5273  130.3832 C.3       3 GLC5        0.0000 
    106 CA         66.1770   55.9540  130.2850 C.3       9 GLL5        0.0000 
    107 CA         65.2875   53.1163  129.5040 C.3       3 GLC5        0.0000 
    108 CA         64.5720   51.3960  130.2510 C.3       6 GLP5        0.0000 
    109 CA         69.7464   53.4375  129.9805 C.3       3 GLC5        0.0000 
    110 CA         67.7010   53.0030  133.1927 C.3       3 GLC5        0.0000 
    111 CA         65.9290   52.5330  133.4880 C.3       6 GLP5        0.0000 
    112 CA         70.9205   54.6227  132.9801 C.3       3 GLC5        0.0000 
    113 CA         72.8470   55.0130  133.0110 C.3       6 GLP5        0.0000 
    114 CA         68.6928   56.7565  131.5285 C.3       3 GLC5        0.0000 
    115 CA         67.0181   53.3495  132.4767 C.3       3 GLC5        0.0000 
    116 CA         67.8020   54.9540  131.8210 C.3       9 GLL5        0.0000 
    117 CA         67.2993   58.7385  130.1630 C.3       3 GLC5        0.0000 
    118 CA         70.2840   63.2772  129.4295 C.3       3 GLC5        0.0000 
    119 CA         71.2630   62.8210  131.2950 C.3       6 GLP5        0.0000 
    120 CA         70.2887   61.9529  128.0315 C.3       3 GLC5        0.0000 
    121 CA         73.6525   64.4920  126.1310 C.3       3 GLC5        0.0000 
    122 CA         71.9300   65.2680  127.6660 C.3       9 GLL5        0.0000 
    123 CA         74.7160   63.8180  124.5100 C.3       6 GLP5        0.0000 
    124 CA         72.3828   63.6212  129.1720 C.3       3 GLC5        0.0000 
    125 CA         72.3890   62.3670  130.6140 C.3       6 GLP5        0.0000 
@<TRIPOS>BOND
@<TRIPOS>SUBSTRUCTURE
     1 ALC1      102 GROUP        1 X    ALC  0     ROOT ALC X 1
     2 SEC2       99 GROUP        1 X    SEC  0     **** SEC X 2
     3 GLC5        1 GROUP        1 X    GLC  0     **** GLC X 6
     4 ALP1      104 GROUP        1 Y    ALP  0     ROOT ALP Y 8
     5 SEP2      101 GROUP        1 Y    SEP  0     **** SEP Y 9
     6 GLP5        3 GROUP        1 Y    GLP  0     **** GLP Y 13
     7 ALL1      103 GROUP        1 Z    ALL  0     ROOT ALL Z 15
     8 SEL2      100 GROUP        1 Z    SEL  0     **** SEL Z 16
     9 GLL5        2 GROUP        1 Z    GLL  0     **** GLL Z 20
@<TRIPOS>SET

