#    Name: 2qjk_SMA_3_ligand
#    Modification time : Mon Mar 24 22:15:12 2014

@<TRIPOS>MOLECULE
2qjk_SMA_3_ligand
   79    80     1     0     0
SMALL
NO_CHARGES


@<TRIPOS>ATOM
      1 C2         66.1770   55.9540  130.2850 C.2       1 SMA2        0.0000 
      2 C3         66.3720   54.8840  129.4150 C.2       1 SMA2        0.0000 
      3 C3M        65.6340   54.7890  128.0990 C.3       1 SMA2        0.0000 
      4 C4         67.2530   53.8760  129.7530 C.2       1 SMA2        0.0000 
      5 C4A        67.9640   53.8920  130.9420 C.ar      1 SMA2        0.0000 
      6 C5         68.8610   52.8640  131.2780 C.ar      1 SMA2        0.0000 
      7 C5M        69.5020   50.5050  131.0470 C.3       1 SMA2        0.0000 
      8 C6         69.5570   52.9500  132.4760 C.ar      1 SMA2        0.0000 
      9 C7         69.3890   53.9960  133.3190 C.ar      1 SMA2        0.0000 
     10 C7M        69.4520   53.4560  135.6680 C.3       1 SMA2        0.0000 
     11 C8         68.5150   54.9920  133.0010 C.ar      1 SMA2        0.0000 
     12 C8A        67.8020   54.9540  131.8210 C.ar      1 SMA2        0.0000 
     13 C9         65.1770   57.0750  129.9560 C.3       1 SMA2        0.0000 
     14 C10        65.8050   58.3400  129.4730 C.3       1 SMA2        0.0000 
     15 C11        64.9380   59.5340  129.8870 C.3       1 SMA2        0.0000 
     16 C12        65.0630   60.7390  128.9120 C.3       1 SMA2        0.0000 
     17 C13        66.5160   61.3400  128.7660 C.3       1 SMA2        0.0000 
     18 C14        66.3980   62.7010  127.9940 C.3       1 SMA2        0.0000 
     19 C15        67.6300   63.5490  127.8980 C.2       1 SMA2        0.0000 
     20 C16        68.8440   63.1790  127.5530 C.2       1 SMA2        0.0000 
     21 C17        69.7660   64.2880  127.5750 C.2       1 SMA2        0.0000 
     22 C18        71.0800   64.1060  127.5780 C.2       1 SMA2        0.0000 
     23 C19        71.9300   65.2680  127.6660 C.2       1 SMA2        0.0000 
     24 C20        73.2480   65.0640  127.8380 C.2       1 SMA2        0.0000 
     25 C21        74.1720   66.2190  128.1940 C.3       1 SMA2        0.0000 
     26 C22        63.4400   59.1510  129.9790 C.3       1 SMA2        0.0000 
     27 C23        63.3740   61.1940  127.2580 C.3       1 SMA2        0.0000 
     28 C24        67.1230   61.5580  130.1710 C.3       1 SMA2        0.0000 
     29 C25        65.1230   64.7280  127.8810 C.3       1 SMA2        0.0000 
     30 C26        71.3250   66.6810  127.5720 C.3       1 SMA2        0.0000 
     31 O1         66.8990   55.9870  131.4980 O.3       1 SMA2        0.0000 
     32 O4         67.3930   52.9700  128.9830 O.2       1 SMA2        0.0000 
     33 O5         69.0690   51.7250  130.3650 O.3       1 SMA2        0.0000 
     34 O7         70.1640   54.0530  134.5590 O.3       1 SMA2        0.0000 
     35 O8         68.3590   56.1020  133.9080 O.3       1 SMA2        0.0000 
     36 O12        64.5320   60.3530  127.5830 O.3       1 SMA2        0.0000 
     37 O14        65.3710   63.4910  128.6160 O.3       1 SMA2        0.0000 
     38 H          70.2230   52.1817  132.7195 H         1 SMA2        0.0000 
     39 H          64.5763   57.2765  130.8641 H         1 SMA2        0.0000 
     40 H          64.4701   56.6919  129.1947 H         1 SMA2        0.0000 
     41 H          65.8894   58.3296  128.3894 H         1 SMA2        0.0000 
     42 H          66.7940   58.4601  129.9075 H         1 SMA2        0.0000 
     43 H          65.2461   59.8772  130.8716 H         1 SMA2        0.0000 
     44 H          64.4243   61.5478  129.3105 H         1 SMA2        0.0000 
     45 H          67.1041   60.6698  128.2071 H         1 SMA2        0.0000 
     46 H          66.0626   62.4536  126.9699 H         1 SMA2        0.0000 
     47 H          67.4265   64.5815  128.1574 H         1 SMA2        0.0000 
     48 H          69.1517   62.2856  127.3022 H         1 SMA2        0.0000 
     49 H          69.3384   65.2409  127.5884 H         1 SMA2        0.0000 
     50 H          71.5294   63.1926  127.5218 H         1 SMA2        0.0000 
     51 H          73.7069   64.1555  127.7460 H         1 SMA2        0.0000 
     52 H          65.8341   55.5674  127.5040 H         1 SMA2        0.0000 
     53 H          65.8812   53.9624  127.5934 H         1 SMA2        0.0000 
     54 H          64.6428   54.7672  128.2298 H         1 SMA2        0.0000 
     55 H          69.6385   49.7497  130.4060 H         1 SMA2        0.0000 
     56 H          70.3663   50.6375  131.5322 H         1 SMA2        0.0000 
     57 H          68.8309   50.1988  131.7222 H         1 SMA2        0.0000 
     58 H          69.9827   53.4958  136.5146 H         1 SMA2        0.0000 
     59 H          68.5836   53.9194  135.8444 H         1 SMA2        0.0000 
     60 H          69.2414   52.4931  135.4990 H         1 SMA2        0.0000 
     61 H          75.1218   65.9200  128.2861 H         1 SMA2        0.0000 
     62 H          74.1566   66.9355  127.4966 H         1 SMA2        0.0000 
     63 H          73.9143   66.6474  129.0601 H         1 SMA2        0.0000 
     64 H          63.0855   58.8249  129.1026 H         1 SMA2        0.0000 
     65 H          63.2829   58.4241  130.6475 H         1 SMA2        0.0000 
     66 H          62.8740   59.9285  130.2530 H         1 SMA2        0.0000 
     67 H          63.6146   62.1643  127.2344 H         1 SMA2        0.0000 
     68 H          62.9885   60.9658  126.3640 H         1 SMA2        0.0000 
     69 H          62.6397   61.0903  127.9289 H         1 SMA2        0.0000 
     70 H          68.0453   61.9414  130.1217 H         1 SMA2        0.0000 
     71 H          66.5728   62.1875  130.7197 H         1 SMA2        0.0000 
     72 H          67.1883   60.7022  130.6842 H         1 SMA2        0.0000 
     73 H          65.9416   65.3001  127.8299 H         1 SMA2        0.0000 
     74 H          64.8311   64.5495  126.9414 H         1 SMA2        0.0000 
     75 H          64.4071   65.2783  128.3108 H         1 SMA2        0.0000 
     76 H          72.0256   67.3907  127.6462 H         1 SMA2        0.0000 
     77 H          70.8523   66.8255  126.7027 H         1 SMA2        0.0000 
     78 H          70.6594   66.8491  128.2991 H         1 SMA2        0.0000 
     79 H          68.1561   55.6854  134.7942 H         1 SMA2        0.0000 
@<TRIPOS>BOND
     1    2    1 2    
     2   13    1 1    
     3   31    1 1    
     4    3    2 1    
     5    4    2 1    
     6   52    3 1    
     7   53    3 1    
     8   54    3 1    
     9    5    4 1    
    10   32    4 2    
    11    6    5 ar   
    12   12    5 ar   
    13    8    6 ar   
    14   33    6 1    
    15   33    7 1    
    16   55    7 1    
    17   56    7 1    
    18   57    7 1    
    19    9    8 ar   
    20   38    8 1    
    21   11    9 ar   
    22   34    9 1    
    23   34   10 1    
    24   58   10 1    
    25   59   10 1    
    26   60   10 1    
    27   12   11 ar   
    28   35   11 1    
    29   31   12 1    
    30   14   13 1    
    31   39   13 1    
    32   40   13 1    
    33   15   14 1    
    34   41   14 1    
    35   42   14 1    
    36   16   15 1    
    37   26   15 1    
    38   43   15 1    
    39   17   16 1    
    40   36   16 1    
    41   44   16 1    
    42   18   17 1    
    43   28   17 1    
    44   45   17 1    
    45   19   18 1    
    46   37   18 1    
    47   46   18 1    
    48   20   19 2    
    49   47   19 1    
    50   21   20 1    
    51   48   20 1    
    52   22   21 2    
    53   49   21 1    
    54   23   22 1    
    55   50   22 1    
    56   24   23 2    
    57   30   23 1    
    58   25   24 1    
    59   51   24 1    
    60   61   25 1    
    61   62   25 1    
    62   63   25 1    
    63   64   26 1    
    64   65   26 1    
    65   66   26 1    
    66   36   27 1    
    67   67   27 1    
    68   68   27 1    
    69   69   27 1    
    70   70   28 1    
    71   71   28 1    
    72   72   28 1    
    73   37   29 1    
    74   73   29 1    
    75   74   29 1    
    76   75   29 1    
    77   76   30 1    
    78   77   30 1    
    79   78   30 1    
    80   79   35 1    
@<TRIPOS>SUBSTRUCTURE
     1 SMA2        1 GROUP   
@<TRIPOS>SET

