#    Name: 3qcm_NXW_2_INTS_M
#    Modification time : Mon Apr  7 19:21:44 2014

@<TRIPOS>MOLECULE
3qcm_NXW_2_INTS_M
   90     0     9     0     0
SMALL
NO_CHARGES


@<TRIPOS>ATOM
      1 CA         31.7125   12.8600   87.4305 C.3       3 GLC5        0.0000 
      2 CA         31.1320   11.4960   85.8880 C.3       9 GLL5        0.0000 
      3 CA         32.2930   14.2240   88.9730 C.3       6 GLP5        0.0000 
      4 CA         35.2460    8.1195   79.4805 C.3       3 GLC5        0.0000 
      5 CA         36.4800    9.6650   79.3690 C.3       9 GLL5        0.0000 
      6 CA         34.0120    6.5740   79.5920 C.3       6 GLP5        0.0000 
      7 CA         31.2500   11.9225   81.3925 C.3       3 GLC5        0.0000 
      8 CA         30.9190   10.7780   83.1840 C.3       9 GLL5        0.0000 
      9 CA         31.5810   13.0670   79.6010 C.3       6 GLP5        0.0000 
     10 CA         33.5545   12.4775   83.9360 C.3       3 GLC5        0.0000 
     11 CA         32.1920   10.9830   83.7450 C.3       9 GLL5        0.0000 
     12 CA         34.9170   13.9720   84.1270 C.3       6 GLP5        0.0000 
     13 CA         38.8690   13.0130   84.3980 C.3       3 GLC5        0.0000 
     14 CA         39.4110   11.8870   82.9460 C.3       9 GLL5        0.0000 
     15 CA         38.3270   14.1390   85.8500 C.3       6 GLP5        0.0000 
     16 CA         27.1015   12.2815   81.7875 C.3       3 GLC5        0.0000 
     17 CA         26.6240   10.2340   81.9110 C.3       9 GLL5        0.0000 
     18 CA         27.5790   14.3290   81.6640 C.3       6 GLP5        0.0000 
     19 NZ         40.7005   10.9040   78.1255 N.4       2 LYC4        0.0000 
     20 NZ         39.2470   11.1280   78.0900 N.4       8 LYL4        0.0000 
     21 NZ         42.7010    9.5220   77.8050 N.4       5 LYP4        0.0000 
     22 N          40.7005   10.9040   78.1255 N.am      1 SEC2        0.0000 
     23 N          39.2470   11.1280   78.0900 N.am      7 SEL2        0.0000 
     24 N          42.1540   10.6800   78.1610 N.am      4 SEP2        0.0000 
     25 N          38.6820   12.3695   77.5390 N.am      1 SEC2        0.0000 
     26 N          38.1170   13.6110   76.9880 N.am      4 SEP2        0.0000 
     27 NZ         40.5825    8.6810   78.1550 N.4       2 LYC4        0.0000 
     28 NZ         39.2160    8.9260   78.6190 N.4       8 LYL4        0.0000 
     29 N          40.6850    9.8030   78.3900 N.am      1 SEC2        0.0000 
     30 N          39.2160    8.9260   78.6190 N.am      7 SEL2        0.0000 
     31 N          40.5825    8.6810   78.1550 N.am      1 SEC2        0.0000 
     32 N          41.9490    8.4360   77.6910 N.am      4 SEP2        0.0000 
     33 CA         40.6505   12.5640   80.0065 C.3       3 GLC5        0.0000 
     34 CA         39.2880   12.0780   81.1760 C.3       9 GLL5        0.0000 
     35 CA         42.0130   13.0500   78.8370 C.3       6 GLP5        0.0000 
     36 CA         37.9825   13.2270   79.9570 C.3       3 GLC5        0.0000 
     37 CA         36.6770   14.3760   78.7380 C.3       6 GLP5        0.0000 
     38 CA         45.0155   13.7005   83.1030 C.3       3 GLC5        0.0000 
     39 CA         44.7250   14.0550   84.7670 C.3       9 GLL5        0.0000 
     40 CA         45.3060   13.3460   81.4390 C.3       6 GLP5        0.0000 
     41 CA         45.6305   12.2420   85.0090 C.3       3 GLC5        0.0000 
     42 CA         46.5360   10.4290   85.2510 C.3       6 GLP5        0.0000 
     43 CA         46.0265   14.3435   85.7765 C.3       3 GLC5        0.0000 
     44 CA         47.3280   14.6320   86.7860 C.3       6 GLP5        0.0000 
     45 CA         45.4100   16.1540   84.7940 C.3       3 GLC5        0.0000 
     46 CA         46.0950   18.2530   84.8210 C.3       6 GLP5        0.0000 
     47 CA         42.1350   15.0525   85.6275 C.3       3 GLC5        0.0000 
     48 CA         42.4220   15.9650   83.8960 C.3       9 GLL5        0.0000 
     49 CA         41.8480   14.1400   87.3590 C.3       6 GLP5        0.0000 
     50 CA         40.7170   16.3605   83.1925 C.3       3 GLC5        0.0000 
     51 CA         39.0120   16.7560   82.4890 C.3       6 GLP5        0.0000 
     52 CA         42.7855   17.6465   83.6595 C.3       3 GLC5        0.0000 
     53 CA         43.1490   19.3280   83.4230 C.3       6 GLP5        0.0000 
     54 CA         40.8725   16.8200   85.1430 C.3       3 GLC5        0.0000 
     55 CA         39.3230   17.6750   86.3900 C.3       6 GLP5        0.0000 
     56 CA         32.9575   11.2370   80.8007 C.3       3 GLC5        0.0000 
     57 CA         34.3400   10.6910   82.2450 C.3       9 GLL5        0.0000 
     58 CA         32.0610   11.7180   79.0100 C.3       6 GLP5        0.0000 
     59 CA         34.3855   12.3640   83.3593 C.3       3 GLC5        0.0000 
     60 CA         29.7208   12.8805   85.0772 C.3       3 GLC5        0.0000 
     61 CA         28.9460   14.3690   84.5470 C.3       6 GLP5        0.0000 
     62 CA         32.7675   13.0795   85.2097 C.3       3 GLC5        0.0000 
     63 CA         33.8220   14.7390   84.9240 C.3       6 GLP5        0.0000 
     64 CA         34.7029    8.4085   81.0634 C.3       3 GLC5        0.0000 
     65 CA         34.2580    6.6070   81.1030 C.3       6 GLP5        0.0000 
     66 CA         36.9798    8.3908   80.7072 C.3       3 GLC5        0.0000 
     67 CA         35.3870    9.7840   80.2340 C.3       9 GLL5        0.0000 
     68 CA         38.0260    7.0570   81.6130 C.3       6 GLP5        0.0000 
     69 CA         33.7465   10.9503   79.9090 C.3       3 GLC5        0.0000 
     70 CA         29.6395   12.6117   84.0623 C.3       3 GLC5        0.0000 
     71 CA         37.0468    8.9960   81.5678 C.3       3 GLC5        0.0000 
     72 CA         35.4770   10.5810   81.3820 C.3       9 GLL5        0.0000 
     73 CA         35.4922   12.4535   82.8247 C.3       3 GLC5        0.0000 
     74 CA         36.6580   11.2890   81.6630 C.3       9 GLL5        0.0000 
     75 CA         41.7055   14.0795   85.4985 C.3       3 GLC5        0.0000 
     76 CA         40.9440   13.7730   83.4290 C.3       9 GLL5        0.0000 
     77 CA         40.2875   15.3875   83.0635 C.3       3 GLC5        0.0000 
     78 CA         42.1820   14.2650   83.8470 C.3       9 GLL5        0.0000 
     79 CA         37.8710    8.9097   80.9228 C.3       3 GLC5        0.0000 
     80 CA         37.7670   11.1700   80.8030 C.3       9 GLL5        0.0000 
     81 CA         37.0579   12.5841   79.5927 C.3       3 GLC5        0.0000 
     82 CA         37.6650   10.3550   79.6620 C.3       9 GLL5        0.0000 
     83 CA         41.5950   11.8640   85.5750 C.3       3 GLC5        0.0000 
     84 CA         40.7390   12.4040   83.3990 C.3       9 GLL5        0.0000 
     85 CA         41.6340   11.6400   87.4520 C.3       6 GLP5        0.0000 
     86 CA         42.9068   13.9350   85.9310 C.3       3 GLC5        0.0000 
     87 CA         43.2060   13.4050   84.2390 C.3       9 GLL5        0.0000 
     88 CA         43.9739   13.4176   82.7370 C.3       3 GLC5        0.0000 
     89 CA         40.9267   10.6438   81.6775 C.3       3 GLC5        0.0000 
     90 CA         42.5040    9.3050   81.2940 C.3       6 GLP5        0.0000 
@<TRIPOS>BOND
@<TRIPOS>SUBSTRUCTURE
     1 SEC2       22 GROUP        1 X    SEC  0     ROOT SEC X 2
     2 LYC4       19 GROUP        1 X    LYC  0     **** LYC X 4
     3 GLC5        1 GROUP        1 X    GLC  0     **** GLC X 6
     4 SEP2       24 GROUP        1 Y    SEP  0     ROOT SEP Y 9
     5 LYP4       21 GROUP        1 Y    LYP  0     **** LYP Y 11
     6 GLP5        3 GROUP        1 Y    GLP  0     **** GLP Y 13
     7 SEL2       23 GROUP        1 Z    SEL  0     ROOT SEL Z 16
     8 LYL4       20 GROUP        1 Z    LYL  0     **** LYL Z 18
     9 GLL5        2 GROUP        1 Z    GLL  0     **** GLL Z 20
@<TRIPOS>SET

