#    Name: 3qcm_NXW_2_ligand
#    Modification time : Mon Apr  7 19:21:44 2014

@<TRIPOS>MOLECULE
3qcm_NXW_2_ligand
   58    60     1     0     0
SMALL
NO_CHARGES


@<TRIPOS>ATOM
      1 C1         33.3680   10.8210   82.9380 C.1       1 NXW2001     0.0000 
      2 C2         34.3400   10.6910   82.2450 C.1       1 NXW2001     0.0000 
      3 C3         31.1320   11.4960   85.8880 C.ar      1 NXW2001     0.0000 
      4 C4         32.2940   11.3440   85.1030 C.ar      1 NXW2001     0.0000 
      5 C5         35.3870    9.7840   80.2340 C.ar      1 NXW2001     0.0000 
      6 C6         36.4800    9.6650   79.3690 C.ar      1 NXW2001     0.0000 
      7 C7         41.7490   11.5220   83.7870 C.ar      1 NXW2001     0.0000 
      8 C8         29.8590   11.2880   85.3270 C.ar      1 NXW2001     0.0000 
      9 C9         42.9970   12.0220   84.2070 C.ar      1 NXW2001     0.0000 
     10 C10        30.9190   10.7780   83.1840 C.ar      1 NXW2001     0.0000 
     11 C11        36.6580   11.2890   81.6630 C.ar      1 NXW2001     0.0000 
     12 C12        40.9440   13.7730   83.4290 C.ar      1 NXW2001     0.0000 
     13 C13        32.1920   10.9830   83.7450 C.ar      1 NXW2001     0.0000 
     14 C14        35.4770   10.5810   81.3820 C.ar      1 NXW2001     0.0000 
     15 C15        37.6650   10.3550   79.6620 C.ar      1 NXW2001     0.0000 
     16 C16        40.7390   12.4040   83.3990 C.ar      1 NXW2001     0.0000 
     17 C17        29.7470   10.9310   83.9710 C.ar      1 NXW2001     0.0000 
     18 C18        37.7670   11.1700   80.8030 C.ar      1 NXW2001     0.0000 
     19 C19        43.2060   13.4050   84.2390 C.ar      1 NXW2001     0.0000 
     20 C20        42.1820   14.2650   83.8470 C.ar      1 NXW2001     0.0000 
     21 C21        38.7670   10.2050   78.7300 C.2       1 NXW2001     0.0000 
     22 C22        28.1340   10.3580   82.0860 C.2       1 NXW2001     0.0000 
     23 C23        22.0960    8.5930   79.7590 C.3       1 NXW2001     0.0000 
     24 C24        39.4110   11.8870   82.9460 C.3       1 NXW2001     0.0000 
     25 C25        26.6240   10.2340   81.9110 C.3       1 NXW2001     0.0000 
     26 C26        24.4550    8.7660   79.3420 C.3       1 NXW2001     0.0000 
     27 C27        25.4460    9.7910   79.8610 C.3       1 NXW2001     0.0000 
     28 N28        28.4700   10.7250   83.4130 N.am      1 NXW2001     0.0000 
     29 N29        23.1620    9.3460   79.0950 N.3       1 NXW2001     0.0000 
     30 N30        26.3130    9.2440   80.9020 N.4       1 NXW2001     0.0000 
     31 O31        39.2470   11.1280   78.0900 O.co2     1 NXW2001     0.0000 
     32 O32        28.9170   10.1460   81.1520 O.2       1 NXW2001     0.0000 
     33 O33        39.2160    8.9260   78.6190 O.co2     1 NXW2001     0.0000 
     34 S34        39.2880   12.0780   81.1760 S.3       1 NXW2001     0.0000 
     35 CL35       44.7250   14.0550   84.7670 Cl        1 NXW2001     0.0000 
     36 CL36       42.4220   15.9650   83.8960 Cl        1 NXW2001     0.0000 
     37 H          31.2178   11.7603   86.8755 H         1 NXW2001     0.0000 
     38 H          33.2154   11.4969   85.5227 H         1 NXW2001     0.0000 
     39 H          34.5133    9.2843   80.0266 H         1 NXW2001     0.0000 
     40 H          36.4171    9.0830   78.5338 H         1 NXW2001     0.0000 
     41 H          41.5881   10.5106   83.7683 H         1 NXW2001     0.0000 
     42 H          29.0219   11.3954   85.9001 H         1 NXW2001     0.0000 
     43 H          43.7378   11.3791   84.4840 H         1 NXW2001     0.0000 
     44 H          30.8297   10.5151   82.1966 H         1 NXW2001     0.0000 
     45 H          36.7133   11.8885   82.4882 H         1 NXW2001     0.0000 
     46 H          40.2027   14.4189   83.1501 H         1 NXW2001     0.0000 
     47 H          38.5814   12.4505   83.2995 H         1 NXW2001     0.0000 
     48 H          39.2846   10.8393   83.0768 H         1 NXW2001     0.0000 
     49 H          26.2316   11.2197   81.6335 H         1 NXW2001     0.0000 
     50 H          26.1904    9.9616   82.8807 H         1 NXW2001     0.0000 
     51 H          24.3895    7.9497   80.0838 H         1 NXW2001     0.0000 
     52 H          24.8746    8.3228   78.4209 H         1 NXW2001     0.0000 
     53 H          24.8795   10.6568   80.2448 H         1 NXW2001     0.0000 
     54 H          26.0461   10.1545   79.0092 H         1 NXW2001     0.0000 
     55 H          27.6318   10.8649   84.0847 H         1 NXW2001     0.0000 
     56 H          22.0558    7.6462   79.4398 H         1 NXW2001     0.0000 
     57 H          22.2245    8.5629   80.7503 H         1 NXW2001     0.0000 
     58 H          21.1966    8.9970   79.5922 H         1 NXW2001     0.0000 
@<TRIPOS>BOND
     1    2    1 3    
     2   13    1 1    
     3   14    2 1    
     4    4    3 ar   
     5    8    3 ar   
     6   37    3 1    
     7   13    4 ar   
     8   38    4 1    
     9    6    5 ar   
    10   14    5 ar   
    11   39    5 1    
    12   15    6 ar   
    13   40    6 1    
    14    9    7 ar   
    15   16    7 ar   
    16   41    7 1    
    17   17    8 ar   
    18   42    8 1    
    19   19    9 ar   
    20   43    9 1    
    21   13   10 ar   
    22   17   10 ar   
    23   44   10 1    
    24   14   11 ar   
    25   18   11 ar   
    26   45   11 1    
    27   16   12 ar   
    28   20   12 ar   
    29   46   12 1    
    30   18   15 ar   
    31   21   15 1    
    32   24   16 1    
    33   28   17 1    
    34   34   18 1    
    35   20   19 ar   
    36   35   19 1    
    37   36   20 1    
    38   31   21 ar   
    39   33   21 ar   
    40   25   22 1    
    41   28   22 am   
    42   32   22 2    
    43   29   23 1    
    44   56   23 1    
    45   57   23 1    
    46   58   23 1    
    47   34   24 1    
    48   47   24 1    
    49   48   24 1    
    50   30   25 1    
    51   49   25 1    
    52   50   25 1    
    53   27   26 1    
    54   29   26 1    
    55   51   26 1    
    56   52   26 1    
    57   30   27 1    
    58   53   27 1    
    59   54   27 1    
    60   55   28 1    
@<TRIPOS>SUBSTRUCTURE
     1 NXW2001     1 GROUP   
@<TRIPOS>SET

