#    Name: 2q0e_GTP_1_INTS_M
#    Modification time : Mon Mar 24 20:16:02 2014

@<TRIPOS>MOLECULE
2q0e_GTP_1_INTS_M
   57     0    15     0     0
SMALL
NO_CHARGES


@<TRIPOS>ATOM
      1 NZ         20.4490   28.9555  -44.4505 N.4       3 LYC4        0.0000 
      2 NZ         20.7660   27.5840  -45.1780 N.4      13 LYL4        0.0000 
      3 NZ         20.1320   30.3270  -43.7230 N.4       8 LYP4        0.0000 
      4 N          20.4490   28.9555  -44.4505 N.am      2 SEC2        0.0000 
      5 N          20.7660   27.5840  -45.1780 N.am     12 SEL2        0.0000 
      6 N          20.1320   30.3270  -43.7230 N.am      7 SEP2        0.0000 
      7 N          22.1565   27.7860  -44.6350 N.am      2 SEC2        0.0000 
      8 N          23.5470   27.9880  -44.0920 N.am      7 SEP2        0.0000 
      9 NZ         19.4060   26.0615  -42.5150 N.4       3 LYC4        0.0000 
     10 NZ         18.9840   26.6190  -43.8490 N.4      13 LYL4        0.0000 
     11 NZ         19.8280   25.5040  -41.1810 N.4       8 LYP4        0.0000 
     12 NZ         19.5580   28.4730  -43.7860 N.4       3 LYC4        0.0000 
     13 N          17.7120   26.8555  -43.3920 N.am      2 SEC2        0.0000 
     14 N          18.9840   26.6190  -43.8490 N.am     12 SEL2        0.0000 
     15 N          16.4400   27.0920  -42.9350 N.am      7 SEP2        0.0000 
     16 N          19.4060   26.0615  -42.5150 N.am      2 SEC2        0.0000 
     17 N          19.8280   25.5040  -41.1810 N.am      7 SEP2        0.0000 
     18 Zn         18.9280   25.2580  -47.0670 Zn        4 ZIC7        0.0000 
     19 Zn         19.1040   26.0490  -46.2730 Zn       14 ZIL7        0.0000 
     20 Zn         18.7520   24.4670  -47.8610 Zn        9 ZIP7        0.0000 
     21 Zn         19.2980   23.8490  -46.9910 Zn        4 ZIC7        0.0000 
     22 Zn         19.8440   23.2310  -46.1210 Zn       14 ZIL7        0.0000 
     23 N          19.3220   22.0815  -45.4180 N.am      2 SEC2        0.0000 
     24 N          19.8440   23.2310  -46.1210 N.am     12 SEL2        0.0000 
     25 N          18.8000   20.9320  -44.7150 N.am      7 SEP2        0.0000 
     26 Zn         19.9265   24.6440  -48.0710 Zn        4 ZIC7        0.0000 
     27 Zn         21.1010   24.8210  -48.2810 Zn       14 ZIL7        0.0000 
     28 Zn         21.0590   25.6290  -49.2325 Zn        4 ZIC7        0.0000 
     29 Zn         21.0170   26.4370  -50.1840 Zn        9 ZIP7        0.0000 
     30 CA         21.4265   19.7735  -50.6165 C.3       5 GLC5        0.0000 
     31 CA         22.4810   20.8450  -49.6650 C.3      15 GLL5        0.0000 
     32 CA         20.3720   18.7020  -51.5680 C.3      10 GLP5        0.0000 
     33 CA         21.9270   18.9735  -49.7480 C.3       5 GLC5        0.0000 
     34 CA         23.6450   20.0470  -49.0900 C.3      15 GLL5        0.0000 
     35 CA         20.2090   17.9000  -50.4060 C.3      10 GLP5        0.0000 
     36 O          24.1415   17.8165  -48.3920 O.2       1 ALC1        0.0000 
     37 O          23.3550   18.6830  -48.9280 O.2      11 ALL1        0.0000 
     38 O          24.9280   16.9500  -47.8560 O.2       6 ALP1        0.0000 
     39 N          25.7205   17.9765  -50.1400 N.am      2 SEC2        0.0000 
     40 N          24.9450   19.0100  -50.8260 N.am     12 SEL2        0.0000 
     41 N          26.4960   16.9430  -49.4540 N.am      7 SEP2        0.0000 
     42 N          27.2080   24.9195  -48.9080 N.am      2 SEC2        0.0000 
     43 N          26.4120   24.1500  -49.9870 N.am     12 SEL2        0.0000 
     44 N          28.0040   25.6890  -47.8290 N.am      7 SEP2        0.0000 
     45 CA         27.4025   25.3705  -50.1695 C.3       5 GLC5        0.0000 
     46 CA         27.3090   23.4490  -50.7200 C.3      15 GLL5        0.0000 
     47 CA         27.4960   27.2920  -49.6190 C.3      10 GLP5        0.0000 
     48 N          29.9945   25.7950  -50.0250 N.am      2 SEC2        0.0000 
     49 N          29.2510   24.6410  -50.6200 N.am     12 SEL2        0.0000 
     50 N          30.7380   26.9490  -49.4300 N.am      7 SEP2        0.0000 
     51 CA         20.7910   20.5275  -47.9360 C.3       5 GLC5        0.0000 
     52 CA         19.4010   19.7380  -46.7240 C.3      10 GLP5        0.0000 
     53 CA         25.7563   20.7290  -48.3285 C.3       5 GLC5        0.0000 
     54 CA         27.3130   21.3380  -47.0610 C.3      10 GLP5        0.0000 
     55 CA         26.7773   22.7632  -48.8735 C.3       5 GLC5        0.0000 
     56 CA         26.6460   22.3220  -51.2060 C.3      15 GLL5        0.0000 
     57 CA         26.5770   22.6410  -46.7840 C.3      10 GLP5        0.0000 
@<TRIPOS>BOND
@<TRIPOS>SUBSTRUCTURE
     1 ALC1       36 GROUP        1 X    ALC  0     ROOT ALC X 1
     2 SEC2        4 GROUP        1 X    SEC  0     **** SEC X 2
     3 LYC4        1 GROUP        1 X    LYC  0     **** LYC X 4
     4 ZIC7       18 GROUP        1 X    ZIC  0     **** ZIC X 5
     5 GLC5       30 GROUP        1 X    GLC  0     **** GLC X 6
     6 ALP1       38 GROUP        1 Y    ALP  0     ROOT ALP Y 8
     7 SEP2        6 GROUP        1 Y    SEP  0     **** SEP Y 9
     8 LYP4        3 GROUP        1 Y    LYP  0     **** LYP Y 11
     9 ZIP7       20 GROUP        1 Y    ZIP  0     **** ZIP Y 12
    10 GLP5       32 GROUP        1 Y    GLP  0     **** GLP Y 13
    11 ALL1       37 GROUP        1 Z    ALL  0     ROOT ALL Z 15
    12 SEL2        5 GROUP        1 Z    SEL  0     **** SEL Z 16
    13 LYL4        2 GROUP        1 Z    LYL  0     **** LYL Z 18
    14 ZIL7       19 GROUP        1 Z    ZIL  0     **** ZIL Z 19
    15 GLL5       31 GROUP        1 Z    GLL  0     **** GLL Z 20
@<TRIPOS>SET

