#    Name: 2q0e_GTP_1_ligand
#    Modification time : Mon Mar 24 20:16:02 2014

@<TRIPOS>MOLECULE
2q0e_GTP_1_ligand
   44    46     1     0     0
SMALL
NO_CHARGES


@<TRIPOS>ATOM
      1 PG         19.8930   26.3490  -45.0240 P.3       1 GTP501      0.0000 
      2 O1G        20.7660   27.5840  -45.1780 O.co2     1 GTP501      0.0000 
      3 O2G        18.9840   26.6190  -43.8490 O.co2     1 GTP501      0.0000 
      4 O3G        19.1040   26.0490  -46.2730 O.co2     1 GTP501      0.0000 
      5 O3B        20.9090   25.1450  -44.6490 O.3       1 GTP501      0.0000 
      6 PB         21.0720   23.6980  -45.3460 P.3       1 GTP501      0.0000 
      7 O1B        19.8440   23.2310  -46.1210 O.co2     1 GTP501      0.0000 
      8 O2B        21.4270   22.7550  -44.2330 O.co2     1 GTP501      0.0000 
      9 O3A        22.3700   23.7760  -46.2780 O.3       1 GTP501      0.0000 
     10 PA         22.4230   24.2780  -47.8020 P.3       1 GTP501      0.0000 
     11 O1A        21.1010   24.8210  -48.2810 O.co2     1 GTP501      0.0000 
     12 O2A        23.5680   25.2680  -47.9010 O.co2     1 GTP501      0.0000 
     13 O5'        22.7460   22.9190  -48.5910 O.3       1 GTP501      0.0000 
     14 C5'        21.8810   21.7890  -48.6310 C.3       1 GTP501      0.0000 
     15 C4'        22.4810   20.8450  -49.6650 C.3       1 GTP501      0.0000 
     16 O4'        23.0040   21.6370  -50.7180 O.3       1 GTP501      0.0000 
     17 C3'        23.6450   20.0470  -49.0900 C.3       1 GTP501      0.0000 
     18 O3'        23.3550   18.6830  -48.9280 O.3       1 GTP501      0.0000 
     19 C2'        24.7540   20.1930  -50.1020 C.3       1 GTP501      0.0000 
     20 O2'        24.9450   19.0100  -50.8260 O.3       1 GTP501      0.0000 
     21 C1'        24.3450   21.3070  -51.0470 C.3       1 GTP501      0.0000 
     22 N9         25.3480   22.3620  -50.7700 N.pl3     1 GTP501      0.0000 
     23 C8         25.2250   23.4970  -50.0050 C.2       1 GTP501      0.0000 
     24 N7         26.4120   24.1500  -49.9870 N.2       1 GTP501      0.0000 
     25 C5         27.3090   23.4490  -50.7200 C.2       1 GTP501      0.0000 
     26 C6         28.6580   23.6530  -51.0430 C.2       1 GTP501      0.0000 
     27 O6         29.2510   24.6410  -50.6200 O.2       1 GTP501      0.0000 
     28 N1         29.3270   22.7300  -51.8430 N.am      1 GTP501      0.0000 
     29 C2         28.6290   21.6150  -52.3070 C.2       1 GTP501      0.0000 
     30 N2         29.1970   20.6950  -53.0770 N.pl3     1 GTP501      0.0000 
     31 N3         27.2970   21.4200  -51.9870 N.2       1 GTP501      0.0000 
     32 C4         26.6460   22.3220  -51.2060 C.2       1 GTP501      0.0000 
     33 H          20.8821   22.0497  -48.9524 H         1 GTP501      0.0000 
     34 H          21.8421   21.2699  -47.6834 H         1 GTP501      0.0000 
     35 H          21.7331   20.1756  -50.0110 H         1 GTP501      0.0000 
     36 H          23.9654   20.5252  -48.1867 H         1 GTP501      0.0000 
     37 H          25.6429   20.5133  -49.5865 H         1 GTP501      0.0000 
     38 H          24.4623   20.9345  -52.0334 H         1 GTP501      0.0000 
     39 H          24.4177   23.7747  -49.5570 H         1 GTP501      0.0000 
     40 H          30.3067   22.8655  -52.0851 H         1 GTP501      0.0000 
     41 H          30.1555   20.8514  -53.3153 H         1 GTP501      0.0000 
     42 H          28.6151   19.9287  -53.3492 H         1 GTP501      0.0000 
     43 H          24.1610   18.2989  -48.4776 H         1 GTP501      0.0000 
     44 H          24.1251   18.4648  -50.6517 H         1 GTP501      0.0000 
@<TRIPOS>BOND
     1    2    1 ar   
     2    3    1 ar   
     3    4    1 ar   
     4    5    1 1    
     5    6    5 1    
     6    7    6 ar   
     7    8    6 ar   
     8    9    6 1    
     9   10    9 1    
    10   11   10 ar   
    11   12   10 ar   
    12   13   10 1    
    13   14   13 1    
    14   15   14 1    
    15   33   14 1    
    16   34   14 1    
    17   16   15 1    
    18   17   15 1    
    19   35   15 1    
    20   21   16 1    
    21   18   17 1    
    22   19   17 1    
    23   36   17 1    
    24   43   18 1    
    25   20   19 1    
    26   21   19 1    
    27   37   19 1    
    28   44   20 1    
    29   22   21 1    
    30   38   21 1    
    31   23   22 1    
    32   32   22 1    
    33   24   23 2    
    34   39   23 1    
    35   25   24 1    
    36   26   25 1    
    37   32   25 2    
    38   27   26 2    
    39   28   26 am   
    40   29   28 1    
    41   40   28 1    
    42   30   29 1    
    43   31   29 2    
    44   41   30 1    
    45   42   30 1    
    46   32   31 1    
@<TRIPOS>SUBSTRUCTURE
     1 GTP501      1 GROUP   
@<TRIPOS>SET

