#    Name: 2zw4_COA_1_INTS_M
#    Modification time : Tue Mar 25 11:10:34 2014

@<TRIPOS>MOLECULE
2zw4_COA_1_INTS_M
  109     0    12     0     0
SMALL
NO_CHARGES


@<TRIPOS>ATOM
      1 CA        -60.5005   95.0550  -45.2560 C.3       4 GLC5        0.0000 
      2 CA        -62.2740   94.5910  -45.0840 C.3      12 GLL5        0.0000 
      3 CA        -58.7270   95.5190  -45.4280 C.3       8 GLP5        0.0000 
      4 O         -64.1000   97.3610  -48.4480 O.2       1 ALC1        0.0000 
      5 O         -63.2660   95.9800  -48.2930 O.2       9 ALL1        0.0000 
      6 O         -64.9340   98.7420  -48.6030 O.2       5 ALP1        0.0000 
      7 CA        -59.6920   99.7755  -43.3310 C.3       4 GLC5        0.0000 
      8 CA        -61.4320   98.6250  -43.0870 C.3      12 GLL5        0.0000 
      9 CA        -57.9520  100.9260  -43.5750 C.3       8 GLP5        0.0000 
     10 N         -63.9785   96.5320  -41.8165 N.am      2 SEC2        0.0000 
     11 N         -63.1480   97.6720  -41.5230 N.am     10 SEL2        0.0000 
     12 N         -64.8090   95.3920  -42.1100 N.am      6 SEP2        0.0000 
     13 CA        -58.6835   96.3555  -43.5995 C.3       4 GLC5        0.0000 
     14 CA        -58.6400   97.1920  -41.7710 C.3      12 GLL5        0.0000 
     15 N         -58.0630   97.2675  -44.1115 N.am      2 SEC2        0.0000 
     16 N         -57.5500   97.5820  -42.6380 N.am     10 SEL2        0.0000 
     17 N         -58.5760   96.9530  -45.5850 N.am      6 SEP2        0.0000 
     18 N         -55.0220   95.4015  -44.8410 N.am      2 SEC2        0.0000 
     19 N         -55.6750   96.4400  -44.0670 N.am     10 SEL2        0.0000 
     20 N         -54.3690   94.3630  -45.6150 N.am      6 SEP2        0.0000 
     21 NZ        -57.8770   94.7370  -40.6400 N.4       3 LYC4        0.0000 
     22 NZ        -57.0500   94.8720  -42.4430 N.4      11 LYL4        0.0000 
     23 NZ        -58.7040   94.6020  -38.8370 N.4       7 LYP4        0.0000 
     24 N         -56.2470   93.6425  -43.1655 N.am      2 SEC2        0.0000 
     25 N         -57.0500   94.8720  -42.4430 N.am     10 SEL2        0.0000 
     26 N         -55.4440   92.4130  -43.8880 N.am      6 SEP2        0.0000 
     27 N         -57.2320   93.7200  -42.1355 N.am      2 SEC2        0.0000 
     28 N         -57.4140   92.5680  -41.8280 N.am      6 SEP2        0.0000 
     29 N         -55.8165   99.8565  -43.2950 N.am      2 SEC2        0.0000 
     30 N         -55.1160   98.8090  -42.8730 N.am     10 SEL2        0.0000 
     31 N         -56.5170  100.9040  -43.7170 N.am      6 SEP2        0.0000 
     32 NZ        -56.3110  100.0945  -40.2215 N.4       3 LYC4        0.0000 
     33 NZ        -56.1740   98.8950  -40.5920 N.4      11 LYL4        0.0000 
     34 NZ        -55.7700  102.1620  -39.1130 N.4       7 LYP4        0.0000 
     35 N         -56.3110  100.0945  -40.2215 N.am      2 SEC2        0.0000 
     36 N         -56.1740   98.8950  -40.5920 N.am     10 SEL2        0.0000 
     37 N         -56.4480  101.2940  -39.8510 N.am      6 SEP2        0.0000 
     38 CA        -52.6025   97.5460  -43.7690 C.3       4 GLC5        0.0000 
     39 CA        -52.7060   97.6120  -41.7010 C.3      12 GLL5        0.0000 
     40 CA        -52.4990   97.4800  -45.8370 C.3       8 GLP5        0.0000 
     41 CA        -52.1420   99.4440  -42.6990 C.3       4 GLC5        0.0000 
     42 CA        -51.5780  101.2760  -43.6970 C.3       8 GLP5        0.0000 
     43 CA        -48.6190   96.2320  -42.7185 C.3       4 GLC5        0.0000 
     44 CA        -50.3030   96.4260  -41.6690 C.3      12 GLL5        0.0000 
     45 CA        -46.9350   96.0380  -43.7680 C.3       8 GLP5        0.0000 
     46 CA        -50.6570   96.8280  -43.7575 C.3       4 GLC5        0.0000 
     47 CA        -51.0110   97.2300  -45.8460 C.3       8 GLP5        0.0000 
     48 CA        -51.7540   95.4035  -42.5690 C.3       4 GLC5        0.0000 
     49 CA        -53.2050   94.3810  -43.4690 C.3       8 GLP5        0.0000 
     50 CA        -52.2535   98.0280  -38.0465 C.3       4 GLC5        0.0000 
     51 CA        -51.3590   97.2230  -39.3860 C.3      12 GLL5        0.0000 
     52 CA        -53.1480   98.8330  -36.7070 C.3       8 GLP5        0.0000 
     53 CA        -51.3925   95.9880  -37.8190 C.3       4 GLC5        0.0000 
     54 CA        -51.4260   94.7530  -36.2520 C.3       8 GLP5        0.0000 
     55 CA        -50.6960  100.2485  -41.4900 C.3       4 GLC5        0.0000 
     56 CA        -50.8860   98.5450  -41.1170 C.3      12 GLL5        0.0000 
     57 CA        -50.5060  101.9520  -41.8630 C.3       8 GLP5        0.0000 
     58 N         -48.4290   98.4170  -43.4135 N.am      2 SEC2        0.0000 
     59 N         -48.7070   98.9880  -42.0000 N.am     10 SEL2        0.0000 
     60 N         -48.1510   97.8460  -44.8270 N.am      6 SEP2        0.0000 
     61 N         -49.5470  100.1050  -42.5075 N.am      2 SEC2        0.0000 
     62 N         -50.3870  101.2220  -43.0150 N.am      6 SEP2        0.0000 
     63 CA        -48.4380  100.6340  -40.2280 C.3       4 GLC5        0.0000 
     64 CA        -47.2980   99.0730  -39.6040 C.3      12 GLL5        0.0000 
     65 CA        -49.5780  102.1950  -40.8520 C.3       8 GLP5        0.0000 
     66 CA        -44.8135   96.6570  -40.2220 C.3       4 GLC5        0.0000 
     67 CA        -46.4620   97.8350  -39.9970 C.3      12 GLL5        0.0000 
     68 CA        -43.1650   95.4790  -40.4470 C.3       8 GLP5        0.0000 
     69 CA        -45.9710   97.1315  -41.7520 C.3       4 GLC5        0.0000 
     70 CA        -45.4800   96.4280  -43.5070 C.3       8 GLP5        0.0000 
     71 N         -46.6975   97.0970  -36.3580 N.am      2 SEC2        0.0000 
     72 N         -46.1300   97.3500  -37.7140 N.am     10 SEL2        0.0000 
     73 N         -47.2650   96.8440  -35.0020 N.am      6 SEP2        0.0000 
     74 O         -46.4730   94.8320  -40.4155 O.2       1 ALC1        0.0000 
     75 O         -46.4850   95.5470  -39.0100 O.2       9 ALL1        0.0000 
     76 O         -46.4610   94.1170  -41.8210 O.2       5 ALP1        0.0000 
     77 CA        -48.1575   94.6555  -36.9355 C.3       4 GLC5        0.0000 
     78 CA        -46.3900   94.5780  -37.8830 C.3      12 GLL5        0.0000 
     79 CA        -49.9250   94.7330  -35.9880 C.3       8 GLP5        0.0000 
     80 CA        -44.2520   92.3575  -39.7485 C.3       4 GLC5        0.0000 
     81 CA        -45.3450   93.4880  -38.1860 C.3      12 GLL5        0.0000 
     82 CA        -43.1590   91.2270  -41.3110 C.3       8 GLP5        0.0000 
     83 CA        -45.5620   90.7335  -39.6460 C.3       4 GLC5        0.0000 
     84 CA        -46.0200   91.8290  -37.8320 C.3      12 GLL5        0.0000 
     85 CA        -45.1040   89.6380  -41.4600 C.3       8 GLP5        0.0000 
     86 CA        -47.9625   91.7300  -38.7495 C.3       4 GLC5        0.0000 
     87 CA        -49.9050   91.6310  -39.6670 C.3       8 GLP5        0.0000 
     88 CA        -47.0945   91.4585  -36.0660 C.3       4 GLC5        0.0000 
     89 CA        -48.1690   91.0880  -34.3000 C.3       8 GLP5        0.0000 
     90 CA        -60.5763   98.0315  -46.1690 C.3       4 GLC5        0.0000 
     91 CA        -62.0970   96.9200  -44.8920 C.3      12 GLL5        0.0000 
     92 CA        -58.8390   99.0660  -46.7720 C.3       8 GLP5        0.0000 
     93 CA        -64.4323   97.4620  -47.2818 C.3       4 GLC5        0.0000 
     94 CA        -62.5300   97.0740  -46.2400 C.3      12 GLL5        0.0000 
     95 CA        -66.1830   98.4400  -47.9540 C.3       8 GLP5        0.0000 
     96 CA        -60.6501   95.9823  -45.8503 C.3       4 GLC5        0.0000 
     97 CA        -63.4980   97.5490  -43.1800 C.3       4 GLC5        0.0000 
     98 CA        -65.4020   96.9580  -43.8700 C.3       8 GLP5        0.0000 
     99 CA        -58.5207   99.3732  -42.6500 C.3       4 GLC5        0.0000 
    100 CA        -59.5390   98.4490  -41.6790 C.3      12 GLL5        0.0000 
    101 CA        -50.1025   94.9775  -41.1960 C.3       4 GLC5        0.0000 
    102 CA        -51.5010   97.0160  -40.9110 C.3      12 GLL5        0.0000 
    103 CA        -49.3030   93.2340  -41.1020 C.3       8 GLP5        0.0000 
    104 CA        -52.6542   95.8475  -42.3875 C.3       4 GLC5        0.0000 
    105 CA        -52.7315   95.4518  -39.8672 C.3       4 GLC5        0.0000 
    106 CA        -54.0330   93.7840  -39.5860 C.3       8 GLP5        0.0000 
    107 CA        -46.1355   99.8460  -41.2248 C.3       4 GLC5        0.0000 
    108 CA        -45.3910  101.2380  -42.6490 C.3       8 GLP5        0.0000 
    109 CA        -44.5162   94.7560  -39.2408 C.3       4 GLC5        0.0000 
@<TRIPOS>BOND
@<TRIPOS>SUBSTRUCTURE
     1 ALC1        4 GROUP        1 X    ALC  0     ROOT ALC X 1
     2 SEC2       10 GROUP        1 X    SEC  0     **** SEC X 2
     3 LYC4       21 GROUP        1 X    LYC  0     **** LYC X 4
     4 GLC5        1 GROUP        1 X    GLC  0     **** GLC X 6
     5 ALP1        6 GROUP        1 Y    ALP  0     ROOT ALP Y 8
     6 SEP2       12 GROUP        1 Y    SEP  0     **** SEP Y 9
     7 LYP4       23 GROUP        1 Y    LYP  0     **** LYP Y 11
     8 GLP5        3 GROUP        1 Y    GLP  0     **** GLP Y 13
     9 ALL1        5 GROUP        1 Z    ALL  0     ROOT ALL Z 15
    10 SEL2       11 GROUP        1 Z    SEL  0     **** SEL Z 16
    11 LYL4       22 GROUP        1 Z    LYL  0     **** LYL Z 18
    12 GLL5        2 GROUP        1 Z    GLL  0     **** GLL Z 20
@<TRIPOS>SET

