#    Name: 2zw4_COA_1_ligand
#    Modification time : Tue Mar 25 11:10:34 2014

@<TRIPOS>MOLECULE
2zw4_COA_1_ligand
   79    81     1     0     0
SMALL
NO_CHARGES


@<TRIPOS>ATOM
      1 N1A       -62.6910   94.6850  -46.3670 N.ar      1 COA401      0.0000 
      2 C2A       -62.2740   94.5910  -45.0840 C.ar      1 COA401      0.0000 
      3 N3A       -61.9850   95.6800  -44.3650 N.ar      1 COA401      0.0000 
      4 C4A       -62.0970   96.9200  -44.8920 C.ar      1 COA401      0.0000 
      5 C5A       -62.5300   97.0740  -46.2400 C.ar      1 COA401      0.0000 
      6 C6A       -62.8330   95.8940  -46.9790 C.ar      1 COA401      0.0000 
      7 N6A       -63.2660   95.9800  -48.2930 N.pl3     1 COA401      0.0000 
      8 N7A       -62.5530   98.4020  -46.5070 N.2       1 COA401      0.0000 
      9 C8A       -62.1750   99.0670  -45.4520 C.2       1 COA401      0.0000 
     10 N9A       -61.8840   98.2060  -44.4260 N.pl3     1 COA401      0.0000 
     11 C1B       -61.4320   98.6250  -43.0870 C.3       1 COA401      0.0000 
     12 C2B       -61.7560   97.6550  -41.8930 C.3       1 COA401      0.0000 
     13 O2B       -63.1480   97.6720  -41.5230 O.3       1 COA401      0.0000 
     14 C3B       -60.8050   98.2510  -40.8440 C.3       1 COA401      0.0000 
     15 O3B       -61.3980   99.5300  -40.4470 O.3       1 COA401      0.0000 
     16 P3B       -60.8670   99.9410  -38.9680 P.3       1 COA401      0.0000 
     17 O7A       -60.3030  101.3150  -39.0220 O.co2     1 COA401      0.0000 
     18 O8A       -62.1030   99.9070  -37.9440 O.co2     1 COA401      0.0000 
     19 O9A       -59.7170   98.9120  -38.4590 O.co2     1 COA401      0.0000 
     20 C4B       -59.5390   98.4490  -41.6790 C.3       1 COA401      0.0000 
     21 O4B       -59.9880   98.7850  -43.0240 O.3       1 COA401      0.0000 
     22 C5B       -58.6400   97.1920  -41.7710 C.3       1 COA401      0.0000 
     23 O5B       -57.5500   97.5820  -42.6380 O.3       1 COA401      0.0000 
     24 P1A       -56.5710   96.2920  -42.8660 P.3       1 COA401      0.0000 
     25 O1A       -55.6750   96.4400  -44.0670 O.co2     1 COA401      0.0000 
     26 O2A       -57.0500   94.8720  -42.4430 O.co2     1 COA401      0.0000 
     27 O3A       -55.4640   96.5440  -41.6570 O.3       1 COA401      0.0000 
     28 P2A       -55.1040   98.1660  -41.5320 P.3       1 COA401      0.0000 
     29 O4A       -55.1160   98.8090  -42.8730 O.co2     1 COA401      0.0000 
     30 O5A       -56.1740   98.8950  -40.5920 O.co2     1 COA401      0.0000 
     31 O6A       -53.6420   98.3270  -40.8660 O.3       1 COA401      0.0000 
     32 CBP       -51.5010   97.0160  -40.9110 C.3       1 COA401      0.0000 
     33 CCP       -52.7060   97.6120  -41.7010 C.3       1 COA401      0.0000 
     34 CDP       -50.3030   96.4260  -41.6690 C.3       1 COA401      0.0000 
     35 CEP       -51.3590   97.2230  -39.3860 C.3       1 COA401      0.0000 
     36 CAP       -50.8860   98.5450  -41.1170 C.3       1 COA401      0.0000 
     37 OAP       -51.4590   99.5290  -40.2270 O.3       1 COA401      0.0000 
     38 C9P       -49.3510   98.7680  -40.9870 C.2       1 COA401      0.0000 
     39 O9P       -48.7070   98.9880  -42.0000 O.2       1 COA401      0.0000 
     40 N8P       -48.7420   98.7860  -39.7560 N.am      1 COA401      0.0000 
     41 C7P       -47.2980   99.0730  -39.6040 C.3       1 COA401      0.0000 
     42 C6P       -46.4620   97.8350  -39.9970 C.3       1 COA401      0.0000 
     43 C5P       -46.3450   96.8930  -38.8220 C.2       1 COA401      0.0000 
     44 O5P       -46.1300   97.3500  -37.7140 O.2       1 COA401      0.0000 
     45 N4P       -46.4850   95.5470  -39.0100 N.am      1 COA401      0.0000 
     46 C3P       -46.3900   94.5780  -37.8830 C.3       1 COA401      0.0000 
     47 C2P       -45.3450   93.4880  -38.1860 C.3       1 COA401      0.0000 
     48 S1P       -46.0200   91.8290  -37.8320 S.3       1 COA401      0.0000 
     49 H         -62.1772   93.6372  -44.6488 H         1 COA401      0.0000 
     50 H         -63.4957   95.1145  -48.7381 H         1 COA401      0.0000 
     51 H         -63.3112   96.9001  -48.6821 H         1 COA401      0.0000 
     52 H         -62.0974  100.0432  -45.3661 H         1 COA401      0.0000 
     53 H         -61.8851   99.5902  -42.8100 H         1 COA401      0.0000 
     54 H         -61.3721   96.7060  -42.1727 H         1 COA401      0.0000 
     55 H         -60.6585   97.5824  -40.0953 H         1 COA401      0.0000 
     56 H         -58.9712   99.2583  -41.2723 H         1 COA401      0.0000 
     57 H         -59.2246   96.3974  -42.1899 H         1 COA401      0.0000 
     58 H         -58.3035   96.9532  -40.7819 H         1 COA401      0.0000 
     59 H         -52.2829   98.2664  -42.4868 H         1 COA401      0.0000 
     60 H         -53.1942   96.7691  -42.2263 H         1 COA401      0.0000 
     61 H         -51.1530   98.8376  -42.1624 H         1 COA401      0.0000 
     62 H         -49.2652   98.6005  -38.8880 H         1 COA401      0.0000 
     63 H         -47.0618   99.3280  -38.5707 H         1 COA401      0.0000 
     64 H         -46.9996   99.9019  -40.2461 H         1 COA401      0.0000 
     65 H         -45.4756   98.1664  -40.3074 H         1 COA401      0.0000 
     66 H         -46.9515   97.3347  -40.8272 H         1 COA401      0.0000 
     67 H         -46.6630   95.1381  -39.9406 H         1 COA401      0.0000 
     68 H         -47.3538   94.0932  -37.7160 H         1 COA401      0.0000 
     69 H         -46.0961   95.0902  -36.9649 H         1 COA401      0.0000 
     70 H         -44.4950   93.5269  -37.5510 H         1 COA401      0.0000 
     71 H         -45.0937   93.4155  -39.2150 H         1 COA401      0.0000 
     72 H         -49.8639   97.1057  -42.2565 H         1 COA401      0.0000 
     73 H         -49.6018   96.0813  -41.0449 H         1 COA401      0.0000 
     74 H         -50.5740   95.6628  -42.2556 H         1 COA401      0.0000 
     75 H         -50.5371   96.7814  -39.0262 H         1 COA401      0.0000 
     76 H         -51.2997   98.1921  -39.1467 H         1 COA401      0.0000 
     77 H         -52.1378   96.8446  -38.8857 H         1 COA401      0.0000 
     78 H         -63.1587   97.4582  -40.5462 H         1 COA401      0.0000 
     79 H         -52.4450   99.3655  -40.2609 H         1 COA401      0.0000 
@<TRIPOS>BOND
     1    2    1 ar   
     2    6    1 ar   
     3    3    2 ar   
     4   49    2 1    
     5    4    3 ar   
     6    5    4 ar   
     7   10    4 1    
     8    6    5 ar   
     9    8    5 1    
    10    7    6 1    
    11   50    7 1    
    12   51    7 1    
    13    9    8 2    
    14   10    9 1    
    15   52    9 1    
    16   11   10 1    
    17   12   11 1    
    18   21   11 1    
    19   53   11 1    
    20   13   12 1    
    21   14   12 1    
    22   54   12 1    
    23   78   13 1    
    24   15   14 1    
    25   20   14 1    
    26   55   14 1    
    27   16   15 1    
    28   17   16 ar   
    29   18   16 ar   
    30   19   16 ar   
    31   21   20 1    
    32   22   20 1    
    33   56   20 1    
    34   23   22 1    
    35   57   22 1    
    36   58   22 1    
    37   24   23 1    
    38   25   24 ar   
    39   26   24 ar   
    40   27   24 1    
    41   28   27 1    
    42   29   28 ar   
    43   30   28 ar   
    44   31   28 1    
    45   33   31 1    
    46   33   32 1    
    47   34   32 1    
    48   35   32 1    
    49   36   32 1    
    50   59   33 1    
    51   60   33 1    
    52   72   34 1    
    53   73   34 1    
    54   74   34 1    
    55   75   35 1    
    56   76   35 1    
    57   77   35 1    
    58   37   36 1    
    59   38   36 1    
    60   61   36 1    
    61   79   37 1    
    62   39   38 2    
    63   40   38 am   
    64   41   40 1    
    65   62   40 1    
    66   42   41 1    
    67   63   41 1    
    68   64   41 1    
    69   43   42 1    
    70   65   42 1    
    71   66   42 1    
    72   44   43 2    
    73   45   43 am   
    74   46   45 1    
    75   67   45 1    
    76   47   46 1    
    77   68   46 1    
    78   69   46 1    
    79   48   47 1    
    80   70   47 1    
    81   71   47 1    
@<TRIPOS>SUBSTRUCTURE
     1 COA401      1 GROUP   
@<TRIPOS>SET

