#    Name: 2uzt_SS3_1_INTS_M
#    Modification time : Tue Mar 25 00:36:58 2014

@<TRIPOS>MOLECULE
2uzt_SS3_1_INTS_M
   85     0     9     0     0
SMALL
NO_CHARGES


@<TRIPOS>ATOM
      1 N          14.7500    5.9705   37.6865 N.am      2 SEC2        0.0000 
      2 N          16.0570    6.6170   37.9110 N.am      8 SEL2        0.0000 
      3 N          13.4430    5.3240   37.4620 N.am      5 SEP2        0.0000 
      4 N          23.2950   13.1565   37.8150 N.am      2 SEC2        0.0000 
      5 N          22.6800   11.8030   37.2860 N.am      8 SEL2        0.0000 
      6 N          23.9100   14.5100   38.3440 N.am      5 SEP2        0.0000 
      7 CA         15.3950    7.8320   36.5510 C.3       3 GLC5        0.0000 
      8 CA         16.8430    8.7310   37.7280 C.3       9 GLL5        0.0000 
      9 CA         13.9470    6.9330   35.3740 C.3       6 GLP5        0.0000 
     10 CA         16.1880   11.2105   38.9185 C.3       3 GLC5        0.0000 
     11 CA         17.0970   10.0980   37.6550 C.3       9 GLL5        0.0000 
     12 CA         15.2790   12.3230   40.1820 C.3       6 GLP5        0.0000 
     13 CA         17.1775   11.7645   36.3215 C.3       3 GLC5        0.0000 
     14 CA         18.4250   10.5600   37.4040 C.3       9 GLL5        0.0000 
     15 CA         15.9300   12.9690   35.2390 C.3       6 GLP5        0.0000 
     16 CA         23.0655    7.3545   38.3990 C.3       3 GLC5        0.0000 
     17 CA         23.2980    6.1400   36.8350 C.3       9 GLL5        0.0000 
     18 CA         22.8330    8.5690   39.9630 C.3       6 GLP5        0.0000 
     19 CA         18.3660    4.2485   39.2410 C.3       3 GLC5        0.0000 
     20 CA         18.0430    5.0910   37.5710 C.3       9 GLL5        0.0000 
     21 CA         18.6890    3.4060   40.9110 C.3       6 GLP5        0.0000 
     22 CA         17.4165    6.2915   39.3095 C.3       3 GLC5        0.0000 
     23 CA         16.7900    7.4920   41.0480 C.3       6 GLP5        0.0000 
     24 CA         16.4905    4.4495   38.7740 C.3       3 GLC5        0.0000 
     25 CA         14.9380    3.8080   39.9770 C.3       6 GLP5        0.0000 
     26 CA         17.9025    5.9320   36.0100 C.3       3 GLC5        0.0000 
     27 CA         17.7620    6.7730   34.4490 C.3       6 GLP5        0.0000 
     28 CA         17.8945    3.4265   36.9465 C.3       3 GLC5        0.0000 
     29 CA         17.7460    1.7620   36.3220 C.3       6 GLP5        0.0000 
     30 CA         22.9595    8.5360   32.1015 C.3       3 GLC5        0.0000 
     31 CA         23.7600    8.2660   34.1060 C.3       9 GLL5        0.0000 
     32 CA         22.1590    8.8060   30.0970 C.3       6 GLP5        0.0000 
     33 O          14.5935    8.3980   38.2710 O.2       1 ALC1        0.0000 
     34 O          15.7460    7.9260   37.9440 O.2       7 ALL1        0.0000 
     35 O          13.4410    8.8700   38.5980 O.2       4 ALP1        0.0000 
     36 CA         22.3040    6.3320   38.9940 C.3       3 GLC5        0.0000 
     37 CA         22.2250    5.3830   37.3590 C.3       9 GLL5        0.0000 
     38 CA         22.3830    7.2810   40.6290 C.3       6 GLP5        0.0000 
     39 CA         23.8385   11.9585   38.3250 C.3       3 GLC5        0.0000 
     40 CA         23.5350   11.0840   36.4970 C.3       9 GLL5        0.0000 
     41 CA         24.1420   12.8330   40.1530 C.3       6 GLP5        0.0000 
     42 CA         22.1215    9.9615   38.7390 C.3       3 GLC5        0.0000 
     43 CA         21.4100   11.3540   37.5150 C.3       9 GLL5        0.0000 
     44 CA         22.4120   12.7195   38.6050 C.3       3 GLC5        0.0000 
     45 CA         23.4140   14.0850   39.6950 C.3       6 GLP5        0.0000 
     46 CA         20.1020   11.8800   38.9605 C.3       3 GLC5        0.0000 
     47 CA         18.7940   12.4060   40.4060 C.3       6 GLP5        0.0000 
     48 CA         21.7900   12.5135   35.7995 C.3       3 GLC5        0.0000 
     49 CA         22.1700   13.6730   34.0840 C.3       6 GLP5        0.0000 
     50 O          25.3210    8.8260   32.3360 O.2       1 ALC1        0.0000 
     51 O          26.1000    7.9560   33.4730 O.2       7 ALL1        0.0000 
     52 O          24.5420    9.6960   31.1990 O.2       4 ALP1        0.0000 
     53 CA         15.8185   10.1303   36.2668 C.3       3 GLC5        0.0000 
     54 CA         14.6670   10.8460   34.8420 C.3       6 GLP5        0.0000 
     55 CA         17.5748    7.5145   36.0435 C.3       3 GLC5        0.0000 
     56 CA         17.3235    9.6898   35.7777 C.3       3 GLC5        0.0000 
     57 CA         17.6770    9.9650   33.8640 C.3       6 GLP5        0.0000 
     58 CA         18.8818   11.2570   38.8595 C.3       3 GLC5        0.0000 
     59 CA         18.9907   10.4010   35.5760 C.3       3 GLC5        0.0000 
     60 CA         19.0120   10.6940   33.8390 C.3       6 GLP5        0.0000 
     61 CA         24.4230    4.6325   37.5297 C.3       3 GLC5        0.0000 
     62 CA         25.1410    3.3850   38.7500 C.3       6 GLP5        0.0000 
     63 CA         21.5300    3.6905   38.6748 C.3       3 GLC5        0.0000 
     64 CA         20.9720    2.6420   40.2490 C.3       6 GLP5        0.0000 
     65 CA         23.6145    4.0620   37.9253 C.3       3 GLC5        0.0000 
     66 CA         21.9510    4.0950   36.8420 C.3       9 GLL5        0.0000 
     67 CA         23.0902    9.5228   38.0775 C.3       3 GLC5        0.0000 
     68 CA         23.1600    9.8690   35.8870 C.3       9 GLL5        0.0000 
     69 CA         21.6380    9.1441   38.4241 C.3       3 GLC5        0.0000 
     70 CA         21.8220    9.4170   36.1390 C.3       9 GLL5        0.0000 
     71 CA         18.5665    7.8645   35.8558 C.3       3 GLC5        0.0000 
     72 CA         19.5140    9.6560   37.2220 C.3       9 GLL5        0.0000 
     73 CA         19.7200    7.6468   39.0983 C.3       3 GLC5        0.0000 
     74 CA         19.2280    8.2560   37.3030 C.3       9 GLL5        0.0000 
     75 CA         20.8600    7.2750   40.7710 C.3       6 GLP5        0.0000 
     76 CA         18.1285    8.9917   35.6448 C.3       3 GLC5        0.0000 
     77 CA         17.1205    8.0449   39.3339 C.3       3 GLC5        0.0000 
     78 CA         17.9320    7.7810   37.5480 C.3       9 GLL5        0.0000 
     79 CA         24.2160    3.6650   37.1442 C.3       3 GLC5        0.0000 
     80 CA         22.7530    3.5660   35.8030 C.3       9 GLL5        0.0000 
     81 CA         22.4895    3.1510   34.0763 C.3       3 GLC5        0.0000 
     82 CA         21.6880    2.3570   32.6140 C.3       6 GLP5        0.0000 
     83 CA         23.1480   11.5622   34.9095 C.3       3 GLC5        0.0000 
     84 CA         23.2830   12.7610   33.5640 C.3       6 GLP5        0.0000 
     85 CA         20.2015   10.6311   35.4354 C.3       3 GLC5        0.0000 
@<TRIPOS>BOND
@<TRIPOS>SUBSTRUCTURE
     1 ALC1       33 GROUP        1 X    ALC  0     ROOT ALC X 1
     2 SEC2        1 GROUP        1 X    SEC  0     **** SEC X 2
     3 GLC5        7 GROUP        1 X    GLC  0     **** GLC X 6
     4 ALP1       35 GROUP        1 Y    ALP  0     ROOT ALP Y 8
     5 SEP2        3 GROUP        1 Y    SEP  0     **** SEP Y 9
     6 GLP5        9 GROUP        1 Y    GLP  0     **** GLP Y 13
     7 ALL1       34 GROUP        1 Z    ALL  0     ROOT ALL Z 15
     8 SEL2        2 GROUP        1 Z    SEL  0     **** SEL Z 16
     9 GLL5        8 GROUP        1 Z    GLL  0     **** GLL Z 20
@<TRIPOS>SET

