#    Name: 2uzt_SS3_1_ligand
#    Modification time : Tue Mar 25 00:36:58 2014

@<TRIPOS>MOLECULE
2uzt_SS3_1_ligand
   50    53     1     0     0
SMALL
NO_CHARGES


@<TRIPOS>ATOM
      1 N1         16.0570    6.6170   37.9110 N.2       1 SS31351     0.0000 
      2 N3         22.6800   11.8030   37.2860 N.ar      1 SS31351     0.0000 
      3 C4         16.8430    8.7310   37.7280 C.ar      1 SS31351     0.0000 
      4 C5         17.0970   10.0980   37.6550 C.ar      1 SS31351     0.0000 
      5 C6         18.4250   10.5600   37.4040 C.ar      1 SS31351     0.0000 
      6 C8         17.3630    6.4370   37.6750 C.2       1 SS31351     0.0000 
      7 C13        23.2980    6.1400   36.8350 C.ar      1 SS31351     0.0000 
      8 C15        21.9510    4.0950   36.8420 C.ar      1 SS31351     0.0000 
      9 C9         18.0430    5.0910   37.5710 C.3       1 SS31351     0.0000 
     10 C17        24.1120    5.6200   35.7840 C.ar      1 SS31351     0.0000 
     11 C20        20.9220   10.1480   36.9580 C.ar      1 SS31351     0.0000 
     12 C21        21.8220    9.4170   36.1390 C.ar      1 SS31351     0.0000 
     13 C22        23.1600    9.8690   35.8870 C.ar      1 SS31351     0.0000 
     14 C24        23.7600    8.2660   34.1060 C.3       1 SS31351     0.0000 
     15 C1         19.5140    9.6560   37.2220 C.ar      1 SS31351     0.0000 
     16 C2         19.2280    8.2560   37.3030 C.ar      1 SS31351     0.0000 
     17 C3         17.9320    7.7810   37.5480 C.ar      1 SS31351     0.0000 
     18 N5         15.7460    7.9260   37.9440 N.pl3     1 SS31351     0.0000 
     19 C14        22.2250    5.3830   37.3590 C.ar      1 SS31351     0.0000 
     20 C16        23.8290    4.3240   35.2740 C.ar      1 SS31351     0.0000 
     21 C18        23.5350   11.0840   36.4970 C.ar      1 SS31351     0.0000 
     22 C19        21.4100   11.3540   37.5150 C.ar      1 SS31351     0.0000 
     23 C26        22.7530    3.5660   35.8030 C.ar      1 SS31351     0.0000 
     24 O1         24.1410    9.2250   35.0980 O.3       1 SS31351     0.0000 
     25 C23        24.9130    7.2370   33.9290 C.3       1 SS31351     0.0000 
     26 C25        25.2620    6.4320   35.2180 C.3       1 SS31351     0.0000 
     27 N4         26.1000    7.9560   33.4730 N.4       1 SS31351     0.0000 
     28 H          16.3484   10.7800   37.7781 H         1 SS31351     0.0000 
     29 H          18.6007   11.5726   37.3531 H         1 SS31351     0.0000 
     30 H          23.4980    7.0712   37.2092 H         1 SS31351     0.0000 
     31 H          21.1765    3.5482   37.2174 H         1 SS31351     0.0000 
     32 H          21.5106    8.5333   35.7092 H         1 SS31351     0.0000 
     33 H          23.5861    8.7259   33.1334 H         1 SS31351     0.0000 
     34 H          22.8700    7.7067   34.3937 H         1 SS31351     0.0000 
     35 H          20.0049    7.5885   37.1759 H         1 SS31351     0.0000 
     36 H          14.8411    8.2854   38.1034 H         1 SS31351     0.0000 
     37 H          21.6488    5.7648   38.1090 H         1 SS31351     0.0000 
     38 H          24.4032    3.9379   34.5237 H         1 SS31351     0.0000 
     39 H          24.5067   11.4329   36.3288 H         1 SS31351     0.0000 
     40 H          20.7605   11.9055   38.1196 H         1 SS31351     0.0000 
     41 H          22.5576    2.6349   35.4315 H         1 SS31351     0.0000 
     42 H          24.6087    6.5268   33.1631 H         1 SS31351     0.0000 
     43 H          26.1066    5.7632   34.9828 H         1 SS31351     0.0000 
     44 H          25.6201    7.1461   35.9782 H         1 SS31351     0.0000 
     45 H          19.0226    5.1826   37.3923 H         1 SS31351     0.0000 
     46 H          17.9470    4.5604   38.4131 H         1 SS31351     0.0000 
     47 H          17.6606    4.5379   36.8309 H         1 SS31351     0.0000 
     48 H          26.8795    7.3427   33.3453 H         1 SS31351     0.0000 
     49 H          25.9427    8.4160   32.5991 H         1 SS31351     0.0000 
     50 H          26.3832    8.6577   34.1268 H         1 SS31351     0.0000 
@<TRIPOS>BOND
     1    6    1 2    
     2   18    1 1    
     3   21    2 ar   
     4   22    2 ar   
     5    4    3 ar   
     6   17    3 ar   
     7   18    3 1    
     8    5    4 ar   
     9   28    4 1    
    10   15    5 ar   
    11   29    5 1    
    12    9    6 1    
    13   17    6 1    
    14   10    7 ar   
    15   19    7 ar   
    16   30    7 1    
    17   19    8 ar   
    18   23    8 ar   
    19   31    8 1    
    20   45    9 1    
    21   46    9 1    
    22   47    9 1    
    23   20   10 ar   
    24   26   10 1    
    25   12   11 ar   
    26   15   11 1    
    27   22   11 ar   
    28   13   12 ar   
    29   32   12 1    
    30   21   13 ar   
    31   24   13 1    
    32   24   14 1    
    33   25   14 1    
    34   33   14 1    
    35   34   14 1    
    36   16   15 ar   
    37   17   16 ar   
    38   35   16 1    
    39   36   18 1    
    40   37   19 1    
    41   23   20 ar   
    42   38   20 1    
    43   39   21 1    
    44   40   22 1    
    45   41   23 1    
    46   26   25 1    
    47   27   25 1    
    48   42   25 1    
    49   43   26 1    
    50   44   26 1    
    51   48   27 1    
    52   49   27 1    
    53   50   27 1    
@<TRIPOS>SUBSTRUCTURE
     1 SS31351     1 GROUP   
@<TRIPOS>SET

