#    Name: 2f02_ATP_2_INTS_M
#    Modification time : Mon Apr  7 18:02:21 2014

@<TRIPOS>MOLECULE
2f02_ATP_2_INTS_M
   61     0    12     0     0
SMALL
NO_CHARGES


@<TRIPOS>ATOM
      1 N          55.4730   13.2110  -16.2370 N.am      2 SEC2        0.0000 
      2 N          56.6310   14.2380  -16.7190 N.am     10 SEL2        0.0000 
      3 N          54.3150   12.1840  -15.7550 N.am      6 SEP2        0.0000 
      4 NZ         54.2360   16.1150  -18.2780 N.4       3 LYC4        0.0000 
      5 NZ         54.6570   15.8760  -17.0070 N.4      11 LYL4        0.0000 
      6 NZ         53.8150   16.3540  -19.5490 N.4       7 LYP4        0.0000 
      7 N          54.2360   16.1150  -18.2780 N.am      2 SEC2        0.0000 
      8 N          54.6570   15.8760  -17.0070 N.am     10 SEL2        0.0000 
      9 N          53.8150   16.3540  -19.5490 N.am      6 SEP2        0.0000 
     10 N          57.4835   15.9375  -19.8750 N.am      2 SEC2        0.0000 
     11 N          58.6210   15.7890  -19.0620 N.am     10 SEL2        0.0000 
     12 N          56.3460   16.0860  -20.6880 N.am      6 SEP2        0.0000 
     13 N          59.9260   15.2185  -19.4640 N.am      2 SEC2        0.0000 
     14 N          61.2310   14.6480  -19.8660 N.am      6 SEP2        0.0000 
     15 CA         58.9425   19.9995  -17.3665 C.3       4 GLC5        0.0000 
     16 CA         58.5050   18.8140  -19.0870 C.3      12 GLL5        0.0000 
     17 CA         59.3800   21.1850  -15.6460 C.3       8 GLP5        0.0000 
     18 CA         56.8305   19.2190  -18.0060 C.3       4 GLC5        0.0000 
     19 CA         55.1560   19.6240  -16.9250 C.3       8 GLP5        0.0000 
     20 CA         57.0580   20.1530  -20.0055 C.3       4 GLC5        0.0000 
     21 CA         55.6110   21.4920  -20.9240 C.3       8 GLP5        0.0000 
     22 CA         59.5685   21.6160  -19.5400 C.3       4 GLC5        0.0000 
     23 CA         59.6310   19.5060  -19.8420 C.3      12 GLL5        0.0000 
     24 CA         59.5060   23.7260  -19.2380 C.3       8 GLP5        0.0000 
     25 CA         61.4730   16.9570  -19.7030 C.3       4 GLC5        0.0000 
     26 CA         60.7340   18.6030  -20.3920 C.3      12 GLL5        0.0000 
     27 CA         62.2120   15.3110  -19.0140 C.3       8 GLP5        0.0000 
     28 O          61.7505   17.2730  -21.2345 O.2       1 ALC1        0.0000 
     29 O          60.3700   17.9820  -21.6300 O.2       9 ALL1        0.0000 
     30 O          63.1310   16.5640  -20.8390 O.2       5 ALP1        0.0000 
     31 CA         63.4420   19.4440  -21.6035 C.3       4 GLC5        0.0000 
     32 CA         61.8830   19.6020  -20.5090 C.3      12 GLL5        0.0000 
     33 CA         65.0010   19.2860  -22.6980 C.3       8 GLP5        0.0000 
     34 CA         61.1950   19.5525  -22.6105 C.3       4 GLC5        0.0000 
     35 CA         60.5070   19.5030  -24.7120 C.3       8 GLP5        0.0000 
     36 CA         63.0325   21.4175  -21.0115 C.3       4 GLC5        0.0000 
     37 CA         64.1820   23.2330  -21.5140 C.3       8 GLP5        0.0000 
     38 CA         60.5500   20.7965  -17.4405 C.3       4 GLC5        0.0000 
     39 CA         61.7200   20.4080  -19.2350 C.3      12 GLL5        0.0000 
     40 CA         60.6130   22.0670  -19.2365 C.3       4 GLC5        0.0000 
     41 CA         62.4965   22.3305  -19.2870 C.3       4 GLC5        0.0000 
     42 CA         63.2730   24.2530  -19.3390 C.3       8 GLP5        0.0000 
     43 CA         63.5190   19.2235  -14.5870 C.3       4 GLC5        0.0000 
     44 CA         64.0500   19.0460  -16.6970 C.3      12 GLL5        0.0000 
     45 CA         62.9880   19.4010  -12.4770 C.3       8 GLP5        0.0000 
     46 CA         66.5050   20.0710  -14.8455 C.3       4 GLC5        0.0000 
     47 CA         65.4630   18.9710  -16.2530 C.3      12 GLL5        0.0000 
     48 CA         67.5470   21.1710  -13.4380 C.3       8 GLP5        0.0000 
     49 CA         66.5185   18.2270  -17.9270 C.3       4 GLC5        0.0000 
     50 CA         66.0510   20.3230  -18.1000 C.3      12 GLL5        0.0000 
     51 CA         66.9860   16.1310  -17.7540 C.3       8 GLP5        0.0000 
     52 CA         67.3825   21.5390  -18.4780 C.3       4 GLC5        0.0000 
     53 CA         68.7140   22.7550  -18.8560 C.3       8 GLP5        0.0000 
     54 CA         64.9105   21.4750  -16.5740 C.3       4 GLC5        0.0000 
     55 CA         63.7700   22.6270  -15.0480 C.3       8 GLP5        0.0000 
     56 CA         59.3978   19.3488  -22.0790 C.3       4 GLC5        0.0000 
     57 CA         58.6130   19.6430  -24.0410 C.3       8 GLP5        0.0000 
     58 CA         58.5305   17.6212  -20.8736 C.3       4 GLC5        0.0000 
     59 CA         57.1600   16.3610  -21.8190 C.3       8 GLP5        0.0000 
     60 CA         65.8713   17.5697  -17.1145 C.3       4 GLC5        0.0000 
     61 CA         64.0141   21.0216  -16.1190 C.3       4 GLC5        0.0000 
@<TRIPOS>BOND
@<TRIPOS>SUBSTRUCTURE
     1 ALC1       28 GROUP        1 X    ALC  0     ROOT ALC X 1
     2 SEC2        1 GROUP        1 X    SEC  0     **** SEC X 2
     3 LYC4        4 GROUP        1 X    LYC  0     **** LYC X 4
     4 GLC5       15 GROUP        1 X    GLC  0     **** GLC X 6
     5 ALP1       30 GROUP        1 Y    ALP  0     ROOT ALP Y 8
     6 SEP2        3 GROUP        1 Y    SEP  0     **** SEP Y 9
     7 LYP4        6 GROUP        1 Y    LYP  0     **** LYP Y 11
     8 GLP5       17 GROUP        1 Y    GLP  0     **** GLP Y 13
     9 ALL1       29 GROUP        1 Z    ALL  0     ROOT ALL Z 15
    10 SEL2        2 GROUP        1 Z    SEL  0     **** SEL Z 16
    11 LYL4        5 GROUP        1 Z    LYL  0     **** LYL Z 18
    12 GLL5       16 GROUP        1 Z    GLL  0     **** GLL Z 20
@<TRIPOS>SET

