#    Name: 2f02_ATP_2_ligand
#    Modification time : Mon Apr  7 18:02:21 2014

@<TRIPOS>MOLECULE
2f02_ATP_2_ligand
   43    45     1     0     0
SMALL
NO_CHARGES


@<TRIPOS>ATOM
      1 PG         55.2990   15.7890  -13.7530 P.3       1 ATP410      0.0000 
      2 O1G        56.1720   16.0570  -12.5590 O.co2     1 ATP410      0.0000 
      3 O2G        54.9040   14.3390  -13.9290 O.co2     1 ATP410      0.0000 
      4 O3G        54.1530   16.7580  -13.8890 O.co2     1 ATP410      0.0000 
      5 PB         56.0740   15.6280  -16.5420 P.3       1 ATP410      0.0000 
      6 O1B        56.6310   14.2380  -16.7190 O.co2     1 ATP410      0.0000 
      7 O2B        54.6570   15.8760  -17.0070 O.co2     1 ATP410      0.0000 
      8 O3B        56.3060   16.0960  -15.0060 O.3       1 ATP410      0.0000 
      9 PA         58.5820   16.5220  -17.7600 P.3       1 ATP410      0.0000 
     10 O1A        59.4360   16.0400  -16.6180 O.co2     1 ATP410      0.0000 
     11 O2A        58.6210   15.7890  -19.0620 O.co2     1 ATP410      0.0000 
     12 O3A        57.0200   16.7000  -17.3080 O.3       1 ATP410      0.0000 
     13 O5'        58.9950   18.0590  -17.9860 O.3       1 ATP410      0.0000 
     14 C5'        58.5050   18.8140  -19.0870 C.3       1 ATP410      0.0000 
     15 C4'        59.6310   19.5060  -19.8420 C.3       1 ATP410      0.0000 
     16 O4'        60.3080   20.4480  -18.9990 O.3       1 ATP410      0.0000 
     17 C3'        60.7340   18.6030  -20.3920 C.3       1 ATP410      0.0000 
     18 O3'        60.3700   17.9820  -21.6300 O.3       1 ATP410      0.0000 
     19 C2'        61.8830   19.6020  -20.5090 C.3       1 ATP410      0.0000 
     20 O2'        61.7090   20.4720  -21.6370 O.3       1 ATP410      0.0000 
     21 C1'        61.7200   20.4080  -19.2350 C.3       1 ATP410      0.0000 
     22 N9         62.4420   19.7530  -18.1010 N.pl3     1 ATP410      0.0000 
     23 C8         61.9180   18.9950  -17.1160 C.2       1 ATP410      0.0000 
     24 N7         62.8830   18.5560  -16.2640 N.2       1 ATP410      0.0000 
     25 C5         64.0500   19.0460  -16.6970 C.ar      1 ATP410      0.0000 
     26 C6         65.4630   18.9710  -16.2530 C.ar      1 ATP410      0.0000 
     27 N6         65.7860   18.2680  -15.1490 N.pl3     1 ATP410      0.0000 
     28 N1         66.3880   19.6250  -16.9890 N.ar      1 ATP410      0.0000 
     29 C2         66.0510   20.3230  -18.1000 C.ar      1 ATP410      0.0000 
     30 N3         64.7800   20.4300  -18.5500 N.ar      1 ATP410      0.0000 
     31 C4         63.7600   19.8240  -17.9050 C.ar      1 ATP410      0.0000 
     32 H          57.7929   19.5944  -18.7603 H         1 ATP410      0.0000 
     33 H          57.9620   18.1757  -19.8085 H         1 ATP410      0.0000 
     34 H          59.2034   20.0488  -20.6954 H         1 ATP410      0.0000 
     35 H          60.9889   17.9124  -19.6143 H         1 ATP410      0.0000 
     36 H          62.7893   19.0944  -20.4794 H         1 ATP410      0.0000 
     37 H          62.1076   21.3880  -19.4094 H         1 ATP410      0.0000 
     38 H          60.9634   18.7837  -17.0209 H         1 ATP410      0.0000 
     39 H          66.7493   18.2873  -14.8813 H         1 ATP410      0.0000 
     40 H          65.0336   17.7898  -14.6961 H         1 ATP410      0.0000 
     41 H          66.8233   20.8098  -18.6437 H         1 ATP410      0.0000 
     42 H          61.0044   17.2156  -21.7313 H         1 ATP410      0.0000 
     43 H          61.3413   19.8874  -22.3602 H         1 ATP410      0.0000 
@<TRIPOS>BOND
     1    2    1 ar   
     2    3    1 ar   
     3    4    1 ar   
     4    8    1 1    
     5    6    5 ar   
     6    7    5 ar   
     7    8    5 1    
     8   12    5 1    
     9   10    9 ar   
    10   11    9 ar   
    11   12    9 1    
    12   13    9 1    
    13   14   13 1    
    14   15   14 1    
    15   32   14 1    
    16   33   14 1    
    17   16   15 1    
    18   17   15 1    
    19   34   15 1    
    20   21   16 1    
    21   18   17 1    
    22   19   17 1    
    23   35   17 1    
    24   42   18 1    
    25   20   19 1    
    26   21   19 1    
    27   36   19 1    
    28   43   20 1    
    29   22   21 1    
    30   37   21 1    
    31   23   22 1    
    32   31   22 1    
    33   24   23 2    
    34   38   23 1    
    35   25   24 1    
    36   26   25 ar   
    37   31   25 ar   
    38   27   26 1    
    39   28   26 ar   
    40   39   27 1    
    41   40   27 1    
    42   29   28 ar   
    43   30   29 ar   
    44   41   29 1    
    45   31   30 ar   
@<TRIPOS>SUBSTRUCTURE
     1 ATP410      1 GROUP   
@<TRIPOS>SET

