#    Name: 1diu_BDM_1_INTS_M
#    Modification time : Mon Mar 24 22:00:26 2014

@<TRIPOS>MOLECULE
1diu_BDM_1_INTS_M
   68     0    12     0     0
SMALL
NO_CHARGES


@<TRIPOS>ATOM
      1 O          -6.1135   32.0690   21.6435 O.2       1 ALC1        0.0000 
      2 O          -4.6640   31.6190   20.8150 O.2       9 ALL1        0.0000 
      3 O          -7.5630   32.5190   22.4720 O.2       5 ALP1        0.0000 
      4 CA         -5.0240   29.3860   19.7285 C.3       4 GLC5        0.0000 
      5 CA         -4.7250   30.3900   21.3060 C.3      12 GLL5        0.0000 
      6 CA         -5.3230   28.3820   18.1510 C.3       8 GLP5        0.0000 
      7 CA         -4.6385   31.7870   23.0065 C.3       4 GLC5        0.0000 
      8 CA         -4.5520   33.1840   24.7070 C.3       8 GLP5        0.0000 
      9 O          -7.1115   29.9470   21.0925 O.2       1 ALC1        0.0000 
     10 O          -5.8780   29.9750   21.7940 O.2       9 ALL1        0.0000 
     11 O          -8.3450   29.9190   20.3910 O.2       5 ALP1        0.0000 
     12 CA         -2.6825   27.9125   21.1940 C.3       4 GLC5        0.0000 
     13 CA         -2.5090   29.9800   21.1450 C.3      12 GLL5        0.0000 
     14 CA         -2.8560   25.8450   21.2430 C.3       8 GLP5        0.0000 
     15 CA         -3.9160   29.1810   19.6480 C.3       4 GLC5        0.0000 
     16 CA         -4.4045   33.5485   19.8935 C.3       4 GLC5        0.0000 
     17 CA         -3.4530   32.1100   20.5390 C.3      12 GLL5        0.0000 
     18 CA         -5.3560   34.9870   19.2480 C.3       8 GLP5        0.0000 
     19 CA         -4.0025   32.6470   22.6230 C.3       4 GLC5        0.0000 
     20 CA         -0.9705   31.8450   22.5785 C.3       4 GLC5        0.0000 
     21 CA         -0.9090   31.9950   20.7400 C.3      12 GLL5        0.0000 
     22 CA         -1.0320   31.6950   24.4170 C.3       8 GLP5        0.0000 
     23 CA         -1.9855   37.3735   20.2920 C.3       4 GLC5        0.0000 
     24 CA         -0.1510   38.1310   20.2140 C.3      12 GLL5        0.0000 
     25 CA         -3.8200   36.6160   20.3700 C.3       8 GLP5        0.0000 
     26 CA          1.7760   38.3280   21.0635 C.3       4 GLC5        0.0000 
     27 CA          3.7030   38.5250   21.9130 C.3       8 GLP5        0.0000 
     28 CA          0.6955   39.3060   20.5915 C.3       4 GLC5        0.0000 
     29 CA          1.5420   40.4810   20.9690 C.3       8 GLP5        0.0000 
     30 CA          0.6135   34.7635   17.5245 C.3       4 GLC5        0.0000 
     31 CA          2.2220   35.6610   18.7740 C.3      12 GLL5        0.0000 
     32 CA         -0.9950   33.8660   16.2750 C.3       8 GLP5        0.0000 
     33 CA          4.1160   36.0575   18.4120 C.3       4 GLC5        0.0000 
     34 CA          6.0100   36.4540   18.0500 C.3       8 GLP5        0.0000 
     35 CA          2.9625   37.0930   20.3435 C.3       4 GLC5        0.0000 
     36 CA         -2.3045   35.0890   24.8520 C.3       4 GLC5        0.0000 
     37 CA         -2.2420   36.6750   23.6510 C.3      12 GLL5        0.0000 
     38 CA         -2.3670   33.5030   26.0530 C.3       8 GLP5        0.0000 
     39 CA         -0.1255   36.4285   23.5510 C.3       4 GLC5        0.0000 
     40 CA          1.9910   36.1820   23.4510 C.3       8 GLP5        0.0000 
     41 CA         -5.0045   37.4915   26.6480 C.3       4 GLC5        0.0000 
     42 CA         -3.8790   38.1960   24.9300 C.3      12 GLL5        0.0000 
     43 CA         -6.1300   36.7870   28.3660 C.3       8 GLP5        0.0000 
     44 NZ         -2.4620   37.8485   29.1925 N.4       3 LYC4        0.0000 
     45 NZ         -2.6810   39.4000   28.2210 N.4      11 LYL4        0.0000 
     46 NZ         -2.2430   36.2970   30.1640 N.4       7 LYP4        0.0000 
     47 NZ         -2.7760   36.8510   28.8945 N.4       3 LYC4        0.0000 
     48 NZ         -3.3090   37.4050   27.6250 N.4      11 LYL4        0.0000 
     49 N          -9.3940   39.4580   25.0675 N.am      2 SEC2        0.0000 
     50 N          -8.2680   39.6340   25.7180 N.am     10 SEL2        0.0000 
     51 N         -10.5200   39.2820   24.4170 N.am      6 SEP2        0.0000 
     52 CA         -1.6930   32.1584   18.6771 C.3       4 GLC5        0.0000 
     53 CA         -1.4960   32.4560   16.6540 C.3       8 GLP5        0.0000 
     54 CA         -1.1660   34.3175   18.6725 C.3       4 GLC5        0.0000 
     55 CA         -0.1200   33.9740   19.7690 C.3      12 GLL5        0.0000 
     56 CA         -1.8480   34.8960   17.0420 C.3       8 GLP5        0.0000 
     57 CA         -2.4512   35.2855   20.8468 C.3       4 GLC5        0.0000 
     58 CA         -0.8480   33.5040   20.8370 C.3      12 GLL5        0.0000 
     59 CA         -1.0010   35.3422   18.5535 C.3       4 GLC5        0.0000 
     60 CA         -0.4050   36.2410   20.5260 C.3      12 GLL5        0.0000 
     61 CA         -2.0681   36.1451   20.3599 C.3       4 GLC5        0.0000 
     62 CA          0.0970   35.3360   19.6040 C.3      12 GLL5        0.0000 
     63 CA         -3.1037   36.9970   22.1457 C.3       4 GLC5        0.0000 
     64 CA         -1.6266   37.2225   25.6254 C.3       4 GLC5        0.0000 
     65 CA         -0.1200   36.6580   26.8250 C.3       8 GLP5        0.0000 
     66 CA         -5.3683   39.2758   27.7910 C.3       4 GLC5        0.0000 
     67 CA         -3.8740   39.1890   26.1120 C.3      12 GLL5        0.0000 
     68 CA         -6.1180   39.1790   29.3800 C.3       8 GLP5        0.0000 
@<TRIPOS>BOND
@<TRIPOS>SUBSTRUCTURE
     1 ALC1        1 GROUP        1 X    ALC  0     ROOT ALC X 1
     2 SEC2       49 GROUP        1 X    SEC  0     **** SEC X 2
     3 LYC4       44 GROUP        1 X    LYC  0     **** LYC X 4
     4 GLC5        4 GROUP        1 X    GLC  0     **** GLC X 6
     5 ALP1        3 GROUP        1 Y    ALP  0     ROOT ALP Y 8
     6 SEP2       51 GROUP        1 Y    SEP  0     **** SEP Y 9
     7 LYP4       46 GROUP        1 Y    LYP  0     **** LYP Y 11
     8 GLP5        6 GROUP        1 Y    GLP  0     **** GLP Y 13
     9 ALL1        2 GROUP        1 Z    ALL  0     ROOT ALL Z 15
    10 SEL2       50 GROUP        1 Z    SEL  0     **** SEL Z 16
    11 LYL4       45 GROUP        1 Z    LYL  0     **** LYL Z 18
    12 GLL5        5 GROUP        1 Z    GLL  0     **** GLL Z 20
@<TRIPOS>SET

