#    Name: 1diu_BDM_1_ligand
#    Modification time : Mon Mar 24 22:00:26 2014

@<TRIPOS>MOLECULE
1diu_BDM_1_ligand
   55    56     1     0     0
SMALL
NO_CHARGES


@<TRIPOS>ATOM
      1 N1         -4.6640   31.6190   20.8150 N.pl3     1 BDM163      0.0000 
      2 C2         -4.7250   30.3900   21.3060 C.ar      1 BDM163      0.0000 
      3 N2         -5.8780   29.9750   21.7940 N.pl3     1 BDM163      0.0000 
      4 N3         -3.7270   29.5390   21.4200 N.ar      1 BDM163      0.0000 
      5 C4         -2.5090   29.9800   21.1450 C.ar      1 BDM163      0.0000 
      6 N4         -1.5310   29.0860   21.1440 N.pl3     1 BDM163      0.0000 
      7 C5         -2.2890   31.3430   20.7820 C.ar      1 BDM163      0.0000 
      8 C6         -3.4530   32.1100   20.5390 C.ar      1 BDM163      0.0000 
      9 C7         -0.9090   31.9950   20.7400 C.3       1 BDM163      0.0000 
     10 C8         -0.8480   33.5040   20.8370 C.ar      1 BDM163      0.0000 
     11 C9         -1.3170   34.4060   21.8100 C.ar      1 BDM163      0.0000 
     12 C10        -1.0540   35.7840   21.6650 C.ar      1 BDM163      0.0000 
     13 O10        -1.3330   36.8040   22.5570 O.3       1 BDM163      0.0000 
     14 C11        -0.4050   36.2410   20.5260 C.ar      1 BDM163      0.0000 
     15 BR11       -0.1510   38.1310   20.2140 Br        1 BDM163      0.0000 
     16 C12         0.0970   35.3360   19.6040 C.ar      1 BDM163      0.0000 
     17 O12         0.8230   35.7870   18.5300 O.3       1 BDM163      0.0000 
     18 C13        -0.1200   33.9740   19.7690 C.ar      1 BDM163      0.0000 
     19 C14         2.2220   35.6610   18.7740 C.3       1 BDM163      0.0000 
     20 C15        -2.2420   36.6750   23.6510 C.3       1 BDM163      0.0000 
     21 C16        -2.5330   38.0810   24.1920 C.3       1 BDM163      0.0000 
     22 C17        -3.8790   38.1960   24.9300 C.3       1 BDM163      0.0000 
     23 C18        -3.8740   39.1890   26.1120 C.3       1 BDM163      0.0000 
     24 C19        -5.3630   39.5560   26.2920 C.3       1 BDM163      0.0000 
     25 C20        -6.0030   39.9780   24.9420 C.3       1 BDM163      0.0000 
     26 C21        -3.2050   38.6220   27.3990 C.2       1 BDM163      0.0000 
     27 OXV        -2.6810   39.4000   28.2210 O.co2     1 BDM163      0.0000 
     28 OXW        -3.3090   37.4050   27.6250 O.co2     1 BDM163      0.0000 
     29 C22        -7.5230   40.2250   24.9040 C.2       1 BDM163      0.0000 
     30 OX5        -8.2680   39.6340   25.7180 O.co2     1 BDM163      0.0000 
     31 OX6        -7.9970   40.9760   24.0240 O.co2     1 BDM163      0.0000 
     32 H          -5.5142   32.1781   20.6507 H         1 BDM163      0.0000 
     33 H          -6.0270   30.1375   22.7694 H         1 BDM163      0.0000 
     34 H          -6.4982   29.5357   21.1442 H         1 BDM163      0.0000 
     35 H          -1.7985   28.1410   21.3322 H         1 BDM163      0.0000 
     36 H          -0.6140   29.4372   20.9551 H         1 BDM163      0.0000 
     37 H          -3.3272   33.0615   20.1409 H         1 BDM163      0.0000 
     38 H          -0.3978   31.6735   19.7972 H         1 BDM163      0.0000 
     39 H          -0.2884   31.5557   21.5619 H         1 BDM163      0.0000 
     40 H          -1.8431   34.0673   22.6142 H         1 BDM163      0.0000 
     41 H           0.2729   33.3106   19.0775 H         1 BDM163      0.0000 
     42 H          -1.8222   36.0866   24.4643 H         1 BDM163      0.0000 
     43 H          -3.1889   36.2340   23.3461 H         1 BDM163      0.0000 
     44 H          -2.5260   38.7946   23.3554 H         1 BDM163      0.0000 
     45 H          -1.7262   38.3736   24.8796 H         1 BDM163      0.0000 
     46 H          -4.1650   37.2014   25.3060 H         1 BDM163      0.0000 
     47 H          -4.6535   38.5065   24.2116 H         1 BDM163      0.0000 
     48 H          -3.3555   40.0783   25.7875 H         1 BDM163      0.0000 
     49 H          -5.4459   40.3804   26.9934 H         1 BDM163      0.0000 
     50 H          -5.8988   38.6959   26.6816 H         1 BDM163      0.0000 
     51 H          -5.7516   39.1986   24.1816 H         1 BDM163      0.0000 
     52 H          -5.4848   40.9026   24.5878 H         1 BDM163      0.0000 
     53 H           2.7648   35.9868   17.9999 H         1 BDM163      0.0000 
     54 H           2.5082   36.1871   19.5748 H         1 BDM163      0.0000 
     55 H           2.4863   34.7106   18.9380 H         1 BDM163      0.0000 
@<TRIPOS>BOND
     1    2    1 ar   
     2    8    1 ar   
     3   32    1 1    
     4    3    2 1    
     5    4    2 ar   
     6   33    3 1    
     7   34    3 1    
     8    5    4 ar   
     9    6    5 1    
    10    7    5 ar   
    11   35    6 1    
    12   36    6 1    
    13    8    7 ar   
    14    9    7 1    
    15   37    8 1    
    16   10    9 1    
    17   38    9 1    
    18   39    9 1    
    19   11   10 ar   
    20   18   10 ar   
    21   12   11 ar   
    22   40   11 1    
    23   13   12 1    
    24   14   12 ar   
    25   20   13 1    
    26   15   14 1    
    27   16   14 ar   
    28   17   16 1    
    29   18   16 ar   
    30   19   17 1    
    31   41   18 1    
    32   53   19 1    
    33   54   19 1    
    34   55   19 1    
    35   21   20 1    
    36   42   20 1    
    37   43   20 1    
    38   22   21 1    
    39   44   21 1    
    40   45   21 1    
    41   23   22 1    
    42   46   22 1    
    43   47   22 1    
    44   24   23 1    
    45   26   23 1    
    46   48   23 1    
    47   25   24 1    
    48   49   24 1    
    49   50   24 1    
    50   29   25 1    
    51   51   25 1    
    52   52   25 1    
    53   27   26 ar   
    54   28   26 ar   
    55   30   29 ar   
    56   31   29 ar   
@<TRIPOS>SUBSTRUCTURE
     1 BDM163      1 GROUP   
@<TRIPOS>SET

