#    Name: 4arb_C57_2_INTS_M
#    Modification time : Tue Mar 25 06:03:40 2014

@<TRIPOS>MOLECULE
4arb_C57_2_INTS_M
   50     0     6     0     0
SMALL
NO_CHARGES


@<TRIPOS>ATOM
      1 CA         10.5185  -11.1815  -39.6405 C.3       2 GLC5        0.0000 
      2 CA         10.3830  -10.4410  -38.1430 C.3       6 GLL5        0.0000 
      3 CA         10.6540  -11.9220  -41.1380 C.3       4 GLP5        0.0000 
      4 CA         12.0835   -9.5910  -38.9735 C.3       2 GLC5        0.0000 
      5 CA         13.7840   -8.7410  -39.8040 C.3       4 GLP5        0.0000 
      6 CA          9.2960  -10.5310  -36.6635 C.3       2 GLC5        0.0000 
      7 CA          8.2090  -10.6210  -35.1840 C.3       4 GLP5        0.0000 
      8 CA         15.6165   -8.7100  -36.4665 C.3       2 GLC5        0.0000 
      9 CA         15.7090   -9.3230  -34.6800 C.3       6 GLL5        0.0000 
     10 CA         15.5240   -8.0970  -38.2530 C.3       4 GLP5        0.0000 
     11 CA         15.3295  -10.1700  -37.1715 C.3       2 GLC5        0.0000 
     12 CA         14.3510  -11.1500  -35.7500 C.3       6 GLL5        0.0000 
     13 CA         16.3080   -9.1900  -38.5930 C.3       4 GLP5        0.0000 
     14 N          15.7770   -5.1700  -34.1905 N.am      1 SEC2        0.0000 
     15 N          15.0350   -6.5360  -34.1950 N.am      5 SEL2        0.0000 
     16 N          16.5190   -3.8040  -34.1860 N.am      3 SEP2        0.0000 
     17 N          13.9565   -5.4185  -32.6160 N.am      1 SEC2        0.0000 
     18 N          13.1830   -6.2970  -33.0070 N.am      5 SEL2        0.0000 
     19 N          14.7300   -4.5400  -32.2250 N.am      3 SEP2        0.0000 
     20 CA          7.0710   -8.3810  -36.0215 C.3       2 GLC5        0.0000 
     21 CA          7.0370   -6.8770  -37.2390 C.3       6 GLL5        0.0000 
     22 CA          7.1050   -9.8850  -34.8040 C.3       4 GLP5        0.0000 
     23 CA          4.0855   -4.4660  -38.6470 C.3       2 GLC5        0.0000 
     24 CA          6.1390   -3.9180  -37.9650 C.3       6 GLL5        0.0000 
     25 CA          2.0320   -5.0140  -39.3290 C.3       4 GLP5        0.0000 
     26 CA          3.5345   -5.3665  -37.8390 C.3       2 GLC5        0.0000 
     27 CA          5.3480   -5.0880  -37.5180 C.3       6 GLL5        0.0000 
     28 CA          1.7210   -5.6450  -38.1600 C.3       4 GLP5        0.0000 
     29 CA          5.8875   -4.6410  -33.2135 C.3       2 GLC5        0.0000 
     30 CA          7.0490   -4.4010  -34.4830 C.3       6 GLL5        0.0000 
     31 CA          4.7260   -4.8810  -31.9440 C.3       4 GLP5        0.0000 
     32 CA          8.6950   -3.6120  -34.0160 C.3       2 GLC5        0.0000 
     33 CA         10.3410   -2.8230  -33.5490 C.3       4 GLP5        0.0000 
     34 CA          6.4395   -5.7665  -32.9375 C.3       2 GLC5        0.0000 
     35 CA          7.8940   -5.3310  -33.6010 C.3       6 GLL5        0.0000 
     36 CA          4.9850   -6.2020  -32.2740 C.3       4 GLP5        0.0000 
     37 CA          9.2915   -4.5425  -33.0845 C.3       2 GLC5        0.0000 
     38 CA         10.6890   -3.7540  -32.5680 C.3       4 GLP5        0.0000 
     39 CA          7.5105   -7.2325  -33.6200 C.3       2 GLC5        0.0000 
     40 CA          7.1270   -9.1340  -33.6390 C.3       4 GLP5        0.0000 
     41 CA         10.7832   -8.9545  -34.3627 C.3       2 GLC5        0.0000 
     42 CA         10.7830   -7.4220  -36.0860 C.3       6 GLL5        0.0000 
     43 CA         10.6470   -9.8550  -32.3520 C.3       4 GLP5        0.0000 
     44 CA         11.6970   -9.4857  -34.1357 C.3       2 GLC5        0.0000 
     45 CA         12.2710   -9.3870  -36.3480 C.3       6 GLL5        0.0000 
     46 CA         11.4907   -8.5218  -33.7090 C.3       2 GLC5        0.0000 
     47 CA         12.9370   -7.5250  -34.9100 C.3       6 GLL5        0.0000 
     48 CA          4.6460   -5.7600  -35.5845 C.3       2 GLC5        0.0000 
     49 CA          6.2340   -5.7780  -36.5380 C.3       6 GLL5        0.0000 
     50 CA          3.5010   -6.0870  -34.1410 C.3       4 GLP5        0.0000 
@<TRIPOS>BOND
@<TRIPOS>SUBSTRUCTURE
     1 SEC2       14 GROUP        1 X    SEC  0     ROOT SEC X 2
     2 GLC5        1 GROUP        1 X    GLC  0     **** GLC X 6
     3 SEP2       16 GROUP        1 Y    SEP  0     ROOT SEP Y 9
     4 GLP5        3 GROUP        1 Y    GLP  0     **** GLP Y 13
     5 SEL2       15 GROUP        1 Z    SEL  0     ROOT SEL Z 16
     6 GLL5        2 GROUP        1 Z    GLL  0     **** GLL Z 20
@<TRIPOS>SET

