#    Name: 4arb_C57_2_ligand
#    Modification time : Tue Mar 25 06:03:40 2014

@<TRIPOS>MOLECULE
4arb_C57_2_ligand
   52    53     1     0     0
SMALL
NO_CHARGES


@<TRIPOS>ATOM
      1 O16         9.5180   -5.4910  -36.4450 O.2       1 C571544     0.0000 
      2 C15         9.5120   -6.6920  -36.4420 C.2       1 C571544     0.0000 
      3 C2         10.7830   -7.4220  -36.0860 C.ar      1 C571544     0.0000 
      4 C3         11.0560   -8.6860  -36.6610 C.ar      1 C571544     0.0000 
      5 O13        10.1250   -9.2370  -37.5080 O.3       1 C571544     0.0000 
      6 C14        10.3830  -10.4410  -38.1430 C.3       1 C571544     0.0000 
      7 C4         12.2710   -9.3870  -36.3480 C.ar      1 C571544     0.0000 
      8 C5         13.2230   -8.8460  -35.4910 C.ar      1 C571544     0.0000 
      9 N10        14.4420   -9.7380  -35.2810 N.3       1 C571544     0.0000 
     10 C12        15.7090   -9.3230  -34.6800 C.3       1 C571544     0.0000 
     11 C11        14.3510  -11.1500  -35.7500 C.3       1 C571544     0.0000 
     12 C6         12.9370   -7.5250  -34.9100 C.ar      1 C571544     0.0000 
     13 N7         13.7550   -6.7740  -33.9990 N.pl3     1 C571544     0.0000 
     14 O9         15.0350   -6.5360  -34.1950 O.2       1 C571544     0.0000 
     15 O8         13.1830   -6.2970  -33.0070 O.2       1 C571544     0.0000 
     16 C1         11.7320   -6.8520  -35.2220 C.ar      1 C571544     0.0000 
     17 N17         8.3310   -7.4350  -36.8170 N.am      1 C571544     0.0000 
     18 C18         7.0370   -6.8770  -37.2390 C.3       1 C571544     0.0000 
     19 C07         6.1390   -3.9180  -37.9650 C.3       1 C571544     0.0000 
     20 C06         5.3480   -5.0880  -37.5180 C.3       1 C571544     0.0000 
     21 C05         6.2340   -5.7780  -36.5380 C.3       1 C571544     0.0000 
     22 N09         6.9850   -4.7110  -35.9000 N.4       1 C571544     0.0000 
     23 C10         7.0490   -4.4010  -34.4830 C.3       1 C571544     0.0000 
     24 C08         6.9900   -3.5750  -36.7940 C.3       1 C571544     0.0000 
     25 C13         7.8940   -5.3310  -33.6010 C.3       1 C571544     0.0000 
     26 H          12.4217  -10.3121  -36.7794 H         1 C571544     0.0000 
     27 H          11.5519   -5.9269  -34.8052 H         1 C571544     0.0000 
     28 H           8.3933   -8.4891  -36.7883 H         1 C571544     0.0000 
     29 H           6.2923   -7.7666  -37.3952 H         1 C571544     0.0000 
     30 H           7.1350   -6.5385  -38.3553 H         1 C571544     0.0000 
     31 H           5.4897   -3.0973  -38.2011 H         1 C571544     0.0000 
     32 H           6.7548   -4.1825  -38.8027 H         1 C571544     0.0000 
     33 H           5.1410   -5.7369  -38.3454 H         1 C571544     0.0000 
     34 H           4.4468   -4.7669  -37.0350 H         1 C571544     0.0000 
     35 H           5.5716   -6.2507  -35.7996 H         1 C571544     0.0000 
     36 H           8.1598   -5.1099  -36.1254 H         1 C571544     0.0000 
     37 H           6.0153   -4.3757  -34.0414 H         1 C571544     0.0000 
     38 H           7.4363   -3.3568  -34.3285 H         1 C571544     0.0000 
     39 H           6.5847   -2.6910  -36.3026 H         1 C571544     0.0000 
     40 H           8.0003   -3.3540  -37.1371 H         1 C571544     0.0000 
     41 H          11.1942  -10.3874  -38.7253 H         1 C571544     0.0000 
     42 H          10.5407  -11.1800  -37.4880 H         1 C571544     0.0000 
     43 H           9.6216  -10.7239  -38.7263 H         1 C571544     0.0000 
     44 H          16.3666  -10.0755  -34.6430 H         1 C571544     0.0000 
     45 H          16.1397   -8.5824  -35.1957 H         1 C571544     0.0000 
     46 H          15.5860   -8.9950  -33.7434 H         1 C571544     0.0000 
     47 H          15.1959  -11.6550  -35.5738 H         1 C571544     0.0000 
     48 H          13.6124  -11.6461  -35.2935 H         1 C571544     0.0000 
     49 H          14.1767  -11.2043  -36.7332 H         1 C571544     0.0000 
     50 H           8.8512   -5.3482  -33.8898 H         1 C571544     0.0000 
     51 H           7.8821   -5.0459  -32.6426 H         1 C571544     0.0000 
     52 H           7.5619   -6.2738  -33.6305 H         1 C571544     0.0000 
@<TRIPOS>BOND
     1    2    1 2    
     2    3    2 1    
     3   17    2 am   
     4    4    3 ar   
     5   16    3 ar   
     6    5    4 1    
     7    7    4 ar   
     8    6    5 1    
     9   41    6 1    
    10   42    6 1    
    11   43    6 1    
    12    8    7 ar   
    13   26    7 1    
    14    9    8 1    
    15   12    8 ar   
    16   10    9 1    
    17   11    9 1    
    18   44   10 1    
    19   45   10 1    
    20   46   10 1    
    21   47   11 1    
    22   48   11 1    
    23   49   11 1    
    24   13   12 1    
    25   16   12 ar   
    26   14   13 2    
    27   15   13 2    
    28   27   16 1    
    29   18   17 1    
    30   28   17 1    
    31   21   18 1    
    32   29   18 1    
    33   30   18 1    
    34   20   19 1    
    35   24   19 1    
    36   31   19 1    
    37   32   19 1    
    38   21   20 1    
    39   33   20 1    
    40   34   20 1    
    41   22   21 1    
    42   35   21 1    
    43   23   22 1    
    44   24   22 1    
    45   36   22 1    
    46   25   23 1    
    47   37   23 1    
    48   38   23 1    
    49   39   24 1    
    50   40   24 1    
    51   50   25 1    
    52   51   25 1    
    53   52   25 1    
@<TRIPOS>SUBSTRUCTURE
     1 C571544     1 GROUP   
@<TRIPOS>SET

