#    Name: 4lva_20M_1_INTS_M
#    Modification time : Tue Mar 25 11:31:42 2014

@<TRIPOS>MOLECULE
4lva_20M_1_INTS_M
   55     0     9     0     0
SMALL
NO_CHARGES


@<TRIPOS>ATOM
      1 CA         16.2635    8.8130   -0.2030 C.3       3 GLC5        0.0000 
      2 CA         15.5800    6.8140   -0.8670 C.3       9 GLL5        0.0000 
      3 CA         16.9470   10.8120    0.4610 C.3       6 GLP5        0.0000 
      4 CA         14.3815    6.2565   -3.4950 C.3       3 GLC5        0.0000 
      5 CA         14.7610    5.9890   -1.6150 C.3       9 GLL5        0.0000 
      6 CA         14.0020    6.5240   -5.3750 C.3       6 GLP5        0.0000 
      7 CA         17.0100    9.0505    0.7320 C.3       3 GLC5        0.0000 
      8 CA         17.0730    7.2890    1.0030 C.3       9 GLL5        0.0000 
      9 O          17.8575    6.3745    3.3725 O.2       1 ALC1        0.0000 
     10 O          17.1020    7.3510    2.4460 O.2       7 ALL1        0.0000 
     11 O          18.6130    5.3980    4.2990 O.2       4 ALP1        0.0000 
     12 O          17.8390    7.3275    3.9360 O.2       1 ALC1        0.0000 
     13 O          18.5760    7.3040    5.4260 O.2       4 ALP1        0.0000 
     14 CA         11.8650   10.5515    3.8120 C.3       3 GLC5        0.0000 
     15 CA         13.0540    9.6580    5.4010 C.3       9 GLL5        0.0000 
     16 CA         10.6760   11.4450    2.2230 C.3       6 GLP5        0.0000 
     17 N          13.2195   11.8330    3.4330 N.am      2 SEC2        0.0000 
     18 N          14.2730   10.8740    2.6120 N.am      8 SEL2        0.0000 
     19 N          12.1660   12.7920    4.2540 N.am      5 SEP2        0.0000 
     20 CA         17.1540    4.6575   -5.9870 C.3       3 GLC5        0.0000 
     21 CA         16.3300    2.9850   -5.0330 C.3       9 GLL5        0.0000 
     22 CA         17.9780    6.3300   -6.9410 C.3       6 GLP5        0.0000 
     23 CA         18.0025   -1.1420   -3.2870 C.3       3 GLC5        0.0000 
     24 CA         18.6220   -0.0270   -4.7300 C.3       9 GLL5        0.0000 
     25 CA         17.3830   -2.2570   -1.8440 C.3       6 GLP5        0.0000 
     26 CA         18.4210   -2.6015   -4.7785 C.3       3 GLC5        0.0000 
     27 CA         18.6690   -1.1550   -5.7930 C.3       9 GLL5        0.0000 
     28 CA         18.1730   -4.0480   -3.7640 C.3       6 GLP5        0.0000 
     29 CA         17.0830   -2.3230   -5.1395 C.3       3 GLC5        0.0000 
     30 CA         17.3070   -1.0230   -6.5600 C.3       9 GLL5        0.0000 
     31 CA         16.8590   -3.6230   -3.7190 C.3       6 GLP5        0.0000 
     32 CA         16.5465   -1.2250   -4.3980 C.3       3 GLC5        0.0000 
     33 CA         16.6540    0.2720   -6.0240 C.3       9 GLL5        0.0000 
     34 CA         16.4390   -2.7220   -2.7720 C.3       6 GLP5        0.0000 
     35 CA         16.7722    6.3853   -1.9565 C.3       3 GLC5        0.0000 
     36 CA         18.3740    6.3690   -2.6720 C.3       6 GLP5        0.0000 
     37 CA         14.6807    8.2063   -1.4390 C.3       3 GLC5        0.0000 
     38 CA         14.1910   10.0110   -1.6370 C.3       6 GLP5        0.0000 
     39 CA         13.0070    5.4168   -0.4552 C.3       3 GLC5        0.0000 
     40 CA         11.4040    5.4790    0.4810 C.3       6 GLP5        0.0000 
     41 CA         15.3528    3.4375    1.7243 C.3       3 GLC5        0.0000 
     42 CA         14.9850    4.2640    0.0280 C.3       9 GLL5        0.0000 
     43 CA         15.2980    2.2050    3.0540 C.3       6 GLP5        0.0000 
     44 CA         13.4058    5.0745    0.4377 C.3       3 GLC5        0.0000 
     45 CA         17.4461    6.4362   -0.9478 C.3       3 GLC5        0.0000 
     46 CA         13.9500    7.1988    7.4983 C.3       3 GLC5        0.0000 
     47 CA         15.3270    8.6300    6.5350 C.3       9 GLL5        0.0000 
     48 CA         13.1120    5.5400    8.0820 C.3       6 GLP5        0.0000 
     49 CA         14.8117    4.8100   -5.0598 C.3       3 GLC5        0.0000 
     50 CA         14.9130    3.2070   -4.4560 C.3       9 GLL5        0.0000 
     51 CA         18.4557    3.5640   -4.1960 C.3       3 GLC5        0.0000 
     52 CA         20.1480    4.6780   -3.7070 C.3       6 GLP5        0.0000 
     53 CA         15.5177   -0.3828   -2.8015 C.3       3 GLC5        0.0000 
     54 CA         16.3810    1.0550   -3.3820 C.3       9 GLL5        0.0000 
     55 CA         14.9980   -2.2820   -2.7280 C.3       6 GLP5        0.0000 
@<TRIPOS>BOND
@<TRIPOS>SUBSTRUCTURE
     1 ALC1        9 GROUP        1 X    ALC  0     ROOT ALC X 1
     2 SEC2       17 GROUP        1 X    SEC  0     **** SEC X 2
     3 GLC5        1 GROUP        1 X    GLC  0     **** GLC X 6
     4 ALP1       11 GROUP        1 Y    ALP  0     ROOT ALP Y 8
     5 SEP2       19 GROUP        1 Y    SEP  0     **** SEP Y 9
     6 GLP5        3 GROUP        1 Y    GLP  0     **** GLP Y 13
     7 ALL1       10 GROUP        1 Z    ALL  0     ROOT ALL Z 15
     8 SEL2       18 GROUP        1 Z    SEL  0     **** SEL Z 16
     9 GLL5        2 GROUP        1 Z    GLL  0     **** GLL Z 20
@<TRIPOS>SET

