#    Name: 4lva_20M_1_ligand
#    Modification time : Tue Mar 25 11:31:42 2014

@<TRIPOS>MOLECULE
4lva_20M_1_ligand
   63    67     1     0     0
SMALL
NO_CHARGES


@<TRIPOS>ATOM
      1 C1         15.5800    6.8140   -0.8670 C.ar      1 20M601      0.0000 
      2 C2         14.7610    5.9890   -1.6150 C.ar      1 20M601      0.0000 
      3 C3         14.4590    4.7200   -1.1680 C.ar      1 20M601      0.0000 
      4 C4         14.9850    4.2640    0.0280 C.ar      1 20M601      0.0000 
      5 C5         15.8300    5.0760    0.7610 C.ar      1 20M601      0.0000 
      6 C6         16.0970    6.3600    0.3390 C.ar      1 20M601      0.0000 
      7 C7         17.0730    7.2890    1.0030 C.3       1 20M601      0.0000 
      8 N8         17.1020    7.3510    2.4460 N.pl3     1 20M601      0.0000 
      9 C9         16.1480    8.0450    3.0420 C.2       1 20M601      0.0000 
     10 N10        16.2340    8.1990    4.3110 N.2       1 20M601      0.0000 
     11 C11        15.2710    8.7250    5.1110 C.ar      1 20M601      0.0000 
     12 C12        15.3270    8.6300    6.5350 C.ar      1 20M601      0.0000 
     13 C13        14.2490    9.0850    7.2940 C.ar      1 20M601      0.0000 
     14 N14        13.1480    9.5370    6.7020 N.ar      1 20M601      0.0000 
     15 C15        13.0540    9.6580    5.4010 C.ar      1 20M601      0.0000 
     16 C16        14.0570    9.2300    4.5880 C.ar      1 20M601      0.0000 
     17 S17        13.9760    9.4550    2.8540 S.o2      1 20M601      0.0000 
     18 O18        12.7330    8.9630    2.3550 O.2       1 20M601      0.0000 
     19 O19        14.2730   10.8740    2.6120 O.2       1 20M601      0.0000 
     20 N20        15.1680    8.5200    2.2180 N.pl3     1 20M601      0.0000 
     21 S21        13.4810    3.6040   -2.1260 S.o2      1 20M601      0.0000 
     22 O22        12.9780    2.5240   -1.3570 O.2       1 20M601      0.0000 
     23 O23        12.8510    4.3150   -3.1630 O.2       1 20M601      0.0000 
     24 N24        14.7390    2.9040   -3.0170 N.pl3     1 20M601      0.0000 
     25 C25        14.9130    3.2070   -4.4560 C.3       1 20M601      0.0000 
     26 C26        16.3300    2.9850   -5.0330 C.3       1 20M601      0.0000 
     27 C27        17.1970    1.9150   -4.3370 C.3       1 20M601      0.0000 
     28 C28        16.3810    1.0550   -3.3820 C.3       1 20M601      0.0000 
     29 C29        15.6940    1.9780   -2.3680 C.3       1 20M601      0.0000 
     30 N30        17.7360    0.9930   -5.3340 N.4       1 20M601      0.0000 
     31 C31        18.6220   -0.0270   -4.7300 C.3       1 20M601      0.0000 
     32 C32        18.6690   -1.1550   -5.7930 C.3       1 20M601      0.0000 
     33 C33        17.3070   -1.0230   -6.5600 C.3       1 20M601      0.0000 
     34 C34        16.6540    0.2720   -6.0240 C.3       1 20M601      0.0000 
     35 H          15.8069    7.7597   -1.1997 H         1 20M601      0.0000 
     36 H          14.3745    6.3259   -2.5121 H         1 20M601      0.0000 
     37 H          14.7472    3.3227    0.3702 H         1 20M601      0.0000 
     38 H          16.2620    4.7168    1.6284 H         1 20M601      0.0000 
     39 H          16.8976    8.3281    0.5787 H         1 20M601      0.0000 
     40 H          18.1079    7.0342    0.6099 H         1 20M601      0.0000 
     41 H          17.8477    6.8624    2.9281 H         1 20M601      0.0000 
     42 H          16.1519    8.2319    6.9770 H         1 20M601      0.0000 
     43 H          14.3359    9.0586    8.3323 H         1 20M601      0.0000 
     44 H          12.2020   10.0882    4.9581 H         1 20M601      0.0000 
     45 H          15.0679    8.3744    1.2434 H         1 20M601      0.0000 
     46 H          14.6310    4.2671   -4.6596 H         1 20M601      0.0000 
     47 H          14.2047    2.5951   -5.0632 H         1 20M601      0.0000 
     48 H          16.8748    3.9521   -5.0078 H         1 20M601      0.0000 
     49 H          16.2341    2.7183   -6.1065 H         1 20M601      0.0000 
     50 H          17.9834    2.3856   -3.7994 H         1 20M601      0.0000 
     51 H          17.0328    0.3739   -2.8584 H         1 20M601      0.0000 
     52 H          15.6306    0.5109   -3.9331 H         1 20M601      0.0000 
     53 H          15.1763    1.3513   -1.6286 H         1 20M601      0.0000 
     54 H          16.4718    2.5425   -1.8352 H         1 20M601      0.0000 
     55 H          18.3081    1.5448   -6.0800 H         1 20M601      0.0000 
     56 H          18.2037   -0.4235   -3.8358 H         1 20M601      0.0000 
     57 H          19.6080    0.3481   -4.5925 H         1 20M601      0.0000 
     58 H          18.7066   -2.0954   -5.3156 H         1 20M601      0.0000 
     59 H          19.4626   -0.9797   -6.4661 H         1 20M601      0.0000 
     60 H          16.6970   -1.8581   -6.3254 H         1 20M601      0.0000 
     61 H          17.5038   -0.9248   -7.5974 H         1 20M601      0.0000 
     62 H          16.2804    0.8314   -6.8567 H         1 20M601      0.0000 
     63 H          15.8713   -0.0000   -5.3463 H         1 20M601      0.0000 
@<TRIPOS>BOND
     1    2    1 ar   
     2    6    1 ar   
     3   35    1 1    
     4    3    2 ar   
     5   36    2 1    
     6    4    3 ar   
     7   21    3 1    
     8    5    4 ar   
     9   37    4 1    
    10    6    5 ar   
    11   38    5 1    
    12    7    6 1    
    13    8    7 1    
    14   39    7 1    
    15   40    7 1    
    16    9    8 1    
    17   41    8 1    
    18   10    9 2    
    19   20    9 1    
    20   11   10 1    
    21   12   11 ar   
    22   16   11 ar   
    23   13   12 ar   
    24   42   12 1    
    25   14   13 ar   
    26   43   13 1    
    27   15   14 ar   
    28   16   15 ar   
    29   44   15 1    
    30   17   16 1    
    31   18   17 2    
    32   19   17 2    
    33   20   17 1    
    34   45   20 1    
    35   22   21 2    
    36   23   21 2    
    37   24   21 1    
    38   25   24 1    
    39   29   24 1    
    40   26   25 1    
    41   46   25 1    
    42   47   25 1    
    43   27   26 1    
    44   48   26 1    
    45   49   26 1    
    46   28   27 1    
    47   30   27 1    
    48   50   27 1    
    49   29   28 1    
    50   51   28 1    
    51   52   28 1    
    52   53   29 1    
    53   54   29 1    
    54   31   30 1    
    55   34   30 1    
    56   55   30 1    
    57   32   31 1    
    58   56   31 1    
    59   57   31 1    
    60   33   32 1    
    61   58   32 1    
    62   59   32 1    
    63   34   33 1    
    64   60   33 1    
    65   61   33 1    
    66   62   34 1    
    67   63   34 1    
@<TRIPOS>SUBSTRUCTURE
     1 20M601      1 GROUP   
@<TRIPOS>SET

