#    Name: 4jvl_EST_2_INTS_M
#    Modification time : Tue Mar 25 06:36:44 2014

@<TRIPOS>MOLECULE
4jvl_EST_2_INTS_M
   51     0     9     0     0
SMALL
NO_CHARGES


@<TRIPOS>ATOM
      1 CA         32.2875    6.6020    6.0180 C.3       3 GLC5        0.0000 
      2 CA         31.0500    4.9390    6.3410 C.3       9 GLL5        0.0000 
      3 CA         33.5250    8.2650    5.6950 C.3       6 GLP5        0.0000 
      4 N          31.7895    7.0395    6.1060 N.am      2 SEC2        0.0000 
      5 N          31.4200    6.0110    7.0930 N.am      8 SEL2        0.0000 
      6 N          32.1590    8.0680    5.1190 N.am      5 SEP2        0.0000 
      7 N          32.3685    6.1020    7.9145 N.am      2 SEC2        0.0000 
      8 N          33.3170    6.1930    8.7360 N.am      5 SEP2        0.0000 
      9 O          30.8175    6.3945    8.3750 O.2       1 ALC1        0.0000 
     10 O          31.4200    6.0110    7.0930 O.2       7 ALL1        0.0000 
     11 O          30.2150    6.7780    9.6570 O.2       4 ALP1        0.0000 
     12 CA         32.1740    0.0850    7.5495 C.3       3 GLC5        0.0000 
     13 CA         31.4540    1.2000    6.5520 C.3       9 GLL5        0.0000 
     14 CA         32.8940   -1.0300    8.5470 C.3       6 GLP5        0.0000 
     15 CA         32.7835    2.6900    5.6635 C.3       3 GLC5        0.0000 
     16 CA         34.1130    4.1800    4.7750 C.3       6 GLP5        0.0000 
     17 CA         31.1570   -0.6905    7.2855 C.3       3 GLC5        0.0000 
     18 CA         30.7050    0.0950    5.8250 C.3       9 GLL5        0.0000 
     19 CA         31.6090   -1.4760    8.7460 C.3       6 GLP5        0.0000 
     20 CA         32.8815    0.1380    4.1725 C.3       3 GLC5        0.0000 
     21 CA         30.7600    0.3330    4.3300 C.3       9 GLL5        0.0000 
     22 CA         35.0030   -0.0570    4.0150 C.3       6 GLP5        0.0000 
     23 CA         28.7450    2.3120    5.6290 C.3       3 GLC5        0.0000 
     24 CA         29.9140    1.5490    3.9640 C.3       9 GLL5        0.0000 
     25 CA         27.5760    3.0750    7.2940 C.3       6 GLP5        0.0000 
     26 CA         28.0920    0.6580    4.3720 C.3       3 GLC5        0.0000 
     27 CA         26.2700   -0.2330    4.7800 C.3       6 GLP5        0.0000 
     28 CA         27.8020    0.3980    0.5660 C.3       3 GLC5        0.0000 
     29 CA         29.4510    0.6100    1.6700 C.3       9 GLL5        0.0000 
     30 CA         26.1530    0.1860   -0.5380 C.3       6 GLP5        0.0000 
     31 CA         28.2195   -0.5400    4.1820 C.3       3 GLC5        0.0000 
     32 CA         30.1690   -0.8470    3.5840 C.3       9 GLL5        0.0000 
     33 CA         31.4330   -2.8205    5.6130 C.3       3 GLC5        0.0000 
     34 CA         30.7930   -2.2240    3.7890 C.3       9 GLL5        0.0000 
     35 CA         32.0730   -3.4170    7.4370 C.3       6 GLP5        0.0000 
     36 CA         29.3560   -4.5040    3.7485 C.3       3 GLC5        0.0000 
     37 CA         30.3310   -3.0000    2.5490 C.3       9 GLL5        0.0000 
     38 CA         28.3810   -6.0080    4.9480 C.3       6 GLP5        0.0000 
     39 CA         33.4765   -0.7715    2.3330 C.3       3 GLC5        0.0000 
     40 CA         31.6590   -0.5360    1.6090 C.3       9 GLL5        0.0000 
     41 CA         35.2940   -1.0070    3.0570 C.3       6 GLP5        0.0000 
     42 CA         33.1695    0.7260    1.3315 C.3       3 GLC5        0.0000 
     43 CA         34.6800    1.9880    1.0540 C.3       6 GLP5        0.0000 
     44 CA         28.2610    3.7105    3.8425 C.3       3 GLC5        0.0000 
     45 CA         30.3140    2.7290    4.7700 C.3       9 GLL5        0.0000 
     46 CA         26.3750    4.0480    3.1170 C.3       6 GLP5        0.0000 
     47 CA         32.7853    4.8033    7.7390 C.3       3 GLC5        0.0000 
     48 CA         34.3460    5.3000    8.9150 C.3       6 GLP5        0.0000 
     49 CA         29.5072    1.3782    7.2077 C.3       3 GLC5        0.0000 
     50 CA         27.9350    2.1090    8.2270 C.3       6 GLP5        0.0000 
     51 CA         28.1525    2.8667    3.1637 C.3       3 GLC5        0.0000 
@<TRIPOS>BOND
@<TRIPOS>SUBSTRUCTURE
     1 ALC1        9 GROUP        1 X    ALC  0     ROOT ALC X 1
     2 SEC2        4 GROUP        1 X    SEC  0     **** SEC X 2
     3 GLC5        1 GROUP        1 X    GLC  0     **** GLC X 6
     4 ALP1       11 GROUP        1 Y    ALP  0     ROOT ALP Y 8
     5 SEP2        6 GROUP        1 Y    SEP  0     **** SEP Y 9
     6 GLP5        3 GROUP        1 Y    GLP  0     **** GLP Y 13
     7 ALL1       10 GROUP        1 Z    ALL  0     ROOT ALL Z 15
     8 SEL2        5 GROUP        1 Z    SEL  0     **** SEL Z 16
     9 GLL5        2 GROUP        1 Z    GLL  0     **** GLL Z 20
@<TRIPOS>SET

