#    Name: 4jvl_EST_2_ligand
#    Modification time : Tue Mar 25 06:36:44 2014

@<TRIPOS>MOLECULE
4jvl_EST_2_ligand
   44    47     1     0     0
SMALL
NO_CHARGES


@<TRIPOS>ATOM
      1 C1         29.9800    4.0170    4.3660 C.ar      1 EST302      0.0000 
      2 C2         30.3490    5.1090    5.1480 C.ar      1 EST302      0.0000 
      3 C3         31.0500    4.9390    6.3410 C.ar      1 EST302      0.0000 
      4 O3         31.4200    6.0110    7.0930 O.3       1 EST302      0.0000 
      5 C4         31.3990    3.6740    6.7850 C.ar      1 EST302      0.0000 
      6 C5         31.0550    2.5590    6.0410 C.ar      1 EST302      0.0000 
      7 C6         31.4540    1.2000    6.5520 C.3       1 EST302      0.0000 
      8 C7         30.7050    0.0950    5.8250 C.3       1 EST302      0.0000 
      9 C8         30.7600    0.3330    4.3300 C.3       1 EST302      0.0000 
     10 C9         29.9140    1.5490    3.9640 C.3       1 EST302      0.0000 
     11 C10        30.3140    2.7290    4.7700 C.ar      1 EST302      0.0000 
     12 C11        29.9460    1.8220    2.4570 C.3       1 EST302      0.0000 
     13 C12        29.4510    0.6100    1.6700 C.3       1 EST302      0.0000 
     14 C13        30.2140   -0.6410    2.0850 C.3       1 EST302      0.0000 
     15 C14        30.1690   -0.8470    3.5840 C.3       1 EST302      0.0000 
     16 C15        30.7930   -2.2240    3.7890 C.3       1 EST302      0.0000 
     17 C16        30.3310   -3.0000    2.5490 C.3       1 EST302      0.0000 
     18 C17        29.6280   -1.9740    1.6540 C.3       1 EST302      0.0000 
     19 O17        29.8610   -2.2330    0.2720 O.3       1 EST302      0.0000 
     20 C18        31.6590   -0.5360    1.6090 C.3       1 EST302      0.0000 
     21 H          29.4613    4.1642    3.4912 H         1 EST302      0.0000 
     22 H          30.0983    6.0649    4.8380 H         1 EST302      0.0000 
     23 H          31.9152    3.5639    7.6702 H         1 EST302      0.0000 
     24 H          31.2390    1.1324    7.6226 H         1 EST302      0.0000 
     25 H          32.5292    1.0554    6.4104 H         1 EST302      0.0000 
     26 H          29.6690    0.0858    6.1539 H         1 EST302      0.0000 
     27 H          31.1624   -0.8632    6.0577 H         1 EST302      0.0000 
     28 H          31.7570    0.4930    4.0125 H         1 EST302      0.0000 
     29 H          28.8641    1.2935    4.2235 H         1 EST302      0.0000 
     30 H          30.9673    2.0533    2.1575 H         1 EST302      0.0000 
     31 H          29.3112    2.6789    2.2357 H         1 EST302      0.0000 
     32 H          29.5992    0.7880    0.6073 H         1 EST302      0.0000 
     33 H          28.3901    0.4669    1.8623 H         1 EST302      0.0000 
     34 H          29.0947   -0.9396    3.8380 H         1 EST302      0.0000 
     35 H          30.3966   -2.6748    4.6587 H         1 EST302      0.0000 
     36 H          31.8470   -2.1471    3.7881 H         1 EST302      0.0000 
     37 H          29.6387   -3.7581    2.8386 H         1 EST302      0.0000 
     38 H          31.1792   -3.3992    2.0400 H         1 EST302      0.0000 
     39 H          28.5887   -1.9774    1.9156 H         1 EST302      0.0000 
     40 H          32.1210    0.2613    1.9975 H         1 EST302      0.0000 
     41 H          32.1945   -1.3399    1.8676 H         1 EST302      0.0000 
     42 H          31.7172   -0.4526    0.6142 H         1 EST302      0.0000 
     43 H          30.8345    5.9734    7.9028 H         1 EST302      0.0000 
     44 H          29.0971   -2.6031    0.8008 H         1 EST302      0.0000 
@<TRIPOS>BOND
     1    2    1 ar   
     2   11    1 ar   
     3   21    1 1    
     4    3    2 ar   
     5   22    2 1    
     6    4    3 1    
     7    5    3 ar   
     8   43    4 1    
     9    6    5 ar   
    10   23    5 1    
    11    7    6 1    
    12   11    6 ar   
    13    8    7 1    
    14   24    7 1    
    15   25    7 1    
    16    9    8 1    
    17   26    8 1    
    18   27    8 1    
    19   10    9 1    
    20   15    9 1    
    21   28    9 1    
    22   11   10 1    
    23   12   10 1    
    24   29   10 1    
    25   13   12 1    
    26   30   12 1    
    27   31   12 1    
    28   14   13 1    
    29   32   13 1    
    30   33   13 1    
    31   15   14 1    
    32   18   14 1    
    33   20   14 1    
    34   16   15 1    
    35   34   15 1    
    36   17   16 1    
    37   35   16 1    
    38   36   16 1    
    39   18   17 1    
    40   37   17 1    
    41   38   17 1    
    42   19   18 1    
    43   39   18 1    
    44   44   19 1    
    45   40   20 1    
    46   41   20 1    
    47   42   20 1    
@<TRIPOS>SUBSTRUCTURE
     1 EST302      1 GROUP   
@<TRIPOS>SET

