#    Name: 4az3_S35_1_INTS_M
#    Modification time : Tue Mar 25 06:23:37 2014

@<TRIPOS>MOLECULE
4az3_S35_1_INTS_M
   71     0     6     0     0
SMALL
NO_CHARGES


@<TRIPOS>ATOM
      1 CA        -37.3840   11.0180   15.5105 C.3       2 GLC5        0.0000 
      2 CA        -36.2570    9.5860   15.4020 C.3       6 GLL5        0.0000 
      3 CA        -38.5110   12.4500   15.6190 C.3       4 GLP5        0.0000 
      4 CA        -38.0970    8.7175   15.5400 C.3       2 GLC5        0.0000 
      5 CA        -39.9370    7.8490   15.6780 C.3       4 GLP5        0.0000 
      6 CA        -35.4390    6.6325   13.8915 C.3       2 GLC5        0.0000 
      7 CA        -35.2460    7.3580   15.9480 C.3       6 GLL5        0.0000 
      8 CA        -35.6320    5.9070   11.8350 C.3       4 GLP5        0.0000 
      9 CA        -35.4645    4.9700   17.1155 C.3       2 GLC5        0.0000 
     10 CA        -34.1980    6.5160   16.3310 C.3       6 GLL5        0.0000 
     11 CA        -36.7310    3.4240   17.9000 C.3       4 GLP5        0.0000 
     12 CA        -30.3645   11.9670   16.1635 C.3       2 GLC5        0.0000 
     13 CA        -32.0610   11.2200   15.6830 C.3       6 GLL5        0.0000 
     14 CA        -28.6680   12.7140   16.6440 C.3       4 GLP5        0.0000 
     15 CA        -31.5895   12.2925   17.5760 C.3       2 GLC5        0.0000 
     16 CA        -31.1180   13.3650   19.4690 C.3       4 GLP5        0.0000 
     17 CA        -31.4265   10.2070   17.5315 C.3       2 GLC5        0.0000 
     18 CA        -30.7920    9.1940   19.3800 C.3       4 GLP5        0.0000 
     19 CA        -31.7205   12.7680   14.6250 C.3       2 GLC5        0.0000 
     20 CA        -31.3800   14.3160   13.5670 C.3       4 GLP5        0.0000 
     21 N         -31.9170   10.1300   12.2815 N.am      1 SEC2        0.0000 
     22 N         -32.3350   10.9850   13.3220 N.am      5 SEL2        0.0000 
     23 N         -31.4990    9.2750   11.2410 N.am      3 SEP2        0.0000 
     24 N         -29.8720    9.1635   13.8960 N.am      1 SEC2        0.0000 
     25 N         -30.3800   10.4170   14.2100 N.am      5 SEL2        0.0000 
     26 N         -29.3640    7.9100   13.5820 N.am      3 SEP2        0.0000 
     27 N         -29.3950   10.9510   15.0550 N.am      1 SEC2        0.0000 
     28 N         -28.4100   11.4850   15.9000 N.am      3 SEP2        0.0000 
     29 N         -30.9395    9.8460   12.7255 N.am      1 SEC2        0.0000 
     30 N         -36.5615   13.1235   16.6140 N.am      1 SEC2        0.0000 
     31 N         -34.9460   13.3540   16.3530 N.am      5 SEL2        0.0000 
     32 N         -38.1770   12.8930   16.8750 N.am      3 SEP2        0.0000 
     33 N         -33.6820   16.5335   22.7025 N.am      1 SEC2        0.0000 
     34 N         -34.6310   17.6280   22.0330 N.am      5 SEL2        0.0000 
     35 N         -32.7330   15.4390   23.3720 N.am      3 SEP2        0.0000 
     36 CA        -32.4970   12.7745   21.1160 C.3       2 GLC5        0.0000 
     37 CA        -33.8760   12.1840   22.7630 C.3       6 GLL5        0.0000 
     38 CA        -36.6910   10.6745   20.9040 C.3       2 GLC5        0.0000 
     39 CA        -36.2770   11.9570   22.5300 C.3       6 GLL5        0.0000 
     40 CA        -37.1050    9.3920   19.2780 C.3       4 GLP5        0.0000 
     41 CA        -38.3495   11.0050   20.9790 C.3       2 GLC5        0.0000 
     42 CA        -37.4020   12.1360   21.8080 C.3       6 GLL5        0.0000 
     43 CA        -39.2970    9.8740   20.1500 C.3       4 GLP5        0.0000 
     44 CA        -39.3910   12.1285   20.8770 C.3       2 GLC5        0.0000 
     45 CA        -41.3800   12.1210   19.9460 C.3       4 GLP5        0.0000 
     46 CA        -36.2771    8.8261   17.5296 C.3       2 GLC5        0.0000 
     47 CA        -32.1333    5.4830   15.9058 C.3       2 GLC5        0.0000 
     48 CA        -30.6980    4.1780   15.3480 C.3       4 GLP5        0.0000 
     49 CA        -33.0572    5.0930   17.4163 C.3       2 GLC5        0.0000 
     50 CA        -32.9390    7.0600   16.5960 C.3       6 GLL5        0.0000 
     51 CA        -32.5460    3.3980   18.3690 C.3       4 GLP5        0.0000 
     52 CA        -31.8145    8.4713   17.9572 C.3       2 GLC5        0.0000 
     53 CA        -33.1665    8.0158   18.5412 C.3       2 GLC5        0.0000 
     54 CA        -32.7350    8.4370   16.4730 C.3       6 GLL5        0.0000 
     55 CA        -33.4960    8.2830   20.5480 C.3       4 GLP5        0.0000 
     56 CA        -33.0088    9.9707   17.9928 C.3       2 GLC5        0.0000 
     57 CA        -33.7740    9.2990   16.0790 C.3       6 GLL5        0.0000 
     58 CA        -32.3660    9.8750   19.9630 C.3       4 GLP5        0.0000 
     59 CA        -33.1400   13.8202   19.6512 C.3       2 GLC5        0.0000 
     60 CA        -35.0910   14.3430   19.1730 C.3       6 GLL5        0.0000 
     61 CA        -33.4135   11.0807   21.1780 C.3       2 GLC5        0.0000 
     62 CA        -35.0460   12.3890   22.0230 C.3       6 GLL5        0.0000 
     63 CA        -33.9835   10.3382   22.3755 C.3       2 GLC5        0.0000 
     64 CA        -33.5060    8.3900   22.3580 C.3       4 GLP5        0.0000 
     65 CA        -34.2010   11.1780   26.1757 C.3       2 GLC5        0.0000 
     66 CA        -33.9450   11.5770   24.0220 C.3       6 GLL5        0.0000 
     67 CA        -33.8410   10.9870   28.0720 C.3       4 GLP5        0.0000 
     68 CA        -33.4809   12.9749   24.7514 C.3       2 GLC5        0.0000 
     69 CA        -35.1770   11.1610   24.5370 C.3       6 GLL5        0.0000 
     70 CA        -32.4180   14.4290   25.5380 C.3       4 GLP5        0.0000 
     71 CA        -34.4795    9.8758   23.1969 C.3       2 GLC5        0.0000 
@<TRIPOS>BOND
@<TRIPOS>SUBSTRUCTURE
     1 SEC2       21 GROUP        1 X    SEC  0     ROOT SEC X 2
     2 GLC5        1 GROUP        1 X    GLC  0     **** GLC X 6
     3 SEP2       23 GROUP        1 Y    SEP  0     ROOT SEP Y 9
     4 GLP5        3 GROUP        1 Y    GLP  0     **** GLP Y 13
     5 SEL2       22 GROUP        1 Z    SEL  0     ROOT SEL Z 16
     6 GLL5        2 GROUP        1 Z    GLL  0     **** GLL Z 20
@<TRIPOS>SET

