#    Name: 4az3_S35_1_ligand
#    Modification time : Tue Mar 25 06:23:38 2014

@<TRIPOS>MOLECULE
4az3_S35_1_ligand
   64    66     1     0     0
SMALL
NO_CHARGES


@<TRIPOS>ATOM
      1 C35       -36.2570    9.5860   15.4020 C.3       1 S351259     0.0000 
      2 C30       -35.0480    8.7390   15.8270 C.ar      1 S351259     0.0000 
      3 C31       -35.2460    7.3580   15.9480 C.ar      1 S351259     0.0000 
      4 C32       -34.1980    6.5160   16.3310 C.ar      1 S351259     0.0000 
      5 C33       -32.9390    7.0600   16.5960 C.ar      1 S351259     0.0000 
      6 C34       -32.7350    8.4370   16.4730 C.ar      1 S351259     0.0000 
      7 C29       -33.7740    9.2990   16.0790 C.ar      1 S351259     0.0000 
      8 C24       -33.5290   10.8340   15.9660 C.3       1 S351259     0.0000 
      9 C25       -32.0610   11.2200   15.6830 C.3       1 S351259     0.0000 
     10 C26       -31.5580   10.8240   14.2860 C.2       1 S351259     0.0000 
     11 O28       -32.3350   10.9850   13.3220 O.co2     1 S351259     0.0000 
     12 O27       -30.3800   10.4170   14.2100 O.co2     1 S351259     0.0000 
     13 N23       -33.9400   11.4910   17.2190 N.am      1 S351259     0.0000 
     14 C21       -34.5870   12.6590   17.3070 C.2       1 S351259     0.0000 
     15 O22       -34.9460   13.3540   16.3530 O.2       1 S351259     0.0000 
     16 C10       -34.8410   13.1040   18.7530 C.2       1 S351259     0.0000 
     17 N9        -34.7920   12.2730   19.7910 N.2       1 S351259     0.0000 
     18 C11       -35.0910   14.3430   19.1730 C.2       1 S351259     0.0000 
     19 C12       -35.2330   14.2080   20.4940 C.2       1 S351259     0.0000 
     20 O13       -35.4530   15.2000   21.4170 O.3       1 S351259     0.0000 
     21 C14       -36.4210   16.2360   21.0980 C.3       1 S351259     0.0000 
     22 C15       -35.7530   17.6350   21.1320 C.3       1 S351259     0.0000 
     23 C17       -36.6870   18.8680   21.3740 C.3       1 S351259     0.0000 
     24 C19       -35.9900   20.1210   20.8340 C.3       1 S351259     0.0000 
     25 C20       -38.0300   18.7430   20.6350 C.3       1 S351259     0.0000 
     26 C18       -36.9720   19.0880   22.8700 C.3       1 S351259     0.0000 
     27 O16       -34.6310   17.6280   22.0330 O.3       1 S351259     0.0000 
     28 N8        -34.9870   12.9340   20.8080 N.pl3     1 S351259     0.0000 
     29 C6        -35.0460   12.3890   22.0230 C.ar      1 S351259     0.0000 
     30 C5        -33.8760   12.1840   22.7630 C.ar      1 S351259     0.0000 
     31 C4        -33.9450   11.5770   24.0220 C.ar      1 S351259     0.0000 
     32 C3        -35.1770   11.1610   24.5370 C.ar      1 S351259     0.0000 
     33 C2        -36.3450   11.3540   23.7920 C.ar      1 S351259     0.0000 
     34 C1        -36.2770   11.9570   22.5300 C.ar      1 S351259     0.0000 
     35 F7        -37.4020   12.1360   21.8080 F         1 S351259     0.0000 
     36 H         -36.1760    6.9587   15.7521 H         1 S351259     0.0000 
     37 H         -34.3524    5.5085   16.4165 H         1 S351259     0.0000 
     38 H         -32.1654    6.4500   16.8804 H         1 S351259     0.0000 
     39 H         -31.8017    8.8343   16.6751 H         1 S351259     0.0000 
     40 H         -34.1403   11.2130   15.1519 H         1 S351259     0.0000 
     41 H         -31.4194   10.7443   16.4418 H         1 S351259     0.0000 
     42 H         -31.9536   12.3096   15.8058 H         1 S351259     0.0000 
     43 H         -33.6767   10.9508   18.0971 H         1 S351259     0.0000 
     44 H         -35.1535   15.1317   18.6600 H         1 S351259     0.0000 
     45 H         -37.2462   16.2472   21.8164 H         1 S351259     0.0000 
     46 H         -36.8418   16.0959   20.0978 H         1 S351259     0.0000 
     47 H         -35.3296   17.7861   20.0830 H         1 S351259     0.0000 
     48 H         -32.9708   12.4777   22.3838 H         1 S351259     0.0000 
     49 H         -33.0874   11.4366   24.5697 H         1 S351259     0.0000 
     50 H         -35.2240   10.7155   25.4587 H         1 S351259     0.0000 
     51 H         -37.2498   11.0547   24.1687 H         1 S351259     0.0000 
     52 H         -36.0265   10.5570   15.3391 H         1 S351259     0.0000 
     53 H         -36.6081    9.3095   14.5074 H         1 S351259     0.0000 
     54 H         -37.0133    9.5058   16.0512 H         1 S351259     0.0000 
     55 H         -35.1165   20.2865   21.2918 H         1 S351259     0.0000 
     56 H         -35.7986   20.0468   19.8553 H         1 S351259     0.0000 
     57 H         -36.5481   20.9408   20.9622 H         1 S351259     0.0000 
     58 H         -37.9041   18.6704   19.6456 H         1 S351259     0.0000 
     59 H         -38.5400   17.9334   20.9258 H         1 S351259     0.0000 
     60 H         -38.6188   19.5346   20.7983 H         1 S351259     0.0000 
     61 H         -36.1320   19.2479   23.3885 H         1 S351259     0.0000 
     62 H         -37.5656   19.8782   23.0227 H         1 S351259     0.0000 
     63 H         -37.4248   18.2973   23.2820 H         1 S351259     0.0000 
     64 H         -34.9955   17.9611   22.9026 H         1 S351259     0.0000 
@<TRIPOS>BOND
     1    2    1 1    
     2   52    1 1    
     3   53    1 1    
     4   54    1 1    
     5    3    2 ar   
     6    7    2 ar   
     7    4    3 ar   
     8   36    3 1    
     9    5    4 ar   
    10   37    4 1    
    11    6    5 ar   
    12   38    5 1    
    13    7    6 ar   
    14   39    6 1    
    15    8    7 1    
    16    9    8 1    
    17   13    8 1    
    18   40    8 1    
    19   10    9 1    
    20   41    9 1    
    21   42    9 1    
    22   11   10 ar   
    23   12   10 ar   
    24   14   13 am   
    25   43   13 1    
    26   15   14 2    
    27   16   14 1    
    28   17   16 2    
    29   18   16 1    
    30   28   17 1    
    31   19   18 2    
    32   44   18 1    
    33   20   19 1    
    34   28   19 1    
    35   21   20 1    
    36   22   21 1    
    37   45   21 1    
    38   46   21 1    
    39   23   22 1    
    40   27   22 1    
    41   47   22 1    
    42   24   23 1    
    43   25   23 1    
    44   26   23 1    
    45   55   24 1    
    46   56   24 1    
    47   57   24 1    
    48   58   25 1    
    49   59   25 1    
    50   60   25 1    
    51   61   26 1    
    52   62   26 1    
    53   63   26 1    
    54   64   27 1    
    55   29   28 1    
    56   30   29 ar   
    57   34   29 ar   
    58   31   30 ar   
    59   48   30 1    
    60   32   31 ar   
    61   49   31 1    
    62   33   32 ar   
    63   50   32 1    
    64   34   33 ar   
    65   51   33 1    
    66   35   34 1    
@<TRIPOS>SUBSTRUCTURE
     1 S351259     1 GROUP   
@<TRIPOS>SET

