#    Name: 3CCC_4_CAVITY_N1_6.mol2
#    Modification time : Tue Mar 11 13:19:41 2014

@<TRIPOS>MOLECULE
3CCC_4_CAVITY_N1_6.mol2
   97     0     7     0     0
SMALL
NO_CHARGES


@<TRIPOS>ATOM
      1 O         -85.8495   10.0946  -45.9530 O.2       2 ALA2        0.0000 
      2 OG        -86.7044   11.2876  -46.2625 O.2       1 SER1        0.0000 
      3 OG        -87.5594   12.4806  -46.5720 O.2       1 SER1        0.0000 
      4 OD1       -84.8775    8.6052  -47.1093 O.3       3 ASP3        0.0000 
      5 DU        -85.7325    9.7982  -47.4188 H         7 CUB7        0.0000 
      6 DU        -86.5874   10.9912  -47.7283 H         7 CUB7        0.0000 
      7 OG        -87.4424   12.1842  -48.0378 O.2       1 SER1        0.0000 
      8 NZ        -84.7606    8.3088  -48.5751 N.2       4 LYS4        0.0000 
      9 DU        -85.6155    9.5018  -48.8845 H         7 CUB7        0.0000 
     10 DU        -86.4705   10.6948  -49.1940 H         7 CUB7        0.0000 
     11 CZ        -87.3254   11.8878  -49.5035 C.ar      5 PHE5        0.0000 
     12 N         -84.6436    8.0123  -50.0408 N.2       2 ALA2        0.0000 
     13 NZ        -85.4985    9.2053  -50.3503 N.2       4 LYS4        0.0000 
     14 NZ        -86.3535   10.3984  -50.6598 N.2       4 LYS4        0.0000 
     15 NZ        -86.2365   10.1019  -52.1256 N.2       4 LYS4        0.0000 
     16 O         -79.5978   14.0961  -47.7984 O.2       2 ALA2        0.0000 
     17 O         -86.1045    7.7456  -47.0334 O.2       2 ALA2        0.0000 
     18 DU        -86.9594    8.9386  -47.3429 H         7 CUB7        0.0000 
     19 CZ        -88.6693   11.3246  -47.9618 C.ar      5 PHE5        0.0000 
     20 CZ        -89.5243   12.5176  -48.2713 C.ar      5 PHE5        0.0000 
     21 O         -85.1325    6.2562  -48.1897 O.2       2 ALA2        0.0000 
     22 N         -85.9875    7.4492  -48.4991 N.2       2 ALA2        0.0000 
     23 DU        -86.8424    8.6422  -48.8086 H         7 CUB7        0.0000 
     24 DU        -87.6974    9.8352  -49.1181 H         7 CUB7        0.0000 
     25 CZ        -88.5524   11.0282  -49.4276 C.ar      5 PHE5        0.0000 
     26 N         -86.7255    8.3458  -50.2744 N.2       2 ALA2        0.0000 
     27 CZ        -87.5804    9.5388  -50.5839 C.ar      5 PHE5        0.0000 
     28 CZ        -88.4354   10.7318  -50.8934 C.ar      5 PHE5        0.0000 
     29 N         -86.6085    8.0494  -51.7402 N.2       2 ALA2        0.0000 
     30 N         -87.4635    9.2424  -52.0496 N.2       2 ALA2        0.0000 
     31 OG        -82.3067   10.0279  -48.7269 O.2       1 SER1        0.0000 
     32 OG        -83.1616   11.2209  -49.0364 O.2       1 SER1        0.0000 
     33 CZ        -84.0166   12.4139  -49.3459 C.ar      5 PHE5        0.0000 
     34 CZ        -84.8716   13.6069  -49.6553 C.ar      5 PHE5        0.0000 
     35 NZ        -83.0447   10.9245  -50.5021 N.2       4 LYS4        0.0000 
     36 N         -87.2144    6.5896  -48.4232 N.2       2 ALA2        0.0000 
     37 DU        -88.0694    7.7826  -48.7327 H         7 CUB7        0.0000 
     38 DU        -88.9243    8.9756  -49.0422 H         7 CUB7        0.0000 
     39 CZ        -89.7793   10.1686  -49.3517 C.ar      5 PHE5        0.0000 
     40 N         -87.0974    6.2932  -49.8890 N.2       2 ALA2        0.0000 
     41 N         -87.9524    7.4862  -50.1985 N.2       2 ALA2        0.0000 
     42 DU        -88.8074    8.6792  -50.5080 H         7 CUB7        0.0000 
     43 CZ        -89.6623    9.8722  -50.8174 C.ar      5 PHE5        0.0000 
     44 NZ        -83.5336    9.1683  -48.6510 N.2       4 LYS4        0.0000 
     45 NZ        -84.3886   10.3613  -48.9605 N.2       4 LYS4        0.0000 
     46 CZ        -85.2435   11.5543  -49.2699 C.ar      5 PHE5        0.0000 
     47 CZ        -86.0985   12.7474  -49.5794 C.ar      5 PHE5        0.0000 
     48 CZ        -85.1266   11.2579  -50.7357 C.ar      5 PHE5        0.0000 
     49 CZ        -85.9815   12.4509  -51.0452 C.ar      5 PHE5        0.0000 
     50 N         -87.8354    7.1898  -51.6642 N.2       2 ALA2        0.0000 
     51 CA        -88.6904    8.3828  -51.9737 C.3       6 GLY6        0.0000 
     52 N         -88.5734    8.0864  -53.4395 N.2       2 ALA2        0.0000 
     53 CA        -88.4413    5.7300  -48.3473 C.3       6 GLY6        0.0000 
     54 CA        -89.1793    6.6266  -50.1226 C.3       6 GLY6        0.0000 
     55 DU        -90.0343    7.8196  -50.4320 H         7 CUB7        0.0000 
     56 CZ        -90.8893    9.0126  -50.7415 C.ar      5 PHE5        0.0000 
     57 OG        -89.0624    6.3302  -51.5883 O.2       1 SER1        0.0000 
     58 OG        -89.9173    7.5232  -51.8978 O.2       1 SER1        0.0000 
     59 N         -88.9454    6.0338  -53.0541 N.2       2 ALA2        0.0000 
     60 N         -89.8004    7.2268  -53.3636 N.2       2 ALA2        0.0000 
     61 O         -84.0015   10.3540  -42.7879 O.2       2 ALA2        0.0000 
     62 DU        -84.8565   11.5470  -43.0974 H         7 CUB7        0.0000 
     63 O         -83.8845   10.0576  -44.2537 O.2       2 ALA2        0.0000 
     64 DU        -84.7395   11.2506  -44.5632 H         7 CUB7        0.0000 
     65 OG        -85.5945   12.4436  -44.8727 O.2       1 SER1        0.0000 
     66 O         -84.6225   10.9542  -46.0289 O.2       2 ALA2        0.0000 
     67 OG        -85.4775   12.1472  -46.3384 O.2       1 SER1        0.0000 
     68 O         -83.6506    9.4647  -47.1852 O.2       2 ALA2        0.0000 
     69 DU        -84.5056   10.6578  -47.4947 H         7 CUB7        0.0000 
     70 OG        -85.3605   11.8508  -47.8042 O.2       1 SER1        0.0000 
     71 CA        -83.1406   14.1627  -45.0245 C.3       6 GLY6        0.0000 
     72 CA        -81.3137   11.4803  -45.8713 C.3       6 GLY6        0.0000 
     73 CA        -82.1687   12.6733  -46.1808 C.3       6 GLY6        0.0000 
     74 CA        -83.0236   13.8663  -46.4903 C.3       6 GLY6        0.0000 
     75 OG        -81.1967   11.1839  -47.3371 O.2       1 SER1        0.0000 
     76 OG        -82.0517   12.3769  -47.6465 O.2       1 SER1        0.0000 
     77 OG        -82.9066   13.5699  -47.9560 O.2       1 SER1        0.0000 
     78 OG        -83.7616   14.7629  -48.2655 O.2       1 SER1        0.0000 
     79 OG        -81.9347   12.0805  -49.1123 O.2       1 SER1        0.0000 
     80 CZ        -82.7897   13.2735  -49.4218 C.ar      5 PHE5        0.0000 
     81 CA        -80.0868   12.3399  -45.9472 C.3       6 GLY6        0.0000 
     82 CA        -80.9417   13.5329  -46.2567 C.3       6 GLY6        0.0000 
     83 OG        -79.9698   12.0435  -47.4130 O.2       1 SER1        0.0000 
     84 OG        -80.8248   13.2365  -47.7225 O.2       1 SER1        0.0000 
     85 CA        -81.6797   14.4295  -48.0319 C.3       6 GLY6        0.0000 
     86 OG        -80.7078   12.9401  -49.1882 O.2       1 SER1        0.0000 
     87 CZ        -81.5627   14.1331  -49.4977 C.ar      5 PHE5        0.0000 
     88 OG        -83.6295   12.4066  -43.1733 O.2       1 SER1        0.0000 
     89 OG        -82.6576   10.9172  -44.3296 O.2       1 SER1        0.0000 
     90 OG        -83.5126   12.1102  -44.6391 O.2       1 SER1        0.0000 
     91 CZ        -84.3675   13.3032  -44.9486 C.ar      5 PHE5        0.0000 
     92 O         -82.5406   10.6207  -45.7954 O.2       2 ALA2        0.0000 
     93 DU        -83.3956   11.8137  -46.1049 H         7 CUB7        0.0000 
     94 OG        -84.2505   13.0068  -46.4143 O.2       1 SER1        0.0000 
     95 NZ        -82.4237   10.3243  -47.2611 N.2       4 LYS4        0.0000 
     96 DU        -83.2786   11.5173  -47.5706 H         7 CUB7        0.0000 
     97 OG        -84.1336   12.7103  -47.8801 O.2       1 SER1        0.0000 
@<TRIPOS>BOND
@<TRIPOS>SUBSTRUCTURE
     1 SER1        2 GROUP   
     2 ALA2        1 GROUP   
     3 ASP3        4 GROUP   
     4 LYS4        8 GROUP   
     5 PHE5       11 GROUP   
     6 GLY6       51 GROUP   
     7 CUB7        5 GROUP   
@<TRIPOS>SET

