#    Name: 3ccc_7AC_4_INTS_M
#    Modification time : Mon Mar 24 20:38:28 2014

@<TRIPOS>MOLECULE
3ccc_7AC_4_INTS_M
   40     0    12     0     0
SMALL
NO_CHARGES


@<TRIPOS>ATOM
      1 CA        -84.4080   15.0310  -45.7900 C.3       4 GLC5        0.0000 
      2 CA        -83.4740   13.4780  -45.6060 C.3      12 GLL5        0.0000 
      3 CA        -85.3420   16.5840  -45.9740 C.3       8 GLP5        0.0000 
      4 CA        -81.9185   13.5260  -44.6970 C.3       4 GLC5        0.0000 
      5 CA        -80.3630   13.5740  -43.7880 C.3       8 GLP5        0.0000 
      6 CA        -82.5350   15.3010  -46.1235 C.3       4 GLC5        0.0000 
      7 CA        -81.5960   17.1240  -46.6410 C.3       8 GLP5        0.0000 
      8 CA        -77.9935   12.2530  -47.0160 C.3       4 GLC5        0.0000 
      9 CA        -79.6710   12.8250  -47.6490 C.3      12 GLL5        0.0000 
     10 CA        -76.3160   11.6810  -46.3830 C.3       8 GLP5        0.0000 
     11 CA        -83.5430    7.1485  -49.7880 C.3       4 GLC5        0.0000 
     12 CA        -85.3800    8.2470  -49.4650 C.3      12 GLL5        0.0000 
     13 CA        -81.7060    6.0500  -50.1110 C.3       8 GLP5        0.0000 
     14 N         -81.6565   15.1835  -44.9795 N.am      2 SEC2        0.0000 
     15 N         -83.0540   14.3760  -45.0470 N.am     10 SEL2        0.0000 
     16 N         -80.2590   15.9910  -44.9120 N.am      6 SEP2        0.0000 
     17 CA        -80.6570   12.1480  -45.1360 C.3       4 GLC5        0.0000 
     18 CA        -80.9510   10.7220  -46.4840 C.3      12 GLL5        0.0000 
     19 CA        -79.7320   10.8245  -48.3040 C.3       4 GLC5        0.0000 
     20 CA        -78.5130   10.9270  -50.1240 C.3       8 GLP5        0.0000 
     21 CA        -80.1140   10.0880  -44.8050 C.3       4 GLC5        0.0000 
     22 CA        -79.2770    9.4540  -43.1260 C.3       8 GLP5        0.0000 
     23 CA        -83.1250   11.6505  -51.1285 C.3       4 GLC5        0.0000 
     24 CA        -83.0150   10.4600  -49.5190 C.3      12 GLL5        0.0000 
     25 CA        -83.2350   12.8410  -52.7380 C.3       8 GLP5        0.0000 
     26 OD1       -82.2960    8.0450  -48.6540 O.co2     3 ASC3        0.0000 
     27 OD1       -82.3160    9.1860  -49.3470 O.co2    11 ASL3        0.0000 
     28 OD1       -82.2760    6.9040  -47.9610 O.co2     7 ASP3        0.0000 
     29 OD1       -82.7655    9.1475  -50.8295 O.co2     3 ASC3        0.0000 
     30 OD1       -83.2150    9.1090  -52.3120 O.co2     7 ASP3        0.0000 
     31 OD1       -81.6965    8.9895  -50.6365 O.co2     3 ASC3        0.0000 
     32 OD1       -81.0770    8.7930  -51.9260 O.co2     7 ASP3        0.0000 
     33 O         -81.6965    8.9895  -50.6365 O.2       1 ALC1        0.0000 
     34 O         -82.3160    9.1860  -49.3470 O.2       9 ALL1        0.0000 
     35 O         -81.0770    8.7930  -51.9260 O.2       5 ALP1        0.0000 
     36 CA        -80.3197   13.0422  -45.6565 C.3       4 GLC5        0.0000 
     37 CA        -77.7630   14.2157  -48.1368 C.3       4 GLC5        0.0000 
     38 CA        -75.8660   15.0210  -48.2530 C.3       8 GLP5        0.0000 
     39 CA        -81.0722   15.6144  -47.6050 C.3       4 GLC5        0.0000 
     40 CA        -79.6490   13.9960  -48.3920 C.3      12 GLL5        0.0000 
@<TRIPOS>BOND
@<TRIPOS>SUBSTRUCTURE
     1 ALC1       33 GROUP        1 X    ALC  0     ROOT ALC X 1
     2 SEC2       14 GROUP        1 X    SEC  0     **** SEC X 2
     3 ASC3       26 GROUP        1 X    ASC  0     **** ASC X 3
     4 GLC5        1 GROUP        1 X    GLC  0     **** GLC X 6
     5 ALP1       35 GROUP        1 Y    ALP  0     ROOT ALP Y 8
     6 SEP2       16 GROUP        1 Y    SEP  0     **** SEP Y 9
     7 ASP3       28 GROUP        1 Y    ASP  0     **** ASP Y 10
     8 GLP5        3 GROUP        1 Y    GLP  0     **** GLP Y 13
     9 ALL1       34 GROUP        1 Z    ALL  0     ROOT ALL Z 15
    10 SEL2       15 GROUP        1 Z    SEL  0     **** SEL Z 16
    11 ASL3       27 GROUP        1 Z    ASL  0     **** ASL Z 17
    12 GLL5        2 GROUP        1 Z    GLL  0     **** GLL Z 20
@<TRIPOS>SET

