#    Name: 3ccc_7AC_4_ligand
#    Modification time : Mon Mar 24 20:38:28 2014

@<TRIPOS>MOLECULE
3ccc_7AC_4_ligand
   35    37     1     0     0
SMALL
NO_CHARGES


@<TRIPOS>ATOM
      1 C5        -85.5650   10.5760  -46.6480 C.ar      1 7AC800      0.0000 
      2 C6        -85.1070   11.6670  -45.9090 C.ar      1 7AC800      0.0000 
      3 C7        -83.9720   12.3480  -46.3410 C.ar      1 7AC800      0.0000 
      4 C8        -83.4740   13.4780  -45.6060 C.1       1 7AC800      0.0000 
      5 C10       -83.3050   11.9550  -47.5310 C.ar      1 7AC800      0.0000 
      6 C13       -80.8400   14.5240  -48.8680 C.ar      1 7AC800      0.0000 
      7 C15       -79.6710   12.8250  -47.6490 C.ar      1 7AC800      0.0000 
      8 C21       -84.8960   10.1630  -47.8310 C.ar      1 7AC800      0.0000 
      9 C1        -85.3800    8.2470  -49.4650 C.3       1 7AC800      0.0000 
     10 N2        -85.6210    9.0690  -48.2830 N.pl3     1 7AC800      0.0000 
     11 C3        -86.6420    8.8580  -47.4150 C.2       1 7AC800      0.0000 
     12 N4        -86.6150    9.7400  -46.4630 N.2       1 7AC800      0.0000 
     13 N9        -83.0540   14.3760  -45.0470 N.1       1 7AC800      0.0000 
     14 C11       -82.0820   12.7180  -47.8930 C.ar      1 7AC800      0.0000 
     15 C12       -82.0560   13.9030  -48.6240 C.ar      1 7AC800      0.0000 
     16 C14       -79.6490   13.9960  -48.3920 C.ar      1 7AC800      0.0000 
     17 C16       -80.8820   12.1960  -47.4010 C.ar      1 7AC800      0.0000 
     18 CL17      -80.9510   10.7220  -46.4840 Cl        1 7AC800      0.0000 
     19 C18       -83.7580   10.8570  -48.2670 C.ar      1 7AC800      0.0000 
     20 C19       -83.0150   10.4600  -49.5190 C.3       1 7AC800      0.0000 
     21 N20       -82.3160    9.1860  -49.3470 N.4       1 7AC800      0.0000 
     22 H         -85.5979   11.9609  -45.0637 H         1 7AC800      0.0000 
     23 H         -80.8208   15.4049  -49.4200 H         1 7AC800      0.0000 
     24 H         -78.7979   12.4270  -47.2855 H         1 7AC800      0.0000 
     25 H         -87.2964    8.1270  -47.5214 H         1 7AC800      0.0000 
     26 H         -82.9269   14.3096  -48.9766 H         1 7AC800      0.0000 
     27 H         -78.7595   14.4675  -48.5878 H         1 7AC800      0.0000 
     28 H         -82.3009   11.2590  -49.7717 H         1 7AC800      0.0000 
     29 H         -83.7356   10.3939  -50.3489 H         1 7AC800      0.0000 
     30 H         -84.4822    7.8075  -49.4350 H         1 7AC800      0.0000 
     31 H         -86.0597    7.5192  -49.5561 H         1 7AC800      0.0000 
     32 H         -85.4141    8.7869  -50.3061 H         1 7AC800      0.0000 
     33 H         -82.9480    8.4418  -49.1311 H         1 7AC800      0.0000 
     34 H         -81.8210    8.9194  -50.1739 H         1 7AC800      0.0000 
     35 H         -81.6467    9.2268  -48.6051 H         1 7AC800      0.0000 
@<TRIPOS>BOND
     1    2    1 ar   
     2    8    1 ar   
     3   12    1 1    
     4    3    2 ar   
     5   22    2 1    
     6    4    3 1    
     7    5    3 ar   
     8   13    4 3    
     9   14    5 1    
    10   19    5 ar   
    11   15    6 ar   
    12   16    6 ar   
    13   23    6 1    
    14   16    7 ar   
    15   17    7 ar   
    16   24    7 1    
    17   10    8 1    
    18   19    8 ar   
    19   10    9 1    
    20   30    9 1    
    21   31    9 1    
    22   32    9 1    
    23   11   10 1    
    24   12   11 2    
    25   25   11 1    
    26   15   14 ar   
    27   17   14 ar   
    28   26   15 1    
    29   27   16 1    
    30   18   17 1    
    31   20   19 1    
    32   21   20 1    
    33   28   20 1    
    34   29   20 1    
    35   33   21 1    
    36   34   21 1    
    37   35   21 1    
@<TRIPOS>SUBSTRUCTURE
     1 7AC800      1 GROUP   
@<TRIPOS>SET

