#    Name: 3fcl_3FL_1_INTS_M
#    Modification time : Tue Mar 25 03:39:00 2014

@<TRIPOS>MOLECULE
3fcl_3FL_1_INTS_M
   49     0    12     0     0
SMALL
NO_CHARGES


@<TRIPOS>ATOM
      1 CA         37.9835    4.5785   14.1965 C.3       4 GLC5        0.0000 
      2 CA         39.3140    3.2920   14.8070 C.3      12 GLL5        0.0000 
      3 CA         36.6530    5.8650   13.5860 C.3       8 GLP5        0.0000 
      4 NZ         41.6750   -1.4255   14.1565 N.4       3 LYC4        0.0000 
      5 NZ         41.8780   -0.8370   16.0430 N.4      11 LYL4        0.0000 
      6 NZ         41.4720   -2.0140   12.2700 N.4       7 LYP4        0.0000 
      7 NZ         41.0960   -0.6010   17.1000 N.4       3 LYC4        0.0000 
      8 NZ         40.3140   -0.3650   18.1570 N.4       7 LYP4        0.0000 
      9 N          43.3305   -1.7245   16.0590 N.am      2 SEC2        0.0000 
     10 N          41.8780   -0.8370   16.0430 N.am     10 SEL2        0.0000 
     11 N          44.7830   -2.6120   16.0750 N.am      6 SEP2        0.0000 
     12 N          41.0960   -0.6010   17.1000 N.am      2 SEC2        0.0000 
     13 N          40.3140   -0.3650   18.1570 N.am      6 SEP2        0.0000 
     14 NZ         42.0500   -1.2055   13.1400 N.4       3 LYC4        0.0000 
     15 NZ         42.6280   -0.3970   14.0100 N.4      11 LYL4        0.0000 
     16 N          43.2490   -1.5290   13.7320 N.am      2 SEC2        0.0000 
     17 N          42.6280   -0.3970   14.0100 N.am     10 SEL2        0.0000 
     18 N          43.8700   -2.6610   13.4540 N.am      6 SEP2        0.0000 
     19 CA         36.3390    3.5870   14.3125 C.3       4 GLC5        0.0000 
     20 CA         37.2440    1.8880   14.9510 C.3      12 GLL5        0.0000 
     21 CA         35.4340    5.2860   13.6740 C.3       8 GLP5        0.0000 
     22 CA         34.3280    7.5470   19.0800 C.3       4 GLC5        0.0000 
     23 CA         33.1230    5.8270   19.3690 C.3      12 GLL5        0.0000 
     24 CA         35.5330    9.2670   18.7910 C.3       8 GLP5        0.0000 
     25 CA         31.1850    7.3335   18.0940 C.3       4 GLC5        0.0000 
     26 CA         30.6260    5.7740   19.1360 C.3      12 GLL5        0.0000 
     27 CA         31.7440    8.8930   17.0520 C.3       8 GLP5        0.0000 
     28 N          28.2435    7.1110   18.6035 N.am      2 SEC2        0.0000 
     29 N          28.3620    5.6830   18.8290 N.am     10 SEL2        0.0000 
     30 N          28.1250    8.5390   18.3780 N.am      6 SEP2        0.0000 
     31 N          27.2430    4.8490   18.2645 N.am      2 SEC2        0.0000 
     32 N          26.1240    4.0150   17.7000 N.am      6 SEP2        0.0000 
     33 O          28.5205    4.4640   16.5245 O.2       1 ALC1        0.0000 
     34 O          29.6490    4.8340   17.1970 O.2       9 ALL1        0.0000 
     35 O          27.3920    4.0940   15.8520 O.2       5 ALP1        0.0000 
     36 N          30.2575    3.2240   14.7625 N.am      2 SEC2        0.0000 
     37 N          30.9640    3.9900   15.5920 N.am     10 SEL2        0.0000 
     38 N          29.5510    2.4580   13.9330 N.am      6 SEP2        0.0000 
     39 CA         42.5293    3.7437   15.8625 C.3       4 GLC5        0.0000 
     40 CA         40.7010    3.4350   14.7830 C.3      12 GLL5        0.0000 
     41 CA         43.9480    4.6140   16.8990 C.3       8 GLP5        0.0000 
     42 CA         39.5757    4.9932   16.0690 C.3       4 GLC5        0.0000 
     43 CA         39.1440    6.6230   17.3430 C.3       8 GLP5        0.0000 
     44 CA         41.0936    4.5839   13.7322 C.3       4 GLC5        0.0000 
     45 CA         41.9750    6.0850   12.6480 C.3       8 GLP5        0.0000 
     46 CA         32.4615    6.8788   17.5482 C.3       4 GLC5        0.0000 
     47 CA         32.4260    8.1070   16.1120 C.3       8 GLP5        0.0000 
     48 CA         31.7348    6.4301   20.7501 C.3       4 GLC5        0.0000 
     49 CA         31.9080    7.1480   22.4400 C.3       8 GLP5        0.0000 
@<TRIPOS>BOND
@<TRIPOS>SUBSTRUCTURE
     1 ALC1       33 GROUP        1 X    ALC  0     ROOT ALC X 1
     2 SEC2        9 GROUP        1 X    SEC  0     **** SEC X 2
     3 LYC4        4 GROUP        1 X    LYC  0     **** LYC X 4
     4 GLC5        1 GROUP        1 X    GLC  0     **** GLC X 6
     5 ALP1       35 GROUP        1 Y    ALP  0     ROOT ALP Y 8
     6 SEP2       11 GROUP        1 Y    SEP  0     **** SEP Y 9
     7 LYP4        6 GROUP        1 Y    LYP  0     **** LYP Y 11
     8 GLP5        3 GROUP        1 Y    GLP  0     **** GLP Y 13
     9 ALL1       34 GROUP        1 Z    ALL  0     ROOT ALL Z 15
    10 SEL2       10 GROUP        1 Z    SEL  0     **** SEL Z 16
    11 LYL4        5 GROUP        1 Z    LYL  0     **** LYL Z 18
    12 GLL5        2 GROUP        1 Z    GLL  0     **** GLL Z 20
@<TRIPOS>SET

