#    Name: 3fcl_3FL_1_ligand
#    Modification time : Tue Mar 25 03:39:00 2014

@<TRIPOS>MOLECULE
3fcl_3FL_1_ligand
   44    45     1     0     0
SMALL
NO_CHARGES


@<TRIPOS>ATOM
      1 C8         35.0190    4.6120   19.0000 C.3       1 3FL1        0.0000 
      2 C5         40.9530    1.0470   14.9850 C.ar      1 3FL1        0.0000 
      3 C6         41.5200    2.3120   14.8690 C.ar      1 3FL1        0.0000 
      4 C2         39.3140    3.2920   14.8070 C.ar      1 3FL1        0.0000 
      5 C4         39.5670    0.8960   15.0060 C.ar      1 3FL1        0.0000 
      6 O40        41.8780   -0.8370   16.0430 O.co2     1 3FL1        0.0000 
      7 C38        41.8590   -0.1460   15.0620 C.2       1 3FL1        0.0000 
      8 O39        42.6280   -0.3970   14.0100 O.co2     1 3FL1        0.0000 
      9 C1         40.7010    3.4350   14.7830 C.ar      1 3FL1        0.0000 
     10 C3         38.7480    2.0250   14.9180 C.ar      1 3FL1        0.0000 
     11 C17        37.2440    1.8880   14.9510 C.3       1 3FL1        0.0000 
     12 N18        36.8120    1.6570   16.3170 N.4       1 3FL1        0.0000 
     13 C7         36.8750    2.7140   17.3040 C.3       1 3FL1        0.0000 
     14 C22        36.0250    2.3820   18.5220 C.3       1 3FL1        0.0000 
     15 C23        35.9790    3.5420   19.5040 C.3       1 3FL1        0.0000 
     16 N31        33.8040    4.6370   19.7300 N.4       1 3FL1        0.0000 
     17 C30        33.1230    5.8270   19.3690 C.3       1 3FL1        0.0000 
     18 C16        31.8710    5.4740   18.6000 C.2       1 3FL1        0.0000 
     19 N11        31.9660    4.8730   17.3990 N.am      1 3FL1        0.0000 
     20 C15        30.6260    5.7740   19.1360 C.2       1 3FL1        0.0000 
     21 C14        29.5030    5.4370   18.3910 C.2       1 3FL1        0.0000 
     22 O33        28.3620    5.6830   18.8290 O.2       1 3FL1        0.0000 
     23 N13        29.6490    4.8340   17.1970 N.am      1 3FL1        0.0000 
     24 C12        30.8640    4.5560   16.7020 C.2       1 3FL1        0.0000 
     25 O34        30.9640    3.9900   15.5920 O.2       1 3FL1        0.0000 
     26 H          34.8439    4.4192   17.9217 H         1 3FL1        0.0000 
     27 H          35.5486    5.5852   19.0547 H         1 3FL1        0.0000 
     28 H          42.5415    2.4183   14.8467 H         1 3FL1        0.0000 
     29 H          38.7116    4.1212   14.7428 H         1 3FL1        0.0000 
     30 H          39.1504   -0.0358   15.0854 H         1 3FL1        0.0000 
     31 H          41.1184    4.3707   14.7017 H         1 3FL1        0.0000 
     32 H          36.9555    1.0560   14.3030 H         1 3FL1        0.0000 
     33 H          36.8017    2.8039   14.5500 H         1 3FL1        0.0000 
     34 H          36.5154    3.6665   16.8864 H         1 3FL1        0.0000 
     35 H          37.9091    2.8764   17.6436 H         1 3FL1        0.0000 
     36 H          36.4402    1.5027   19.0216 H         1 3FL1        0.0000 
     37 H          35.0086    2.1437   18.1973 H         1 3FL1        0.0000 
     38 H          35.6416    3.1831   20.4723 H         1 3FL1        0.0000 
     39 H          36.9726    3.9693   19.6060 H         1 3FL1        0.0000 
     40 H          33.7412    6.4736   18.7332 H         1 3FL1        0.0000 
     41 H          32.8273    6.4108   20.2501 H         1 3FL1        0.0000 
     42 H          32.9124    4.6510   17.0056 H         1 3FL1        0.0000 
     43 H          30.5390    6.2235   20.0398 H         1 3FL1        0.0000 
     44 H          28.7923    4.5764   16.6426 H         1 3FL1        0.0000 
@<TRIPOS>BOND
     1   15    1 1    
     2   16    1 1    
     3   26    1 1    
     4   27    1 1    
     5    3    2 ar   
     6    5    2 ar   
     7    7    2 1    
     8    9    3 ar   
     9   28    3 1    
    10    9    4 ar   
    11   10    4 ar   
    12   29    4 1    
    13   10    5 ar   
    14   30    5 1    
    15    7    6 ar   
    16    8    7 ar   
    17   31    9 1    
    18   11   10 1    
    19   12   11 1    
    20   32   11 1    
    21   33   11 1    
    22   13   12 1    
    23   14   13 1    
    24   34   13 1    
    25   35   13 1    
    26   15   14 1    
    27   36   14 1    
    28   37   14 1    
    29   38   15 1    
    30   39   15 1    
    31   17   16 1    
    32   18   17 1    
    33   40   17 1    
    34   41   17 1    
    35   19   18 1    
    36   20   18 2    
    37   24   19 am   
    38   42   19 1    
    39   21   20 1    
    40   43   20 1    
    41   22   21 2    
    42   23   21 am   
    43   24   23 am   
    44   44   23 1    
    45   25   24 2    
@<TRIPOS>SUBSTRUCTURE
     1 3FL1        1 GROUP   
@<TRIPOS>SET

