#    Name: 3v9t_17L_1_INTS_M
#    Modification time : Tue Mar 25 00:20:37 2014

@<TRIPOS>MOLECULE
3v9t_17L_1_INTS_M
   96     0     3     0     0
SMALL
NO_CHARGES


@<TRIPOS>ATOM
      1 CA         13.6665   50.7525   64.5020 C.3       1 GLC5        0.0000 
      2 CA         15.5180   50.4540   64.8580 C.3       3 GLL5        0.0000 
      3 CA         11.8150   51.0510   64.1460 C.3       2 GLP5        0.0000 
      4 CA         14.9440   52.6110   62.3140 C.3       1 GLC5        0.0000 
      5 CA         15.5460   50.5380   62.3830 C.3       3 GLL5        0.0000 
      6 CA         14.3420   54.6840   62.2450 C.3       2 GLP5        0.0000 
      7 CA         14.2120   50.1305   60.3005 C.3       1 GLC5        0.0000 
      8 CA         14.8800   49.3950   62.2470 C.3       3 GLL5        0.0000 
      9 CA         13.5440   50.8660   58.3540 C.3       2 GLP5        0.0000 
     10 CA         14.0315   46.0020   61.1465 C.3       1 GLC5        0.0000 
     11 CA         13.2990   47.9230   61.7660 C.3       3 GLL5        0.0000 
     12 CA         14.7640   44.0810   60.5270 C.3       2 GLP5        0.0000 
     13 CA         10.9530   49.0815   61.0515 C.3       1 GLC5        0.0000 
     14 CA         12.2220   47.3130   61.1080 C.3       3 GLL5        0.0000 
     15 CA          9.6840   50.8500   60.9950 C.3       2 GLP5        0.0000 
     16 CA          9.6125   47.6265   61.5610 C.3       1 GLC5        0.0000 
     17 CA         11.2690   46.5690   61.8280 C.3       3 GLL5        0.0000 
     18 CA          7.9560   48.6840   61.2940 C.3       2 GLP5        0.0000 
     19 CA          9.6485   46.4355   64.2620 C.3       1 GLC5        0.0000 
     20 CA         11.3990   46.4270   63.2110 C.3       3 GLL5        0.0000 
     21 CA          7.8980   46.4440   65.3130 C.3       2 GLP5        0.0000 
     22 CA         11.4475   44.6610   64.3715 C.3       1 GLC5        0.0000 
     23 CA         11.4960   42.8950   65.5320 C.3       2 GLP5        0.0000 
     24 CA         12.1430   49.0370   64.0070 C.3       1 GLC5        0.0000 
     25 CA         12.4710   47.0230   63.8680 C.3       3 GLL5        0.0000 
     26 CA         16.8210   45.8385   64.4640 C.3       1 GLC5        0.0000 
     27 CA         15.7590   47.4410   63.5400 C.3       3 GLL5        0.0000 
     28 CA         17.8830   44.2360   65.3880 C.3       2 GLP5        0.0000 
     29 CA         15.0880   45.3950   63.2435 C.3       1 GLC5        0.0000 
     30 CA         14.4170   43.3490   62.9470 C.3       2 GLP5        0.0000 
     31 CA         12.1365   48.9940   57.3775 C.3       1 GLC5        0.0000 
     32 CA         10.5680   47.8600   57.7340 C.3       3 GLL5        0.0000 
     33 CA         13.7050   50.1280   57.0210 C.3       2 GLP5        0.0000 
     34 CA          4.5300   49.0835   56.7550 C.3       1 GLC5        0.0000 
     35 CA          6.4340   49.0250   57.4540 C.3       3 GLL5        0.0000 
     36 CA          2.6260   49.1420   56.0560 C.3       2 GLP5        0.0000 
     37 CA          4.9275   45.5210   56.5960 C.3       1 GLC5        0.0000 
     38 CA          6.0110   45.4280   58.2790 C.3       3 GLL5        0.0000 
     39 CA          3.8440   45.6140   54.9130 C.3       2 GLP5        0.0000 
     40 CA          7.1835   43.5585   59.9150 C.3       1 GLC5        0.0000 
     41 CA          7.3440   45.0130   58.3710 C.3       3 GLL5        0.0000 
     42 CA          7.0230   42.1040   61.4590 C.3       2 GLP5        0.0000 
     43 CA          9.1040   46.0330   56.3665 C.3       1 GLC5        0.0000 
     44 CA          8.3670   45.9040   58.1700 C.3       3 GLL5        0.0000 
     45 CA          9.8410   46.1620   54.5630 C.3       2 GLP5        0.0000 
     46 CA          8.5960   45.8050   63.5785 C.3       1 GLC5        0.0000 
     47 CA          9.2940   45.1660   61.8440 C.3       3 GLL5        0.0000 
     48 CA          8.6250   46.9250   61.5690 C.3       1 GLC5        0.0000 
     49 CA          9.6290   43.5405   60.3420 C.3       1 GLC5        0.0000 
     50 CA          9.9640   41.9150   58.8400 C.3       2 GLP5        0.0000 
     51 CA         11.2890   44.5245   61.0345 C.3       1 GLC5        0.0000 
     52 CA         13.2840   43.8830   60.2250 C.3       2 GLP5        0.0000 
     53 CA          9.6140   43.9190   63.2600 C.3       1 GLC5        0.0000 
     54 CA          9.9340   42.6720   64.6760 C.3       2 GLP5        0.0000 
     55 CA          7.9855   44.2955   62.7095 C.3       1 GLC5        0.0000 
     56 CA          6.6770   43.4250   63.5750 C.3       2 GLP5        0.0000 
     57 CA          4.6695   51.7195   58.1830 C.3       1 GLC5        0.0000 
     58 CA          5.9120   51.7020   56.6300 C.3       3 GLL5        0.0000 
     59 CA          3.4270   51.7370   59.7360 C.3       2 GLP5        0.0000 
     60 CA          5.4460   53.5050   54.2630 C.3       1 GLC5        0.0000 
     61 CA          5.6680   51.5900   55.1220 C.3       3 GLL5        0.0000 
     62 CA          5.2240   55.4200   53.4040 C.3       2 GLP5        0.0000 
     63 CA          7.0000   51.4580   53.8805 C.3       1 GLC5        0.0000 
     64 CA          8.3320   51.3260   52.6390 C.3       2 GLP5        0.0000 
     65 CA          4.0255   50.9660   53.7285 C.3       1 GLC5        0.0000 
     66 CA          2.3830   50.3420   52.3350 C.3       2 GLP5        0.0000 
     67 CA         13.5140   50.5087   63.2305 C.3       1 GLC5        0.0000 
     68 CA         12.7385   49.5433   63.3453 C.3       1 GLC5        0.0000 
     69 CA         14.6610   48.5160   63.4890 C.3       3 GLL5        0.0000 
     70 CA         12.5147   45.4120   60.8465 C.3       1 GLC5        0.0000 
     71 CA         13.1760   45.0370   63.2433 C.3       1 GLC5        0.0000 
     72 CA          8.8985   48.3618   59.4902 C.3       1 GLC5        0.0000 
     73 CA          9.8410   47.1007   56.1247 C.3       1 GLC5        0.0000 
     74 CA          9.1140   48.2190   57.6390 C.3       3 GLL5        0.0000 
     75 CA          8.1723   50.0697   59.1058 C.3       1 GLC5        0.0000 
     76 CA          8.7910   49.5100   57.3350 C.3       3 GLL5        0.0000 
     77 CA          8.2210   50.4240   60.9230 C.3       2 GLP5        0.0000 
     78 CA          7.7903   48.3312   55.8337 C.3       1 GLC5        0.0000 
     79 CA          7.4570   46.9470   54.3790 C.3       2 GLP5        0.0000 
     80 CA          4.9882   47.1762   56.4375 C.3       1 GLC5        0.0000 
     81 CA          6.7280   47.6750   57.7630 C.3       3 GLL5        0.0000 
     82 CA          3.7630   47.1500   55.0030 C.3       2 GLP5        0.0000 
     83 CA          8.0928   47.6330   59.6545 C.3       1 GLC5        0.0000 
     84 CA          8.0920   47.2600   57.8600 C.3       3 GLL5        0.0000 
     85 CA          7.3967   47.3760   56.0566 C.3       1 GLC5        0.0000 
     86 CA          7.0480   48.1120   59.5444 C.3       1 GLC5        0.0000 
     87 CA          5.3085   46.3345   59.9385 C.3       1 GLC5        0.0000 
     88 CA          5.6990   46.7300   57.9810 C.3       3 GLL5        0.0000 
     89 CA          4.7620   46.5900   61.7470 C.3       2 GLP5        0.0000 
     90 CA          7.0282   46.2465   56.3148 C.3       1 GLC5        0.0000 
     91 CA          8.9098   43.6868   58.5553 C.3       1 GLC5        0.0000 
     92 CA          7.2156   44.3611   56.7008 C.3       1 GLC5        0.0000 
     93 CA          6.9090   43.1600   55.1540 C.3       2 GLP5        0.0000 
     94 CA          4.2080   50.3940   55.9660 C.3       1 GLC5        0.0000 
     95 CA          3.7255   52.1200   55.9935 C.3       1 GLC5        0.0000 
     96 CA          1.6610   52.5940   56.1110 C.3       2 GLP5        0.0000 
@<TRIPOS>BOND
@<TRIPOS>SUBSTRUCTURE
     1 GLC5        1 GROUP        1 X    GLC  0     ROOT GLC X 6
     2 GLP5        3 GROUP        1 Y    GLP  0     ROOT GLP Y 13
     3 GLL5        2 GROUP        1 Z    GLL  0     ROOT GLL Z 20
@<TRIPOS>SET

