#    Name: 3v9t_17L_1_ligand
#    Modification time : Tue Mar 25 00:20:37 2014

@<TRIPOS>MOLECULE
3v9t_17L_1_ligand
   65    69     1     0     0
SMALL
NO_CHARGES


@<TRIPOS>ATOM
      1 C1         15.5180   50.4540   64.8580 C.2       1 17L501      0.0000 
      2 C2         15.9120   51.0550   63.6320 C.2       1 17L501      0.0000 
      3 C3         15.5460   50.5380   62.3830 C.2       1 17L501      0.0000 
      4 C4         14.8800   49.3950   62.2470 C.2       1 17L501      0.0000 
      5 C5         14.6610   48.5160   63.4890 C.3       1 17L501      0.0000 
      6 C6         14.8060   49.2010   64.8310 C.2       1 17L501      0.0000 
      7 O7         14.3360   48.6700   61.2530 O.3       1 17L501      0.0000 
      8 C8         13.2990   47.9230   61.7660 C.ar      1 17L501      0.0000 
      9 C9         13.3890   47.7800   63.1570 C.ar      1 17L501      0.0000 
     10 C10        12.2220   47.3130   61.1080 C.ar      1 17L501      0.0000 
     11 C11        11.2690   46.5690   61.8280 C.ar      1 17L501      0.0000 
     12 C12        11.3990   46.4270   63.2110 C.ar      1 17L501      0.0000 
     13 C13        12.4710   47.0230   63.8680 C.ar      1 17L501      0.0000 
     14 O14        14.4510   48.6180   65.8340 O.2       1 17L501      0.0000 
     15 C15        15.8220   51.1170   66.0890 C.2       1 17L501      0.0000 
     16 C16        15.4400   50.5540   67.4340 C.3       1 17L501      0.0000 
     17 O17        16.4330   52.1720   66.0860 O.2       1 17L501      0.0000 
     18 O18        16.5610   52.2360   63.6080 O.co2     1 17L501      0.0000 
     19 C19        15.7590   47.4410   63.5400 C.3       1 17L501      0.0000 
     20 O20        12.5960   46.8760   65.2150 O.3       1 17L501      0.0000 
     21 C21        12.0890   47.4880   59.6540 C.2       1 17L501      0.0000 
     22 O22        13.0700   47.4860   58.9350 O.2       1 17L501      0.0000 
     23 N23        10.8440   47.6780   59.1660 N.am      1 17L501      0.0000 
     24 C24        10.5680   47.8600   57.7340 C.3       1 17L501      0.0000 
     25 C25         9.1140   48.2190   57.6390 C.ar      1 17L501      0.0000 
     26 C26         8.7910   49.5100   57.3350 C.ar      1 17L501      0.0000 
     27 C27         7.4560   49.9210   57.2420 C.ar      1 17L501      0.0000 
     28 C28         6.4340   49.0250   57.4540 C.ar      1 17L501      0.0000 
     29 C29         6.7280   47.6750   57.7630 C.ar      1 17L501      0.0000 
     30 C30         8.0920   47.2600   57.8600 C.ar      1 17L501      0.0000 
     31 C31         5.6990   46.7300   57.9810 C.ar      1 17L501      0.0000 
     32 C32         6.0110   45.4280   58.2790 C.ar      1 17L501      0.0000 
     33 C33         7.3440   45.0130   58.3710 C.ar      1 17L501      0.0000 
     34 C34         8.3670   45.9040   58.1700 C.ar      1 17L501      0.0000 
     35 O35        10.2340   45.9980   61.1570 O.3       1 17L501      0.0000 
     36 C36         9.2940   45.1660   61.8440 C.3       1 17L501      0.0000 
     37 O37         7.2330   51.2350   56.9360 O.3       1 17L501      0.0000 
     38 C38         5.9120   51.7020   56.6300 C.3       1 17L501      0.0000 
     39 C39         5.6680   51.5900   55.1220 C.3       1 17L501      0.0000 
     40 H          15.8235   51.1001   61.5338 H         1 17L501      0.0000 
     41 H          10.7063   45.8854   63.7382 H         1 17L501      0.0000 
     42 H          10.0096   47.7046   59.7922 H         1 17L501      0.0000 
     43 H          10.7482   46.9458   57.1917 H         1 17L501      0.0000 
     44 H          11.1631   48.6630   57.3300 H         1 17L501      0.0000 
     45 H           9.5389   50.2121   57.1668 H         1 17L501      0.0000 
     46 H           5.4516   49.3178   57.3922 H         1 17L501      0.0000 
     47 H           4.7199   47.0383   57.9117 H         1 17L501      0.0000 
     48 H           5.2590   44.7340   58.4401 H         1 17L501      0.0000 
     49 H           7.5468   44.0237   58.5930 H         1 17L501      0.0000 
     50 H           9.3515   45.6053   58.2403 H         1 17L501      0.0000 
     51 H           5.7772   52.7498   56.9134 H         1 17L501      0.0000 
     52 H           5.1454   51.1095   57.1375 H         1 17L501      0.0000 
     53 H          15.8530   49.6571   67.5921 H         1 17L501      0.0000 
     54 H          15.7343   51.1482   68.1825 H         1 17L501      0.0000 
     55 H          14.4503   50.4405   67.5216 H         1 17L501      0.0000 
     56 H          16.6721   47.8451   63.5944 H         1 17L501      0.0000 
     57 H          15.6558   46.8421   64.3341 H         1 17L501      0.0000 
     58 H          15.7448   46.8569   62.7285 H         1 17L501      0.0000 
     59 H           9.7360   44.3713   62.2600 H         1 17L501      0.0000 
     60 H           8.8280   45.6599   62.5781 H         1 17L501      0.0000 
     61 H           8.5861   44.8190   61.2288 H         1 17L501      0.0000 
     62 H           6.3211   52.1371   54.5985 H         1 17L501      0.0000 
     63 H           5.7523   50.6466   54.8012 H         1 17L501      0.0000 
     64 H           4.7531   51.9048   54.8694 H         1 17L501      0.0000 
     65 H          13.5371   47.1461   65.4185 H         1 17L501      0.0000 
@<TRIPOS>BOND
     1    2    1 2    
     2    6    1 1    
     3   15    1 1    
     4    3    2 1    
     5   18    2 ar   
     6    4    3 2    
     7   40    3 1    
     8    5    4 1    
     9    7    4 1    
    10    6    5 1    
    11    9    5 1    
    12   19    5 1    
    13   14    6 2    
    14    8    7 1    
    15    9    8 ar   
    16   10    8 ar   
    17   13    9 ar   
    18   11   10 ar   
    19   21   10 1    
    20   12   11 ar   
    21   35   11 1    
    22   13   12 ar   
    23   41   12 1    
    24   20   13 1    
    25   16   15 1    
    26   17   15 2    
    27   53   16 1    
    28   54   16 1    
    29   55   16 1    
    30   56   19 1    
    31   57   19 1    
    32   58   19 1    
    33   65   20 1    
    34   22   21 2    
    35   23   21 am   
    36   24   23 1    
    37   42   23 1    
    38   25   24 1    
    39   43   24 1    
    40   44   24 1    
    41   26   25 ar   
    42   30   25 ar   
    43   27   26 ar   
    44   45   26 1    
    45   28   27 ar   
    46   37   27 1    
    47   29   28 ar   
    48   46   28 1    
    49   30   29 ar   
    50   31   29 ar   
    51   34   30 ar   
    52   32   31 ar   
    53   47   31 1    
    54   33   32 ar   
    55   48   32 1    
    56   34   33 ar   
    57   49   33 1    
    58   50   34 1    
    59   36   35 1    
    60   59   36 1    
    61   60   36 1    
    62   61   36 1    
    63   38   37 1    
    64   39   38 1    
    65   51   38 1    
    66   52   38 1    
    67   62   39 1    
    68   63   39 1    
    69   64   39 1    
@<TRIPOS>SUBSTRUCTURE
     1 17L501      1 GROUP   
@<TRIPOS>SET

