#    Name: 3b6a_ZCT_2_INTS_M
#    Modification time : Mon Mar 24 18:55:17 2014

@<TRIPOS>MOLECULE
3b6a_ZCT_2_INTS_M
   54     0     3     0     0
SMALL
NO_CHARGES


@<TRIPOS>ATOM
      1 CA         29.9320    7.0510  -71.7965 C.3       1 GLC5        0.0000 
      2 CA         28.7170    5.5250  -72.8510 C.3       3 GLL5        0.0000 
      3 CA         31.1470    8.5770  -70.7420 C.3       2 GLP5        0.0000 
      4 CA         23.5815    4.3480  -70.9170 C.3       1 GLC5        0.0000 
      5 CA         24.8150    3.7250  -71.9710 C.3       3 GLL5        0.0000 
      6 CA         22.3480    4.9710  -69.8630 C.3       2 GLP5        0.0000 
      7 CA         23.1385    3.7420  -73.2120 C.3       1 GLC5        0.0000 
      8 CA         21.4620    3.7590  -74.4530 C.3       2 GLP5        0.0000 
      9 CA         24.8360    2.4020  -68.1350 C.3       1 GLC5        0.0000 
     10 CA         26.3750    0.9320  -68.5160 C.3       3 GLL5        0.0000 
     11 CA         23.2970    3.8720  -67.7540 C.3       2 GLP5        0.0000 
     12 CA         25.8870   -2.2195  -68.7045 C.3       1 GLC5        0.0000 
     13 CA         25.7190   -0.1680  -67.9170 C.3       3 GLL5        0.0000 
     14 CA         26.0550   -4.2710  -69.4920 C.3       2 GLP5        0.0000 
     15 CA         18.6205   -2.4150  -60.6065 C.3       1 GLC5        0.0000 
     16 CA         19.6270   -3.1340  -62.2720 C.3       3 GLL5        0.0000 
     17 CA         17.6140   -1.6960  -58.9410 C.3       2 GLP5        0.0000 
     18 CA         17.7335   -3.2695  -63.3935 C.3       1 GLC5        0.0000 
     19 CA         15.8400   -3.4050  -64.5150 C.3       2 GLP5        0.0000 
     20 CA         21.2370   -7.9820  -59.1185 C.3       1 GLC5        0.0000 
     21 CA         20.8420   -6.3450  -59.7500 C.3       3 GLL5        0.0000 
     22 CA         21.6320   -9.6190  -58.4870 C.3       2 GLP5        0.0000 
     23 CA         29.8875    4.4223  -71.3038 C.3       1 GLC5        0.0000 
     24 CA         27.6910    4.8760  -71.9180 C.3       3 GLL5        0.0000 
     25 CA         31.5710    3.6440  -70.2230 C.3       2 GLP5        0.0000 
     26 CA         24.1980    1.7953  -72.2353 C.3       1 GLC5        0.0000 
     27 CA         26.1550    2.9780  -71.9700 C.3       3 GLL5        0.0000 
     28 CA         22.9110    0.2390  -72.5000 C.3       2 GLP5        0.0000 
     29 CA         27.4603    1.8858  -72.1347 C.3       1 GLC5        0.0000 
     30 CA         28.5480    1.0060  -72.9910 C.3       2 GLP5        0.0000 
     31 CA         29.7928    3.7555  -70.2272 C.3       1 GLC5        0.0000 
     32 CA         27.6820    3.2750  -69.8800 C.3       3 GLL5        0.0000 
     33 CA         27.6188    5.4801  -69.4686 C.3       1 GLC5        0.0000 
     34 CA         28.3470    4.4590  -70.5830 C.3       3 GLL5        0.0000 
     35 CA         27.3870    6.9890  -68.3720 C.3       2 GLP5        0.0000 
     36 CA         28.1992    2.4886  -71.7781 C.3       1 GLC5        0.0000 
     37 CA         27.5745    1.9670  -64.8330 C.3       1 GLC5        0.0000 
     38 CA         27.7680    1.1560  -66.5340 C.3       3 GLL5        0.0000 
     39 CA         27.7120    3.3240  -63.4110 C.3       2 GLP5        0.0000 
     40 CA         24.0678   -1.3590  -67.3870 C.3       1 GLC5        0.0000 
     41 CA         26.0880   -0.5980  -66.6670 C.3       3 GLL5        0.0000 
     42 CA         22.2320   -2.3350  -67.4820 C.3       2 GLP5        0.0000 
     43 CA         23.5853   -1.9763  -66.5108 C.3       1 GLC5        0.0000 
     44 CA         25.4350   -1.7530  -66.0040 C.3       3 GLL5        0.0000 
     45 CA         25.7527   -1.9957  -63.8212 C.3       1 GLC5        0.0000 
     46 CA         26.5670   -2.3740  -62.1030 C.3       2 GLP5        0.0000 
     47 CA         23.1258   -2.7843  -66.0053 C.3       1 GLC5        0.0000 
     48 CA         23.8250   -2.5610  -64.3970 C.3       3 GLL5        0.0000 
     49 CA         25.2933   -2.8037  -63.3158 C.3       1 GLC5        0.0000 
     50 CA         23.8843   -2.9730  -66.7125 C.3       1 GLC5        0.0000 
     51 CA         25.2350   -4.1540  -65.6140 C.3       3 GLL5        0.0000 
     52 CA         26.0517   -2.9925  -64.0230 C.3       1 GLC5        0.0000 
     53 CA         25.8380   -3.0680  -66.2720 C.3       3 GLL5        0.0000 
     54 CA         25.7454   -3.7766  -67.6840 C.3       1 GLC5        0.0000 
@<TRIPOS>BOND
@<TRIPOS>SUBSTRUCTURE
     1 GLC5        1 GROUP        1 X    GLC  0     ROOT GLC X 6
     2 GLP5        3 GROUP        1 Y    GLP  0     ROOT GLP Y 13
     3 GLL5        2 GROUP        1 Z    GLL  0     ROOT GLL Z 20
@<TRIPOS>SET

