#    Name: 3b6a_ZCT_2_ligand
#    Modification time : Mon Mar 24 18:55:17 2014

@<TRIPOS>MOLECULE
3b6a_ZCT_2_ligand
   66    71     1     0     0
SMALL
NO_CHARGES


@<TRIPOS>ATOM
      1 O1         26.8360    6.2260  -74.1660 O.co2     1 ZCT1        0.0000 
      2 C1         28.0820    6.2030  -74.0440 C.2       1 ZCT1        0.0000 
      3 O2         28.8530    6.7230  -74.8740 O.co2     1 ZCT1        0.0000 
      4 C2         28.7170    5.5250  -72.8510 C.3       1 ZCT1        0.0000 
      5 C3         27.6910    4.8760  -71.9180 C.3       1 ZCT1        0.0000 
      6 O3         27.1480    3.7710  -72.6530 O.3       1 ZCT1        0.0000 
      7 C15        26.1550    2.9780  -71.9700 C.3       1 ZCT1        0.0000 
      8 C16        24.8150    3.7250  -71.9710 C.3       1 ZCT1        0.0000 
      9 C4         28.3470    4.4590  -70.5830 C.3       1 ZCT1        0.0000 
     10 C5         27.6820    3.2750  -69.8800 C.2       1 ZCT1        0.0000 
     11 C6         28.0850    2.8040  -68.5000 C.2       1 ZCT1        0.0000 
     12 O4         29.0000    3.4100  -67.8920 O.2       1 ZCT1        0.0000 
     13 C7         27.4110    1.6150  -67.8320 C.ar      1 ZCT1        0.0000 
     14 C8         27.7680    1.1560  -66.5340 C.ar      1 ZCT1        0.0000 
     15 O5         28.7510    1.7280  -65.7790 O.co2     1 ZCT1        0.0000 
     16 C9         27.1060    0.0640  -65.9760 C.ar      1 ZCT1        0.0000 
     17 C14        26.5900    2.5530  -70.5870 C.2       1 ZCT1        0.0000 
     18 C13        25.9550    1.3720  -69.8950 C.2       1 ZCT1        0.0000 
     19 O7         25.0360    0.7300  -70.4620 O.2       1 ZCT1        0.0000 
     20 C12        26.3750    0.9320  -68.5160 C.ar      1 ZCT1        0.0000 
     21 C11        25.7190   -0.1680  -67.9170 C.ar      1 ZCT1        0.0000 
     22 O6         24.7240   -0.8520  -68.5410 O.co2     1 ZCT1        0.0000 
     23 C10        26.0880   -0.5980  -66.6670 C.ar      1 ZCT1        0.0000 
     24 C26        25.4350   -1.7530  -66.0040 C.ar      1 ZCT1        0.0000 
     25 C27        24.4420   -1.4820  -65.0750 C.ar      1 ZCT1        0.0000 
     26 O13        24.0890   -0.1630  -64.8470 O.co2     1 ZCT1        0.0000 
     27 C28        23.8250   -2.5610  -64.3970 C.ar      1 ZCT1        0.0000 
     28 C29        22.7500   -2.2560  -63.3860 C.2       1 ZCT1        0.0000 
     29 O14        22.4260   -1.0520  -63.1670 O.2       1 ZCT1        0.0000 
     30 C25        25.8380   -3.0680  -66.2720 C.ar      1 ZCT1        0.0000 
     31 C24        25.2350   -4.1540  -65.6140 C.ar      1 ZCT1        0.0000 
     32 O12        25.6610   -5.4280  -65.9140 O.co2     1 ZCT1        0.0000 
     33 C23        24.2140   -3.9060  -64.6600 C.ar      1 ZCT1        0.0000 
     34 C22        23.5430   -5.0560  -63.9300 C.2       1 ZCT1        0.0000 
     35 O11        23.8910   -6.2350  -64.1730 O.2       1 ZCT1        0.0000 
     36 C21        22.4600   -4.8060  -62.9180 C.2       1 ZCT1        0.0000 
     37 C30        22.0760   -3.3840  -62.6570 C.2       1 ZCT1        0.0000 
     38 C31        21.0220   -3.1160  -61.6520 C.3       1 ZCT1        0.0000 
     39 C32        19.6270   -3.1340  -62.2720 C.3       1 ZCT1        0.0000 
     40 O10        21.1310   -4.1050  -60.6230 O.3       1 ZCT1        0.0000 
     41 C20        21.7600   -5.9450  -62.1500 C.3       1 ZCT1        0.0000 
     42 C19        20.8120   -5.4570  -61.0160 C.3       1 ZCT1        0.0000 
     43 C18        20.8420   -6.3450  -59.7500 C.3       1 ZCT1        0.0000 
     44 C17        20.3610   -5.6530  -58.4610 C.2       1 ZCT1        0.0000 
     45 O9         19.3320   -6.0930  -57.8920 O.co2     1 ZCT1        0.0000 
     46 O8         20.9970   -4.6810  -57.9730 O.co2     1 ZCT1        0.0000 
     47 H          29.2985    6.2610  -72.2780 H         1 ZCT1        0.0000 
     48 H          29.4163    4.7515  -73.1986 H         1 ZCT1        0.0000 
     49 H          26.9301    5.6156  -71.7161 H         1 ZCT1        0.0000 
     50 H          25.9814    2.0464  -72.5627 H         1 ZCT1        0.0000 
     51 H          28.3419    5.3305  -69.9041 H         1 ZCT1        0.0000 
     52 H          29.4070    4.2146  -70.7760 H         1 ZCT1        0.0000 
     53 H          27.3727   -0.2645  -65.0306 H         1 ZCT1        0.0000 
     54 H          26.5848   -3.2430  -66.9590 H         1 ZCT1        0.0000 
     55 H          21.1878   -2.1245  -61.2306 H         1 ZCT1        0.0000 
     56 H          22.5222   -6.6006  -61.7081 H         1 ZCT1        0.0000 
     57 H          21.1747   -6.5475  -62.8575 H         1 ZCT1        0.0000 
     58 H          19.7875   -5.4892  -61.4066 H         1 ZCT1        0.0000 
     59 H          21.8738   -6.7044  -59.5974 H         1 ZCT1        0.0000 
     60 H          20.2165   -7.2356  -59.9307 H         1 ZCT1        0.0000 
     61 H          24.8828    4.6099  -71.5102 H         1 ZCT1        0.0000 
     62 H          24.4893    3.9023  -72.8997 H         1 ZCT1        0.0000 
     63 H          24.0997    3.2053  -71.5038 H         1 ZCT1        0.0000 
     64 H          19.5307   -2.4444  -62.9898 H         1 ZCT1        0.0000 
     65 H          19.4160   -4.0195  -62.6860 H         1 ZCT1        0.0000 
     66 H          18.9163   -2.9513  -61.5927 H         1 ZCT1        0.0000 
@<TRIPOS>BOND
     1    2    1 ar   
     2    3    2 ar   
     3    4    2 1    
     4    5    4 1    
     5   47    4 1    
     6   48    4 1    
     7    6    5 1    
     8    9    5 1    
     9   49    5 1    
    10    7    6 1    
    11    8    7 1    
    12   17    7 1    
    13   50    7 1    
    14   61    8 1    
    15   62    8 1    
    16   63    8 1    
    17   10    9 1    
    18   51    9 1    
    19   52    9 1    
    20   11   10 1    
    21   17   10 2    
    22   12   11 2    
    23   13   11 1    
    24   14   13 ar   
    25   20   13 ar   
    26   15   14 1    
    27   16   14 ar   
    28   23   16 ar   
    29   53   16 1    
    30   18   17 1    
    31   19   18 2    
    32   20   18 1    
    33   21   20 ar   
    34   22   21 1    
    35   23   21 ar   
    36   24   23 1    
    37   25   24 ar   
    38   30   24 ar   
    39   26   25 1    
    40   27   25 ar   
    41   28   27 1    
    42   33   27 ar   
    43   29   28 2    
    44   37   28 1    
    45   31   30 ar   
    46   54   30 1    
    47   32   31 1    
    48   33   31 ar   
    49   34   33 1    
    50   35   34 2    
    51   36   34 1    
    52   37   36 2    
    53   41   36 1    
    54   38   37 1    
    55   39   38 1    
    56   40   38 1    
    57   55   38 1    
    58   64   39 1    
    59   65   39 1    
    60   66   39 1    
    61   42   40 1    
    62   42   41 1    
    63   56   41 1    
    64   57   41 1    
    65   43   42 1    
    66   58   42 1    
    67   44   43 1    
    68   59   43 1    
    69   60   43 1    
    70   45   44 ar   
    71   46   44 ar   
@<TRIPOS>SUBSTRUCTURE
     1 ZCT1        1 GROUP   
@<TRIPOS>SET

