#    Name: 2abj_CBC_5_INTS_M
#    Modification time : Mon Mar 24 18:58:14 2014

@<TRIPOS>MOLECULE
2abj_CBC_5_INTS_M
   59     0     9     0     0
SMALL
NO_CHARGES


@<TRIPOS>ATOM
      1 CA         89.6845   52.6890  113.4660 C.3       3 GLC5        0.0000 
      2 CA         87.9850   52.9240  113.9780 C.3       9 GLL5        0.0000 
      3 CA         91.3840   52.4540  112.9540 C.3       6 GLP5        0.0000 
      4 CA         84.9295   54.8075  111.9165 C.3       3 GLC5        0.0000 
      5 CA         86.5910   54.3980  113.2840 C.3       9 GLL5        0.0000 
      6 CA         83.2680   55.2170  110.5490 C.3       6 GLP5        0.0000 
      7 CA         87.5935   55.5790  113.6150 C.3       3 GLC5        0.0000 
      8 CA         88.5960   56.7600  113.9460 C.3       6 GLP5        0.0000 
      9 CA         83.1155   51.9215  111.4535 C.3       3 GLC5        0.0000 
     10 CA         84.9560   51.8490  110.8150 C.3       9 GLL5        0.0000 
     11 CA         81.2750   51.9940  112.0920 C.3       6 GLP5        0.0000 
     12 CA         86.4050   48.5970  111.2035 C.3       3 GLC5        0.0000 
     13 CA         85.1500   50.0320  112.3730 C.3       9 GLL5        0.0000 
     14 CA         87.6600   47.1620  110.0340 C.3       6 GLP5        0.0000 
     15 N          87.9130   50.6755  116.8715 N.am      2 SEC2        0.0000 
     16 N          87.2210   50.7420  115.4570 N.am      8 SEL2        0.0000 
     17 N          88.6050   50.6090  118.2860 N.am      5 SEP2        0.0000 
     18 O          83.3070   51.4985  115.2145 O.2       1 ALC1        0.0000 
     19 O          84.3170   51.0900  116.1430 O.2       7 ALL1        0.0000 
     20 O          82.2970   51.9070  114.2860 O.2       4 ALP1        0.0000 
     21 N          86.9170   50.6800  118.2315 N.am      2 SEC2        0.0000 
     22 N          85.2290   50.7510  118.1770 N.am      8 SEL2        0.0000 
     23 CA         82.7780   51.0245  118.1680 C.3       3 GLC5        0.0000 
     24 CA         83.7100   52.5320  117.9760 C.3       9 GLL5        0.0000 
     25 CA         81.8460   49.5170  118.3600 C.3       6 GLP5        0.0000 
     26 CA         85.7925   52.7380  117.9865 C.3       3 GLC5        0.0000 
     27 CA         87.8750   52.9440  117.9970 C.3       6 GLP5        0.0000 
     28 CA         84.0925   51.7425  119.9600 C.3       3 GLC5        0.0000 
     29 CA         84.4750   50.9530  121.9440 C.3       6 GLP5        0.0000 
     30 CA         83.7450   52.4045  120.7930 C.3       3 GLC5        0.0000 
     31 CA         83.0150   53.8560  119.6420 C.3       9 GLL5        0.0000 
     32 CA         84.2215   53.3545  121.6145 C.3       3 GLC5        0.0000 
     33 CA         82.8200   54.4610  120.8760 C.3       9 GLL5        0.0000 
     34 CA         85.6230   52.2480  122.3530 C.3       6 GLP5        0.0000 
     35 CA         79.9440   55.6625  121.9035 C.3       3 GLC5        0.0000 
     36 CA         81.9300   55.5340  120.9210 C.3       9 GLL5        0.0000 
     37 CA         77.9580   55.7910  122.8860 C.3       6 GLP5        0.0000 
     38 CA         79.0460   56.5610  121.3645 C.3       3 GLC5        0.0000 
     39 CA         80.1340   57.3310  119.8430 C.3       9 GLL5        0.0000 
     40 CA         78.2900   57.9015  120.2690 C.3       3 GLC5        0.0000 
     41 CA         76.4460   58.4720  120.6950 C.3       6 GLP5        0.0000 
     42 CA         78.9085   56.0915  118.9925 C.3       3 GLC5        0.0000 
     43 CA         77.6830   54.8520  118.1420 C.3       6 GLP5        0.0000 
     44 CA         88.0823   54.4240  114.3388 C.3       3 GLC5        0.0000 
     45 CA         86.1280   53.2730  115.0630 C.3       9 GLL5        0.0000 
     46 CA         89.4300   55.6780  114.1850 C.3       6 GLP5        0.0000 
     47 CA         87.3047   53.0570  116.2447 C.3       3 GLC5        0.0000 
     48 CA         84.2722   53.7350  110.9147 C.3       3 GLC5        0.0000 
     49 CA         85.5970   52.6570  111.7460 C.3       9 GLL5        0.0000 
     50 CA         81.5353   52.8342  119.8005 C.3       3 GLC5        0.0000 
     51 CA         80.1530   51.5100  119.3420 C.3       6 GLP5        0.0000 
     52 CA         79.5355   55.2465  118.6432 C.3       3 GLC5        0.0000 
     53 CA         81.4970   55.3240  118.5310 C.3       9 GLL5        0.0000 
     54 CA         81.0991   53.0460  118.7886 C.3       3 GLC5        0.0000 
     55 CA         81.3720   53.9902  122.2463 C.3       3 GLC5        0.0000 
     56 CA         80.3690   52.9830  123.5940 C.3       6 GLP5        0.0000 
     57 CA         83.5846   51.0228  112.7562 C.3       3 GLC5        0.0000 
     58 CA         85.8020   50.8270  113.3210 C.3       9 GLL5        0.0000 
     59 CA         81.7960   51.0960  113.2130 C.3       6 GLP5        0.0000 
@<TRIPOS>BOND
@<TRIPOS>SUBSTRUCTURE
     1 ALC1       18 GROUP        1 X    ALC  0     ROOT ALC X 1
     2 SEC2       15 GROUP        1 X    SEC  0     **** SEC X 2
     3 GLC5        1 GROUP        1 X    GLC  0     **** GLC X 6
     4 ALP1       20 GROUP        1 Y    ALP  0     ROOT ALP Y 8
     5 SEP2       17 GROUP        1 Y    SEP  0     **** SEP Y 9
     6 GLP5        3 GROUP        1 Y    GLP  0     **** GLP Y 13
     7 ALL1       19 GROUP        1 Z    ALL  0     ROOT ALL Z 15
     8 SEL2       16 GROUP        1 Z    SEL  0     **** SEL Z 16
     9 GLL5        2 GROUP        1 Z    GLL  0     **** GLL Z 20
@<TRIPOS>SET

