#    Name: 2abj_CBC_5_ligand
#    Modification time : Mon Mar 24 18:58:15 2014

@<TRIPOS>MOLECULE
2abj_CBC_5_ligand
   37    39     1     0     0
SMALL
NO_CHARGES


@<TRIPOS>ATOM
      1 F49        87.9850   52.9240  113.9780 F         1 CBC4401     0.0000 
      2 C46        86.6970   53.2100  113.8660 C.3       1 CBC4401     0.0000 
      3 F50        86.1280   53.2730  115.0630 F         1 CBC4401     0.0000 
      4 F51        86.5910   54.3980  113.2840 F         1 CBC4401     0.0000 
      5 C41        86.0170   52.1800  112.9930 C.ar      1 CBC4401     0.0000 
      6 C42        85.5970   52.6570  111.7460 C.ar      1 CBC4401     0.0000 
      7 C43        84.9560   51.8490  110.8150 C.ar      1 CBC4401     0.0000 
      8 C44        84.7340   50.5210  111.1340 C.ar      1 CBC4401     0.0000 
      9 C45        85.1500   50.0320  112.3730 C.ar      1 CBC4401     0.0000 
     10 C40        85.8020   50.8270  113.3210 C.ar      1 CBC4401     0.0000 
     11 S1         86.1990   50.0690  114.7010 S.o2      1 CBC4401     0.0000 
     12 O38        86.6480   48.7430  114.4140 O.2       1 CBC4401     0.0000 
     13 O39        87.2210   50.7420  115.4570 O.2       1 CBC4401     0.0000 
     14 N33        84.8570   49.9320  115.5770 N.pl3     1 CBC4401     0.0000 
     15 N32        84.3170   51.0900  116.1430 N.am      1 CBC4401     0.0000 
     16 C39        84.4990   51.3900  117.4330 C.2       1 CBC4401     0.0000 
     17 O37        85.2290   50.7510  118.1770 O.2       1 CBC4401     0.0000 
     18 C54        83.7100   52.5320  117.9760 C.2       1 CBC4401     0.0000 
     19 C53        82.8010   53.4250  117.3890 C.2       1 CBC4401     0.0000 
     20 O40        83.8540   52.7700  119.3280 O.3       1 CBC4401     0.0000 
     21 C51        83.0150   53.8560  119.6420 C.ar      1 CBC4401     0.0000 
     22 C50        82.3860   54.2550  118.4900 C.ar      1 CBC4401     0.0000 
     23 C49        81.4970   55.3240  118.5310 C.ar      1 CBC4401     0.0000 
     24 C52        82.8200   54.4610  120.8760 C.ar      1 CBC4401     0.0000 
     25 C47        81.9300   55.5340  120.9210 C.ar      1 CBC4401     0.0000 
     26 C48        81.2790   55.9580  119.7580 C.ar      1 CBC4401     0.0000 
     27 CL1        80.1340   57.3310  119.8430 Cl        1 CBC4401     0.0000 
     28 H          85.7741   53.6592  111.5103 H         1 CBC4401     0.0000 
     29 H          84.6569   52.2287  109.9175 H         1 CBC4401     0.0000 
     30 H          84.2674   49.8961  110.4681 H         1 CBC4401     0.0000 
     31 H          84.9670   49.0284  112.6037 H         1 CBC4401     0.0000 
     32 H          84.5011   49.0205  115.6553 H         1 CBC4401     0.0000 
     33 H          83.7602   51.7214  115.5196 H         1 CBC4401     0.0000 
     34 H          82.5262   53.4842  116.5283 H         1 CBC4401     0.0000 
     35 H          81.0172   55.6383  117.6936 H         1 CBC4401     0.0000 
     36 H          83.2978   54.1421  121.7030 H         1 CBC4401     0.0000 
     37 H          81.7508   56.0159  121.8110 H         1 CBC4401     0.0000 
@<TRIPOS>BOND
     1    2    1 1    
     2    3    2 1    
     3    4    2 1    
     4    5    2 1    
     5    6    5 ar   
     6   10    5 ar   
     7    7    6 ar   
     8   28    6 1    
     9    8    7 ar   
    10   29    7 1    
    11    9    8 ar   
    12   30    8 1    
    13   10    9 ar   
    14   31    9 1    
    15   11   10 1    
    16   12   11 2    
    17   13   11 2    
    18   14   11 1    
    19   15   14 1    
    20   32   14 1    
    21   16   15 am   
    22   33   15 1    
    23   17   16 2    
    24   18   16 1    
    25   19   18 2    
    26   20   18 1    
    27   22   19 1    
    28   34   19 1    
    29   21   20 1    
    30   22   21 ar   
    31   24   21 ar   
    32   23   22 ar   
    33   26   23 ar   
    34   35   23 1    
    35   25   24 ar   
    36   36   24 1    
    37   26   25 ar   
    38   37   25 1    
    39   27   26 1    
@<TRIPOS>SUBSTRUCTURE
     1 CBC4401     1 GROUP   
@<TRIPOS>SET

