#    Name: 3of1_CMP_2_INTS_M
#    Modification time : Tue Mar 25 04:29:22 2014

@<TRIPOS>MOLECULE
3of1_CMP_2_INTS_M
   59     0    12     0     0
SMALL
NO_CHARGES


@<TRIPOS>ATOM
      1 NZ        -28.6355   17.6370   -8.3865 N.4       3 LYC4        0.0000 
      2 NZ        -27.9600   18.8400   -8.2440 N.4      11 LYL4        0.0000 
      3 NZ        -29.2440   15.3020   -7.8410 N.4       7 LYP4        0.0000 
      4 N         -27.3495   19.1755   -9.6215 N.am      2 SEC2        0.0000 
      5 N         -27.9600   18.8400   -8.2440 N.am     10 SEL2        0.0000 
      6 N         -26.7390   19.5110  -10.9990 N.am      6 SEP2        0.0000 
      7 N         -28.6355   17.6370   -8.3865 N.am      2 SEC2        0.0000 
      8 N         -29.3110   16.4340   -8.5290 N.am      6 SEP2        0.0000 
      9 N         -25.0050   20.0545   -6.5940 N.am      2 SEC2        0.0000 
     10 N         -26.2630   20.4630   -7.2330 N.am     10 SEL2        0.0000 
     11 N         -23.7470   19.6460   -5.9550 N.am      6 SEP2        0.0000 
     12 CA        -26.7265   20.9820   -3.1870 C.3       4 GLC5        0.0000 
     13 CA        -28.0280   20.0140   -4.5900 C.3      12 GLL5        0.0000 
     14 CA        -25.4250   21.9500   -1.7840 C.3       8 GLP5        0.0000 
     15 CA        -31.1425   21.2095   -4.8200 C.3       4 GLC5        0.0000 
     16 CA        -28.9740   21.1490   -4.9310 C.3      12 GLL5        0.0000 
     17 CA        -33.3110   21.2700   -4.7090 C.3       8 GLP5        0.0000 
     18 N         -30.3420   20.6320   -7.2775 N.am      2 SEC2        0.0000 
     19 N         -28.6590   21.0920   -7.3040 N.am     10 SEL2        0.0000 
     20 N         -32.0250   20.1720   -7.2510 N.am      6 SEP2        0.0000 
     21 N         -28.7520   21.2560   -8.9965 N.am      2 SEC2        0.0000 
     22 N         -28.8450   21.4200  -10.6890 N.am      6 SEP2        0.0000 
     23 N         -31.4240   21.4075   -6.9890 N.am      2 SEC2        0.0000 
     24 N         -30.8230   22.6430   -6.7270 N.am     10 SEL2        0.0000 
     25 O         -31.2680   22.7395   -7.8500 O.2       1 ALC1        0.0000 
     26 O         -30.8230   22.6430   -6.7270 O.2       9 ALL1        0.0000 
     27 O         -31.7130   22.8360   -8.9730 O.2       5 ALP1        0.0000 
     28 CA        -29.0985   23.4835   -2.5255 C.3       4 GLC5        0.0000 
     29 CA        -29.8740   23.1880   -4.5420 C.3      12 GLL5        0.0000 
     30 CA        -28.3230   23.7790   -0.5090 C.3       8 GLP5        0.0000 
     31 N         -30.3130   27.3985   -2.5265 N.am      2 SEC2        0.0000 
     32 N         -29.2070   26.5590   -3.3790 N.am     10 SEL2        0.0000 
     33 N         -31.4190   28.2380   -1.6740 N.am      6 SEP2        0.0000 
     34 CA        -26.7265   27.5175   -5.3870 C.3       4 GLC5        0.0000 
     35 CA        -26.6380   26.8210   -3.6450 C.3      12 GLL5        0.0000 
     36 CA        -26.8150   28.2140   -7.1290 C.3       8 GLP5        0.0000 
     37 CA        -24.4345   23.4280   -5.3175 C.3       4 GLC5        0.0000 
     38 CA        -25.6820   24.7980   -4.4520 C.3      12 GLL5        0.0000 
     39 CA        -23.1870   22.0580   -6.1830 C.3       8 GLP5        0.0000 
     40 CA        -25.5535   23.3740   -3.1180 C.3       4 GLC5        0.0000 
     41 CA        -26.7510   25.9250   -5.9380 C.3       4 GLC5        0.0000 
     42 CA        -27.8200   27.0520   -7.4240 C.3       8 GLP5        0.0000 
     43 CA        -29.3190   18.7668   -4.5712 C.3       4 GLC5        0.0000 
     44 CA        -30.1370   16.9520   -4.3820 C.3       8 GLP5        0.0000 
     45 CA        -29.4880   20.0278   -3.1143 C.3       4 GLC5        0.0000 
     46 CA        -30.4750   19.4740   -1.4680 C.3       8 GLP5        0.0000 
     47 CA        -30.0610   20.3325   -6.7237 C.3       4 GLC5        0.0000 
     48 CA        -31.3590   19.0920   -7.8900 C.3       8 GLP5        0.0000 
     49 CA        -28.1972   23.2097   -7.7700 C.3       4 GLC5        0.0000 
     50 CA        -28.5520   21.9970   -6.1840 C.3      12 GLL5        0.0000 
     51 CA        -27.3040   23.8800   -9.4130 C.3       8 GLP5        0.0000 
     52 CA        -31.5312   22.2025   -5.0075 C.3       4 GLC5        0.0000 
     53 CA        -29.6290   23.0820   -6.0700 C.3      12 GLL5        0.0000 
     54 CA        -28.1628   24.6313   -2.2098 C.3       4 GLC5        0.0000 
     55 CA        -28.0470   24.7940   -4.1620 C.3      12 GLL5        0.0000 
     56 CA        -26.2730   26.5125   -1.9680 C.3       4 GLC5        0.0000 
     57 CA        -27.9580   26.1730   -3.6590 C.3      12 GLL5        0.0000 
     58 CA        -25.2480   26.5280   -0.2840 C.3       8 GLP5        0.0000 
     59 CA        -27.9113   26.2677   -5.6673 C.3       4 GLC5        0.0000 
@<TRIPOS>BOND
@<TRIPOS>SUBSTRUCTURE
     1 ALC1       25 GROUP        1 X    ALC  0     ROOT ALC X 1
     2 SEC2        4 GROUP        1 X    SEC  0     **** SEC X 2
     3 LYC4        1 GROUP        1 X    LYC  0     **** LYC X 4
     4 GLC5       12 GROUP        1 X    GLC  0     **** GLC X 6
     5 ALP1       27 GROUP        1 Y    ALP  0     ROOT ALP Y 8
     6 SEP2        6 GROUP        1 Y    SEP  0     **** SEP Y 9
     7 LYP4        3 GROUP        1 Y    LYP  0     **** LYP Y 11
     8 GLP5       14 GROUP        1 Y    GLP  0     **** GLP Y 13
     9 ALL1       26 GROUP        1 Z    ALL  0     ROOT ALL Z 15
    10 SEL2        5 GROUP        1 Z    SEL  0     **** SEL Z 16
    11 LYL4        2 GROUP        1 Z    LYL  0     **** LYL Z 18
    12 GLL5       13 GROUP        1 Z    GLL  0     **** GLL Z 20
@<TRIPOS>SET

