#    Name: 3of1_CMP_2_ligand
#    Modification time : Tue Mar 25 04:29:22 2014

@<TRIPOS>MOLECULE
3of1_CMP_2_ligand
   33    36     1     0     0
SMALL
NO_CHARGES


@<TRIPOS>ATOM
      1 P         -27.6320   19.8620   -7.1670 P.3       1 CMP601      0.0000 
      2 O1P       -27.9600   18.8400   -8.2440 O.co2     1 CMP601      0.0000 
      3 O2P       -26.2630   20.4630   -7.2330 O.co2     1 CMP601      0.0000 
      4 O5'       -27.8480   19.2110   -5.7650 O.3       1 CMP601      0.0000 
      5 C5'       -28.0280   20.0140   -4.5900 C.3       1 CMP601      0.0000 
      6 C4'       -28.9740   21.1490   -4.9310 C.3       1 CMP601      0.0000 
      7 O4'       -29.1620   22.1070   -3.8720 O.3       1 CMP601      0.0000 
      8 C3'       -28.5520   21.9970   -6.1840 C.3       1 CMP601      0.0000 
      9 O3'       -28.6590   21.0920   -7.3040 O.3       1 CMP601      0.0000 
     10 C2'       -29.6290   23.0820   -6.0700 C.3       1 CMP601      0.0000 
     11 O2'       -30.8230   22.6430   -6.7270 O.3       1 CMP601      0.0000 
     12 C1'       -29.8740   23.1880   -4.5420 C.3       1 CMP601      0.0000 
     13 N9        -29.3280   24.4750   -4.0930 N.pl3     1 CMP601      0.0000 
     14 C8        -30.0640   25.5550   -3.6500 C.2       1 CMP601      0.0000 
     15 N7        -29.2070   26.5590   -3.3790 N.2       1 CMP601      0.0000 
     16 C5        -27.9580   26.1730   -3.6590 C.ar      1 CMP601      0.0000 
     17 C6        -26.6380   26.8210   -3.6450 C.ar      1 CMP601      0.0000 
     18 N6        -26.5580   28.1320   -3.1310 N.pl3     1 CMP601      0.0000 
     19 N1        -25.5610   26.0530   -4.0700 N.ar      1 CMP601      0.0000 
     20 C2        -25.6820   24.7980   -4.4520 C.ar      1 CMP601      0.0000 
     21 N3        -26.9180   24.1970   -4.5330 N.ar      1 CMP601      0.0000 
     22 C4        -28.0470   24.7940   -4.1620 C.ar      1 CMP601      0.0000 
     23 H         -27.0859   20.4445   -4.2497 H         1 CMP601      0.0000 
     24 H         -28.4646   19.4384   -3.7734 H         1 CMP601      0.0000 
     25 H         -29.9621   20.7220   -5.1977 H         1 CMP601      0.0000 
     26 H         -27.6226   22.3788   -5.9818 H         1 CMP601      0.0000 
     27 H         -29.2456   23.9861   -6.4131 H         1 CMP601      0.0000 
     28 H         -30.9163   23.1375   -4.3696 H         1 CMP601      0.0000 
     29 H         -31.0168   25.5695   -3.5579 H         1 CMP601      0.0000 
     30 H         -25.6509   28.5528   -3.1380 H         1 CMP601      0.0000 
     31 H         -27.4152   28.5292   -2.8033 H         1 CMP601      0.0000 
     32 H         -24.8388   24.2252   -4.7041 H         1 CMP601      0.0000 
     33 H         -30.7377   22.9739   -7.6668 H         1 CMP601      0.0000 
@<TRIPOS>BOND
     1    2    1 ar   
     2    3    1 ar   
     3    4    1 1    
     4    9    1 1    
     5    5    4 1    
     6    6    5 1    
     7   23    5 1    
     8   24    5 1    
     9    7    6 1    
    10    8    6 1    
    11   25    6 1    
    12   12    7 1    
    13    9    8 1    
    14   10    8 1    
    15   26    8 1    
    16   11   10 1    
    17   12   10 1    
    18   27   10 1    
    19   33   11 1    
    20   13   12 1    
    21   28   12 1    
    22   14   13 1    
    23   22   13 1    
    24   15   14 2    
    25   29   14 1    
    26   16   15 1    
    27   17   16 ar   
    28   22   16 ar   
    29   18   17 1    
    30   19   17 ar   
    31   30   18 1    
    32   31   18 1    
    33   20   19 ar   
    34   21   20 ar   
    35   32   20 1    
    36   22   21 ar   
@<TRIPOS>SUBSTRUCTURE
     1 CMP601      1 GROUP   
@<TRIPOS>SET

