#    Name: 3gfs_FMN_4_INTS_M
#    Modification time : Tue Mar 25 07:44:24 2014

@<TRIPOS>MOLECULE
3gfs_FMN_4_INTS_M
   74     0    12     0     0
SMALL
NO_CHARGES


@<TRIPOS>ATOM
      1 N           6.1150  -28.3055   17.7860 N.am      2 SEC2        0.0000 
      2 N           7.2200  -27.2480   17.3410 N.am     10 SEL2        0.0000 
      3 N           5.0100  -29.3630   18.2310 N.am      6 SEP2        0.0000 
      4 N           5.7195  -28.2990   18.8425 N.am      2 SEC2        0.0000 
      5 N           6.4290  -27.2350   19.4540 N.am     10 SEL2        0.0000 
      6 O           6.8870  -24.5350   19.7180 O.2       1 ALC1        0.0000 
      7 O           7.7450  -25.4880   18.8750 O.2       9 ALL1        0.0000 
      8 O           6.0290  -23.5820   20.5610 O.2       5 ALP1        0.0000 
      9 N           8.6490  -22.2960   18.2430 N.am      2 SEC2        0.0000 
     10 N           8.9570  -23.7360   18.1230 N.am     10 SEL2        0.0000 
     11 N           8.3410  -20.8560   18.3630 N.am      6 SEP2        0.0000 
     12 N           9.2545  -23.3115   15.7165 N.am      2 SEC2        0.0000 
     13 N           9.3810  -24.8200   15.6690 N.am     10 SEL2        0.0000 
     14 N           9.1280  -21.8030   15.7640 N.am      6 SEP2        0.0000 
     15 CA         10.7050  -22.6085   13.9820 C.3       4 GLC5        0.0000 
     16 CA          9.8120  -24.4960   13.3270 C.3      12 GLL5        0.0000 
     17 CA         11.5980  -20.7210   14.6370 C.3       8 GLP5        0.0000 
     18 CA          8.4605  -23.3425   12.4235 C.3       4 GLC5        0.0000 
     19 CA          9.7010  -24.9370   12.0130 C.3      12 GLL5        0.0000 
     20 CA          7.2200  -21.7480   12.8340 C.3       8 GLP5        0.0000 
     21 CA         10.0150  -24.3380    8.8500 C.3       4 GLC5        0.0000 
     22 CA         10.2830  -24.1210   10.8950 C.3      12 GLL5        0.0000 
     23 CA          9.7470  -24.5550    6.8050 C.3       8 GLP5        0.0000 
     24 CA          8.3825  -24.0945   11.5260 C.3       4 GLC5        0.0000 
     25 CA          6.4820  -24.0680   12.1570 C.3       8 GLP5        0.0000 
     26 CA          9.3390  -25.5835    8.5615 C.3       4 GLC5        0.0000 
     27 CA          8.9310  -26.6120   10.3180 C.3      12 GLL5        0.0000 
     28 CA          7.7055  -27.2580    8.5735 C.3       4 GLC5        0.0000 
     29 CA          6.4800  -27.9040    6.8290 C.3       8 GLP5        0.0000 
     30 CA          7.4340  -25.7855   10.7825 C.3       4 GLC5        0.0000 
     31 CA          5.9370  -24.9590   11.2470 C.3       8 GLP5        0.0000 
     32 CA          8.1090  -30.5925   15.2115 C.3       4 GLC5        0.0000 
     33 CA          7.4120  -28.5020   14.8240 C.3      12 GLL5        0.0000 
     34 CA          8.8060  -32.6830   15.5990 C.3       8 GLP5        0.0000 
     35 CA          2.8585  -31.4650   13.5755 C.3       4 GLC5        0.0000 
     36 CA          3.8340  -29.5020   13.8110 C.3      12 GLL5        0.0000 
     37 CA          1.8830  -33.4280   13.3400 C.3       8 GLP5        0.0000 
     38 N           4.0285  -31.9085   13.2515 N.am      2 SEC2        0.0000 
     39 N           3.3700  -30.6230   13.0930 N.am     10 SEL2        0.0000 
     40 N           4.6870  -33.1940   13.4100 N.am      6 SEP2        0.0000 
     41 CA          2.8305  -26.6650   12.8325 C.3       4 GLC5        0.0000 
     42 CA          3.2390  -28.2460   13.1820 C.3      12 GLL5        0.0000 
     43 CA          2.4220  -25.0840   12.4830 C.3       8 GLP5        0.0000 
     44 N           1.9345  -27.0200    9.3335 N.am      2 SEC2        0.0000 
     45 N           1.6710  -28.0100   10.6210 N.am     10 SEL2        0.0000 
     46 N           2.1980  -26.0300    8.0460 N.am      6 SEP2        0.0000 
     47 N           0.3285  -28.6940   10.7025 N.am      2 SEC2        0.0000 
     48 N          -1.0140  -29.3780   10.7840 N.am      6 SEP2        0.0000 
     49 N           0.6515  -27.4630   11.2995 N.am      2 SEC2        0.0000 
     50 N          -0.3680  -26.9160   11.9780 N.am      6 SEP2        0.0000 
     51 NZ          4.8065  -29.0935    9.3965 N.4       3 LYC4        0.0000 
     52 NZ          3.7910  -27.7330    9.4050 N.4      11 LYL4        0.0000 
     53 NZ          6.4560  -29.7630    8.4510 N.4       7 LYP4        0.0000 
     54 N           2.9945  -26.8815    8.7255 N.am      2 SEC2        0.0000 
     55 N           3.7910  -27.7330    9.4050 N.am     10 SEL2        0.0000 
     56 N           4.8280  -28.2275    8.6380 N.am      2 SEC2        0.0000 
     57 N           5.8650  -28.7220    7.8710 N.am      6 SEP2        0.0000 
     58 N           4.8065  -29.0935    9.3965 N.am      2 SEC2        0.0000 
     59 N           5.8220  -30.4540    9.3880 N.am      6 SEP2        0.0000 
     60 N           4.3880  -26.5550    9.2500 N.am      2 SEC2        0.0000 
     61 N           4.9850  -25.3770    9.0950 N.am      6 SEP2        0.0000 
     62 NZ          4.5240  -30.1850    9.9030 N.4       3 LYC4        0.0000 
     63 NZ          3.2260  -29.9160   10.4180 N.4      11 LYL4        0.0000 
     64 N           4.5240  -30.1850    9.9030 N.am      2 SEC2        0.0000 
     65 N           3.2260  -29.9160   10.4180 N.am     10 SEL2        0.0000 
     66 N           2.0620  -30.5055   10.0560 N.am      2 SEC2        0.0000 
     67 N           0.8980  -31.0950    9.6940 N.am      6 SEP2        0.0000 
     68 CA          8.1735  -23.9531   14.1214 C.3       4 GLC5        0.0000 
     69 CA          9.2740  -25.2530   14.3620 C.3      12 GLL5        0.0000 
     70 CA          7.2640  -22.2440   14.2790 C.3       8 GLP5        0.0000 
     71 CA          5.9241  -29.7421   16.1179 C.3       4 GLC5        0.0000 
     72 CA          5.8280  -30.5400   18.0140 C.3       8 GLP5        0.0000 
     73 CA          1.7367  -29.1995   14.2483 C.3       4 GLC5        0.0000 
     74 CA         -0.0630  -29.5250   15.0000 C.3       8 GLP5        0.0000 
@<TRIPOS>BOND
@<TRIPOS>SUBSTRUCTURE
     1 ALC1        6 GROUP        1 X    ALC  0     ROOT ALC X 1
     2 SEC2        1 GROUP        1 X    SEC  0     **** SEC X 2
     3 LYC4       51 GROUP        1 X    LYC  0     **** LYC X 4
     4 GLC5       15 GROUP        1 X    GLC  0     **** GLC X 6
     5 ALP1        8 GROUP        1 Y    ALP  0     ROOT ALP Y 8
     6 SEP2        3 GROUP        1 Y    SEP  0     **** SEP Y 9
     7 LYP4       53 GROUP        1 Y    LYP  0     **** LYP Y 11
     8 GLP5       17 GROUP        1 Y    GLP  0     **** GLP Y 13
     9 ALL1        7 GROUP        1 Z    ALL  0     ROOT ALL Z 15
    10 SEL2        2 GROUP        1 Z    SEL  0     **** SEL Z 16
    11 LYL4       52 GROUP        1 Z    LYL  0     **** LYL Z 18
    12 GLL5       16 GROUP        1 Z    GLL  0     **** GLL Z 20
@<TRIPOS>SET

