#    Name: 3gfs_FMN_4_ligand
#    Modification time : Tue Mar 25 07:44:24 2014

@<TRIPOS>MOLECULE
3gfs_FMN_4_ligand
   50    52     1     0     0
SMALL
NO_CHARGES


@<TRIPOS>ATOM
      1 N1          7.2200  -27.2480   17.3410 N.2       1 FMN200      0.0000 
      2 C2          7.1060  -26.6790   18.5910 C.2       1 FMN200      0.0000 
      3 O2          6.4290  -27.2350   19.4540 O.2       1 FMN200      0.0000 
      4 N3          7.7450  -25.4880   18.8750 N.am      1 FMN200      0.0000 
      5 C4          8.5070  -24.8610   17.9100 C.2       1 FMN200      0.0000 
      6 O4          8.9570  -23.7360   18.1230 O.2       1 FMN200      0.0000 
      7 C4A         8.6260  -25.4330   16.6490 C.2       1 FMN200      0.0000 
      8 N5          9.3810  -24.8200   15.6690 N.2       1 FMN200      0.0000 
      9 C5A         9.2740  -25.2530   14.3620 C.ar      1 FMN200      0.0000 
     10 C6          9.8120  -24.4960   13.3270 C.ar      1 FMN200      0.0000 
     11 C7          9.7010  -24.9370   12.0130 C.ar      1 FMN200      0.0000 
     12 C7M        10.2830  -24.1210   10.8950 C.3       1 FMN200      0.0000 
     13 C8          9.0510  -26.1350   11.7350 C.ar      1 FMN200      0.0000 
     14 C8M         8.9310  -26.6120   10.3180 C.3       1 FMN200      0.0000 
     15 C9          8.5120  -26.8910   12.7690 C.ar      1 FMN200      0.0000 
     16 C9A         8.6230  -26.4500   14.0830 C.ar      1 FMN200      0.0000 
     17 N10         8.0900  -27.1960   15.1160 N.pl3     1 FMN200      0.0000 
     18 C10         7.9770  -26.6310   16.3690 C.2       1 FMN200      0.0000 
     19 C1'         7.4120  -28.5020   14.8240 C.3       1 FMN200      0.0000 
     20 C2'         5.9490  -28.2630   14.4590 C.3       1 FMN200      0.0000 
     21 O2'         5.2180  -27.9530   15.6260 O.3       1 FMN200      0.0000 
     22 C3'         5.3600  -29.5060   13.8020 C.3       1 FMN200      0.0000 
     23 O3'         5.8340  -29.6080   12.4770 O.3       1 FMN200      0.0000 
     24 C4'         3.8340  -29.5020   13.8110 C.3       1 FMN200      0.0000 
     25 O4'         3.3700  -30.6230   13.0930 O.3       1 FMN200      0.0000 
     26 C5'         3.2390  -28.2460   13.1820 C.3       1 FMN200      0.0000 
     27 O5'         3.8540  -27.9960   11.9390 O.3       1 FMN200      0.0000 
     28 P           3.1220  -28.4190   10.5700 P.3       1 FMN200      0.0000 
     29 O1P         1.6710  -28.0100   10.6210 O.co2     1 FMN200      0.0000 
     30 O2P         3.7910  -27.7330    9.4050 O.co2     1 FMN200      0.0000 
     31 O3P         3.2260  -29.9160   10.4180 O.co2     1 FMN200      0.0000 
     32 H           7.6521  -25.0653   19.8131 H         1 FMN200      0.0000 
     33 H          10.2918  -23.6103   13.5334 H         1 FMN200      0.0000 
     34 H           8.0312  -27.7762   12.5628 H         1 FMN200      0.0000 
     35 H           7.4565  -29.1482   15.6992 H         1 FMN200      0.0000 
     36 H           7.9067  -29.0002   13.9917 H         1 FMN200      0.0000 
     37 H           5.9120  -27.4554   13.7421 H         1 FMN200      0.0000 
     38 H           5.6890  -30.3726   14.3890 H         1 FMN200      0.0000 
     39 H           3.5028  -29.5483   14.8450 H         1 FMN200      0.0000 
     40 H           3.3863  -27.4195   13.8916 H         1 FMN200      0.0000 
     41 H           2.1559  -28.4067   13.0844 H         1 FMN200      0.0000 
     42 H          11.2704  -24.0008   10.9980 H         1 FMN200      0.0000 
     43 H          10.1312  -24.5496   10.0044 H         1 FMN200      0.0000 
     44 H           9.8793  -23.2071   10.8531 H         1 FMN200      0.0000 
     45 H           9.8268  -26.7531    9.8965 H         1 FMN200      0.0000 
     46 H           8.4392  -27.4807   10.2589 H         1 FMN200      0.0000 
     47 H           8.4379  -25.9565    9.7460 H         1 FMN200      0.0000 
     48 H           5.8411  -28.1527   16.3822 H         1 FMN200      0.0000 
     49 H           5.6007  -28.7340   12.0508 H         1 FMN200      0.0000 
     50 H           3.3759  -30.3370   12.1348 H         1 FMN200      0.0000 
@<TRIPOS>BOND
     1    2    1 1    
     2   18    1 2    
     3    3    2 2    
     4    4    2 am   
     5    5    4 am   
     6   32    4 1    
     7    6    5 2    
     8    7    5 1    
     9    8    7 2    
    10   18    7 1    
    11    9    8 1    
    12   10    9 ar   
    13   16    9 ar   
    14   11   10 ar   
    15   33   10 1    
    16   12   11 1    
    17   13   11 ar   
    18   42   12 1    
    19   43   12 1    
    20   44   12 1    
    21   14   13 1    
    22   15   13 ar   
    23   45   14 1    
    24   46   14 1    
    25   47   14 1    
    26   16   15 ar   
    27   34   15 1    
    28   17   16 1    
    29   18   17 1    
    30   19   17 1    
    31   20   19 1    
    32   35   19 1    
    33   36   19 1    
    34   21   20 1    
    35   22   20 1    
    36   37   20 1    
    37   48   21 1    
    38   23   22 1    
    39   24   22 1    
    40   38   22 1    
    41   49   23 1    
    42   25   24 1    
    43   26   24 1    
    44   39   24 1    
    45   50   25 1    
    46   27   26 1    
    47   40   26 1    
    48   41   26 1    
    49   28   27 1    
    50   29   28 ar   
    51   30   28 ar   
    52   31   28 ar   
@<TRIPOS>SUBSTRUCTURE
     1 FMN200      1 GROUP   
@<TRIPOS>SET

