#    Name: 1f4g_TP4_2_INTS_M
#    Modification time : Tue Mar 25 00:46:46 2014

@<TRIPOS>MOLECULE
1f4g_TP4_2_INTS_M
   54     0     6     0     0
SMALL
NO_CHARGES


@<TRIPOS>ATOM
      1 CA         43.5000   39.6055   18.8865 C.3       2 GLC5        0.0000 
      2 CA         43.6870   37.6650   19.7210 C.3       6 GLL5        0.0000 
      3 CA         43.3130   41.5460   18.0520 C.3       4 GLP5        0.0000 
      4 CA         43.8845   35.0985   18.1905 C.3       2 GLC5        0.0000 
      5 CA         45.1610   35.7650   19.5720 C.3       6 GLL5        0.0000 
      6 CA         42.6080   34.4320   16.8090 C.3       4 GLP5        0.0000 
      7 CA         46.7500   34.6275   18.9340 C.3       2 GLC5        0.0000 
      8 CA         48.3390   33.4900   18.2960 C.3       4 GLP5        0.0000 
      9 N          40.8645   38.4420   23.2855 N.am      1 SEC2        0.0000 
     10 N          42.1180   38.4380   22.5330 N.am      5 SEL2        0.0000 
     11 N          39.6110   38.4460   24.0380 N.am      3 SEP2        0.0000 
     12 CA         48.1200   44.0205   24.6280 C.3       2 GLC5        0.0000 
     13 CA         47.6380   45.2950   23.0320 C.3       6 GLL5        0.0000 
     14 CA         48.6020   42.7460   26.2240 C.3       4 GLP5        0.0000 
     15 CA         45.1190   45.7695   22.3335 C.3       2 GLC5        0.0000 
     16 CA         47.1240   46.4310   22.1040 C.3       6 GLL5        0.0000 
     17 CA         43.1140   45.1080   22.5630 C.3       4 GLP5        0.0000 
     18 CA         46.3090   44.4095   19.7790 C.3       2 GLC5        0.0000 
     19 CA         46.5800   46.0250   20.7260 C.3       6 GLL5        0.0000 
     20 CA         46.0380   42.7940   18.8320 C.3       4 GLP5        0.0000 
     21 CA         44.7445   45.4445   20.9720 C.3       2 GLC5        0.0000 
     22 CA         42.9090   44.8640   21.2180 C.3       4 GLP5        0.0000 
     23 N          44.9255   47.3300   18.1715 N.am      1 SEC2        0.0000 
     24 N          45.8350   47.5510   19.0300 N.am      5 SEL2        0.0000 
     25 N          44.0160   47.1090   17.3130 N.am      3 SEP2        0.0000 
     26 CA         44.8065   32.6215   21.7190 C.3       2 GLC5        0.0000 
     27 CA         45.4520   33.2110   23.7170 C.3       6 GLL5        0.0000 
     28 CA         44.1610   32.0320   19.7210 C.3       4 GLP5        0.0000 
     29 CA         43.8990   32.1590   23.5335 C.3       2 GLC5        0.0000 
     30 CA         42.3460   31.1070   23.3500 C.3       4 GLP5        0.0000 
     31 CA         45.8945   34.8605   26.5820 C.3       2 GLC5        0.0000 
     32 CA         45.9180   33.7000   25.1030 C.3       6 GLL5        0.0000 
     33 CA         45.8710   36.0210   28.0610 C.3       4 GLP5        0.0000 
     34 N          46.2650   32.0865   28.3560 N.am      1 SEC2        0.0000 
     35 N          46.3940   32.4590   27.0920 N.am      5 SEL2        0.0000 
     36 N          46.1360   31.7140   29.6200 N.am      3 SEP2        0.0000 
     37 N          47.7335   32.2115   27.1285 N.am      1 SEC2        0.0000 
     38 N          49.0730   31.9640   27.1650 N.am      3 SEP2        0.0000 
     39 N          44.0860   31.0215   26.7370 N.am      1 SEC2        0.0000 
     40 N          44.4150   32.1670   26.1220 N.am      5 SEL2        0.0000 
     41 N          43.7570   29.8760   27.3520 N.am      3 SEP2        0.0000 
     42 CA         43.4595   37.0490   17.7505 C.3       2 GLC5        0.0000 
     43 CA         42.6460   36.7110   16.1920 C.3       4 GLP5        0.0000 
     44 CA         44.6235   33.9825   20.0172 C.3       2 GLC5        0.0000 
     45 CA         43.9380   39.6745   24.5412 C.3       2 GLC5        0.0000 
     46 CA         44.6810   39.4600   22.5380 C.3       6 GLL5        0.0000 
     47 CA         43.4540   39.2630   26.4130 C.3       4 GLP5        0.0000 
     48 CA         45.9450   42.0842   20.7489 C.3       2 GLC5        0.0000 
     49 CA         46.4200   41.6010   22.6240 C.3       6 GLL5        0.0000 
     50 CA         47.0595   41.3448   24.2399 C.3       2 GLC5        0.0000 
     51 CA         48.2670   41.3150   25.8140 C.3       4 GLP5        0.0000 
     52 CA         42.7780   41.8393   23.4718 C.3       2 GLC5        0.0000 
     53 CA         45.0450   41.7990   22.8380 C.3       6 GLL5        0.0000 
     54 CA         40.9520   42.4230   24.1240 C.3       4 GLP5        0.0000 
@<TRIPOS>BOND
@<TRIPOS>SUBSTRUCTURE
     1 SEC2        9 GROUP        1 X    SEC  0     ROOT SEC X 2
     2 GLC5        1 GROUP        1 X    GLC  0     **** GLC X 6
     3 SEP2       11 GROUP        1 Y    SEP  0     ROOT SEP Y 9
     4 GLP5        3 GROUP        1 Y    GLP  0     **** GLP Y 13
     5 SEL2       10 GROUP        1 Z    SEL  0     ROOT SEL Z 16
     6 GLL5        2 GROUP        1 Z    GLL  0     **** GLL Z 20
@<TRIPOS>SET

