#    Name: 1f4g_TP4_2_ligand
#    Modification time : Tue Mar 25 00:46:46 2014

@<TRIPOS>MOLECULE
1f4g_TP4_2_ligand
   56    57     1     0     0
SMALL
NO_CHARGES


@<TRIPOS>ATOM
      1 C1         44.8590   37.1090   18.8970 C.3       1 TP4602      0.0000 
      2 C2         43.6870   37.6650   19.7210 C.3       1 TP4602      0.0000 
      3 N3         43.9490   37.1370   21.0590 N.pl3     1 TP4602      0.0000 
      4 C4         45.0110   36.1010   21.0550 C.3       1 TP4602      0.0000 
      5 C5         45.1610   35.7650   19.5720 C.3       1 TP4602      0.0000 
      6 C6         44.7380   34.9490   22.0750 C.2       1 TP4602      0.0000 
      7 O7         43.5640   34.6530   22.2930 O.2       1 TP4602      0.0000 
      8 N8         45.7010   34.2930   22.7390 N.am      1 TP4602      0.0000 
      9 S9         43.6390   38.0380   22.4980 S.o2      1 TP4602      0.0000 
     10 C10        44.6810   39.4600   22.5380 C.ar      1 TP4602      0.0000 
     11 O11        42.1180   38.4380   22.5330 O.2       1 TP4602      0.0000 
     12 O12        44.0570   37.1290   23.7080 O.2       1 TP4602      0.0000 
     13 C13        46.0260   39.2220   22.3200 C.ar      1 TP4602      0.0000 
     14 C14        46.8980   40.2990   22.3630 C.ar      1 TP4602      0.0000 
     15 C15        46.4200   41.6010   22.6240 C.ar      1 TP4602      0.0000 
     16 C16        45.0450   41.7990   22.8380 C.ar      1 TP4602      0.0000 
     17 C17        44.1630   40.7120   22.8010 C.ar      1 TP4602      0.0000 
     18 C18        47.3660   42.7980   22.6490 C.2       1 TP4602      0.0000 
     19 N19        46.8720   44.0100   22.9650 N.am      1 TP4602      0.0000 
     20 C20        47.6380   45.2950   23.0320 C.3       1 TP4602      0.0000 
     21 C21        47.1240   46.4310   22.1040 C.3       1 TP4602      0.0000 
     22 C22        46.5800   46.0250   20.7260 C.3       1 TP4602      0.0000 
     23 C23        45.6300   47.0970   20.1760 C.2       1 TP4602      0.0000 
     24 O24        48.5400   42.6320   22.2960 O.2       1 TP4602      0.0000 
     25 C25        47.5250   45.7400   24.5410 C.2       1 TP4602      0.0000 
     26 O26        48.5300   46.1670   25.1320 O.co2     1 TP4602      0.0000 
     27 O27        46.3920   45.6230   25.0630 O.co2     1 TP4602      0.0000 
     28 O28        44.6800   47.4870   20.8890 O.co2     1 TP4602      0.0000 
     29 O29        45.8350   47.5510   19.0300 O.co2     1 TP4602      0.0000 
     30 C30        45.4520   33.2110   23.7170 C.3       1 TP4602      0.0000 
     31 C31        45.9180   33.7000   25.1030 C.3       1 TP4602      0.0000 
     32 C32        45.5470   32.6920   26.2020 C.2       1 TP4602      0.0000 
     33 O33        46.3940   32.4590   27.0920 O.co2     1 TP4602      0.0000 
     34 O34        44.4150   32.1670   26.1220 O.co2     1 TP4602      0.0000 
     35 H          45.6940   37.7507   18.9870 H         1 TP4602      0.0000 
     36 H          44.5484   36.9473   17.8998 H         1 TP4602      0.0000 
     37 H          42.7785   37.2843   19.3191 H         1 TP4602      0.0000 
     38 H          43.7324   38.7277   19.7019 H         1 TP4602      0.0000 
     39 H          45.9477   36.6178   21.3590 H         1 TP4602      0.0000 
     40 H          46.1547   35.4787   19.3663 H         1 TP4602      0.0000 
     41 H          44.4362   35.0537   19.2888 H         1 TP4602      0.0000 
     42 H          46.7200   34.5224   22.5932 H         1 TP4602      0.0000 
     43 H          46.3680   38.2817   22.1329 H         1 TP4602      0.0000 
     44 H          47.9060   40.1590   22.2044 H         1 TP4602      0.0000 
     45 H          44.6890   42.7430   23.0216 H         1 TP4602      0.0000 
     46 H          43.1700   40.8510   22.9646 H         1 TP4602      0.0000 
     47 H          45.8375   44.1262   23.2004 H         1 TP4602      0.0000 
     48 H          48.6794   45.1151   22.8499 H         1 TP4602      0.0000 
     49 H          47.9537   47.1604   21.9601 H         1 TP4602      0.0000 
     50 H          46.3308   46.9904   22.6509 H         1 TP4602      0.0000 
     51 H          46.0435   45.0837   20.8172 H         1 TP4602      0.0000 
     52 H          47.4117   45.8963   20.0377 H         1 TP4602      0.0000 
     53 H          46.0141   32.3228   23.4616 H         1 TP4602      0.0000 
     54 H          44.3974   32.9774   23.7743 H         1 TP4602      0.0000 
     55 H          45.4457   34.6559   25.3192 H         1 TP4602      0.0000 
     56 H          46.9977   33.8325   25.0879 H         1 TP4602      0.0000 
@<TRIPOS>BOND
     1    2    1 1    
     2    5    1 1    
     3   35    1 1    
     4   36    1 1    
     5    3    2 1    
     6   37    2 1    
     7   38    2 1    
     8    4    3 1    
     9    9    3 1    
    10    5    4 1    
    11    6    4 1    
    12   39    4 1    
    13   40    5 1    
    14   41    5 1    
    15    7    6 2    
    16    8    6 am   
    17   30    8 1    
    18   42    8 1    
    19   10    9 1    
    20   11    9 2    
    21   12    9 2    
    22   13   10 ar   
    23   17   10 ar   
    24   14   13 ar   
    25   43   13 1    
    26   15   14 ar   
    27   44   14 1    
    28   16   15 ar   
    29   18   15 1    
    30   17   16 ar   
    31   45   16 1    
    32   46   17 1    
    33   19   18 am   
    34   24   18 2    
    35   20   19 1    
    36   47   19 1    
    37   21   20 1    
    38   25   20 1    
    39   48   20 1    
    40   22   21 1    
    41   49   21 1    
    42   50   21 1    
    43   23   22 1    
    44   51   22 1    
    45   52   22 1    
    46   28   23 ar   
    47   29   23 ar   
    48   26   25 ar   
    49   27   25 ar   
    50   31   30 1    
    51   53   30 1    
    52   54   30 1    
    53   32   31 1    
    54   55   31 1    
    55   56   31 1    
    56   33   32 ar   
    57   34   32 ar   
@<TRIPOS>SUBSTRUCTURE
     1 TP4602      1 GROUP   
@<TRIPOS>SET

