#    Name: 2gn9_UPG_1_INTS_M
#    Modification time : Tue Mar 25 14:49:22 2014

@<TRIPOS>MOLECULE
2gn9_UPG_1_INTS_M
   73     0    12     0     0
SMALL
NO_CHARGES


@<TRIPOS>ATOM
      1 O          14.2180   24.4825   10.4090 O.2       1 ALC1        0.0000 
      2 O          13.7280   25.9500    9.9100 O.2       9 ALL1        0.0000 
      3 O          14.7080   23.0150   10.9080 O.2       5 ALP1        0.0000 
      4 CA         11.6685   29.5340    9.9885 C.3       4 GLC5        0.0000 
      5 CA         12.9480   28.1240    9.1220 C.3      12 GLL5        0.0000 
      6 CA         10.3890   30.9440   10.8550 C.3       8 GLP5        0.0000 
      7 CA         11.8440   23.9315    6.6960 C.3       4 GLC5        0.0000 
      8 CA         11.1040   25.3920    7.3230 C.3      12 GLL5        0.0000 
      9 CA         12.5840   22.4710    6.0690 C.3       8 GLP5        0.0000 
     10 CA          9.2735   25.6455    9.4035 C.3       4 GLC5        0.0000 
     11 CA          9.7080   25.9720    7.3140 C.3      12 GLL5        0.0000 
     12 CA          8.8390   25.3190   11.4930 C.3       8 GLP5        0.0000 
     13 N           8.3740   24.3525    9.0440 N.am      2 SEC2        0.0000 
     14 N           8.8420   25.0860    8.0200 N.am     10 SEL2        0.0000 
     15 N           7.9060   23.6190   10.0680 N.am      6 SEP2        0.0000 
     16 O           7.9605   25.9720    8.4920 O.2       1 ALC1        0.0000 
     17 O           8.8420   25.0860    8.0200 O.2       9 ALL1        0.0000 
     18 O           7.0790   26.8580    8.9640 O.2       5 ALP1        0.0000 
     19 CA         11.1530   24.1935    4.7830 C.3       4 GLC5        0.0000 
     20 CA         10.5560   25.8360    5.0880 C.3      12 GLL5        0.0000 
     21 CA         11.7500   22.5510    4.4780 C.3       8 GLP5        0.0000 
     22 CA         12.8050   27.8105    5.1955 C.3       4 GLC5        0.0000 
     23 CA         10.9760   27.0850    4.3260 C.3      12 GLL5        0.0000 
     24 CA         14.6340   28.5360    6.0650 C.3       8 GLP5        0.0000 
     25 NZ         11.0195   31.1970    7.1890 N.4       3 LYC4        0.0000 
     26 NZ         11.7430   30.6830    5.8670 N.4      11 LYL4        0.0000 
     27 NZ         10.2960   31.7110    8.5110 N.4       7 LYP4        0.0000 
     28 NZ          9.3595   30.9780    6.9520 N.4       3 LYC4        0.0000 
     29 NZ          8.4230   30.2450    5.3930 N.4      11 LYL4        0.0000 
     30 NZ          7.0910   30.3595    2.1250 N.4       3 LYC4        0.0000 
     31 NZ          8.1000   29.7160    2.7480 N.4      11 LYL4        0.0000 
     32 NZ          6.0820   31.0030    1.5020 N.4       7 LYP4        0.0000 
     33 NZ          7.3880   28.4210    2.9005 N.4       3 LYC4        0.0000 
     34 NZ          6.1460   26.7140    4.2010 N.4       7 LYP4        0.0000 
     35 N           7.0910   30.3595    2.1250 N.am      2 SEC2        0.0000 
     36 N           8.1000   29.7160    2.7480 N.am     10 SEL2        0.0000 
     37 N           6.0820   31.0030    1.5020 N.am      6 SEP2        0.0000 
     38 N           8.2505   29.4010    1.0755 N.am      2 SEC2        0.0000 
     39 N           8.4010   29.0860   -0.5970 N.am      6 SEP2        0.0000 
     40 N           7.3880   28.4210    2.9005 N.am      2 SEC2        0.0000 
     41 N           6.6760   27.1260    3.0530 N.am      6 SEP2        0.0000 
     42 CA         10.7425   36.1825    1.2610 C.3       4 GLC5        0.0000 
     43 CA         10.0130   34.6990    2.5770 C.3      12 GLL5        0.0000 
     44 CA         11.4720   37.6660   -0.0550 C.3       8 GLP5        0.0000 
     45 CA          9.2960   36.5540    1.0485 C.3       4 GLC5        0.0000 
     46 CA          9.3400   34.6050    1.2190 C.3      12 GLL5        0.0000 
     47 CA          9.2520   38.5030    0.8780 C.3       8 GLP5        0.0000 
     48 CA          6.5415   34.7230    0.4715 C.3       4 GLC5        0.0000 
     49 CA          7.9570   33.1360   -0.2440 C.3      12 GLL5        0.0000 
     50 CA          5.1260   36.3100    1.1870 C.3       8 GLP5        0.0000 
     51 CA          8.4995   33.3290   -2.1125 C.3       4 GLC5        0.0000 
     52 CA          9.0420   33.5220   -3.9810 C.3       8 GLP5        0.0000 
     53 O           9.6360   36.5475    3.0160 O.2       1 ALC1        0.0000 
     54 O          10.7900   35.8870    2.6110 O.2       9 ALL1        0.0000 
     55 O           8.4820   37.2080    3.4210 O.2       5 ALP1        0.0000 
     56 O           8.4250   36.4240    2.2800 O.2       1 ALC1        0.0000 
     57 O           8.3680   35.6400    1.1390 O.2       9 ALL1        0.0000 
     58 N           5.6495   33.6005   -1.0775 N.am      2 SEC2        0.0000 
     59 N           6.6420   33.6570   -0.1180 N.am     10 SEL2        0.0000 
     60 N           4.6570   33.5440   -2.0370 N.am      6 SEP2        0.0000 
     61 N           6.3620   32.3300    0.6920 N.am      2 SEC2        0.0000 
     62 N           6.4645   35.2580   -0.4670 N.am      2 SEC2        0.0000 
     63 N           6.2870   36.8590   -0.8160 N.am      6 SEP2        0.0000 
     64 CA         13.5805   28.1585    7.3902 C.3       4 GLC5        0.0000 
     65 CA         12.1060   27.4380    8.3090 C.3      12 GLL5        0.0000 
     66 CA          8.1615   24.3915    6.6710 C.3       4 GLC5        0.0000 
     67 CA          6.8180   22.7560    6.7430 C.3       8 GLP5        0.0000 
     68 CA          8.6930   25.5025    3.7235 C.3       4 GLC5        0.0000 
     69 CA          9.3020   26.0820    5.8840 C.3      12 GLL5        0.0000 
     70 CA          7.4570   25.0460    1.9610 C.3       8 GLP5        0.0000 
     71 CA          6.9335   32.5543    1.4980 C.3       4 GLC5        0.0000 
     72 CA          8.6310   33.2610    1.1020 C.3      12 GLL5        0.0000 
     73 CA          5.5730   31.9100    2.5670 C.3       8 GLP5        0.0000 
@<TRIPOS>BOND
@<TRIPOS>SUBSTRUCTURE
     1 ALC1        1 GROUP        1 X    ALC  0     ROOT ALC X 1
     2 SEC2       13 GROUP        1 X    SEC  0     **** SEC X 2
     3 LYC4       25 GROUP        1 X    LYC  0     **** LYC X 4
     4 GLC5        4 GROUP        1 X    GLC  0     **** GLC X 6
     5 ALP1        3 GROUP        1 Y    ALP  0     ROOT ALP Y 8
     6 SEP2       15 GROUP        1 Y    SEP  0     **** SEP Y 9
     7 LYP4       27 GROUP        1 Y    LYP  0     **** LYP Y 11
     8 GLP5        6 GROUP        1 Y    GLP  0     **** GLP Y 13
     9 ALL1        2 GROUP        1 Z    ALL  0     ROOT ALL Z 15
    10 SEL2       14 GROUP        1 Z    SEL  0     **** SEL Z 16
    11 LYL4       26 GROUP        1 Z    LYL  0     **** LYL Z 18
    12 GLL5        5 GROUP        1 Z    GLL  0     **** GLL Z 20
@<TRIPOS>SET

