#    Name: 2gn9_UPG_1_ligand
#    Modification time : Tue Mar 25 14:49:22 2014

@<TRIPOS>MOLECULE
2gn9_UPG_1_ligand
   58    60     1     0     0
SMALL
NO_CHARGES


@<TRIPOS>ATOM
      1 N1         12.0360   26.0660    8.2550 N.am      1 UPG335      0.0000 
      2 C2         12.8550   25.2830    9.0660 C.2       1 UPG335      0.0000 
      3 N3         13.7280   25.9500    9.9100 N.am      1 UPG335      0.0000 
      4 C4         13.8570   27.3380   10.0170 C.2       1 UPG335      0.0000 
      5 C5         12.9480   28.1240    9.1220 C.2       1 UPG335      0.0000 
      6 C6         12.1060   27.4380    8.3090 C.2       1 UPG335      0.0000 
      7 O2         12.8170   24.0690    9.0460 O.2       1 UPG335      0.0000 
      8 O4         14.6510   27.8680   10.7820 O.2       1 UPG335      0.0000 
      9 C1C        11.1040   25.3920    7.3230 C.3       1 UPG335      0.0000 
     10 C2C         9.7080   25.9720    7.3140 C.3       1 UPG335      0.0000 
     11 O2C         8.8420   25.0860    8.0200 O.3       1 UPG335      0.0000 
     12 C3C         9.3020   26.0820    5.8840 C.3       1 UPG335      0.0000 
     13 C4C        10.5560   25.8360    5.0880 C.3       1 UPG335      0.0000 
     14 O4C        11.6060   25.4560    5.9830 O.3       1 UPG335      0.0000 
     15 O3C         8.3800   25.0460    5.5690 O.3       1 UPG335      0.0000 
     16 C5C        10.9760   27.0850    4.3260 C.3       1 UPG335      0.0000 
     17 O5C        11.5060   28.0370    5.2340 O.3       1 UPG335      0.0000 
     18 PA         11.6660   29.5690    4.7030 P.3       1 UPG335      0.0000 
     19 O1A        11.7430   30.6830    5.8670 O.co2     1 UPG335      0.0000 
     20 O2A        12.9580   29.5330    3.7340 O.co2     1 UPG335      0.0000 
     21 O3A        10.4500   29.7550    3.6750 O.3       1 UPG335      0.0000 
     22 PB          9.0040   30.4100    3.8950 P.3       1 UPG335      0.0000 
     23 O1B         8.4230   30.2450    5.3930 O.co2     1 UPG335      0.0000 
     24 O2B         8.1000   29.7160    2.7480 O.co2     1 UPG335      0.0000 
     25 O3B         9.1890   31.9440    3.3930 O.3       1 UPG335      0.0000 
     26 C1'        10.2570   32.1960    2.4860 C.3       1 UPG335      0.0000 
     27 C2'        10.9430   33.5180    2.8060 C.3       1 UPG335      0.0000 
     28 C3'        10.0130   34.6990    2.5770 C.3       1 UPG335      0.0000 
     29 C4'         9.3400   34.6050    1.2190 C.3       1 UPG335      0.0000 
     30 C5'         8.6310   33.2610    1.1020 C.3       1 UPG335      0.0000 
     31 C6'         7.9570   33.1360   -0.2440 C.3       1 UPG335      0.0000 
     32 O2'        11.3240   33.5070    4.1760 O.3       1 UPG335      0.0000 
     33 O3'        10.7900   35.8870    2.6110 O.3       1 UPG335      0.0000 
     34 O4'         8.3680   35.6400    1.1390 O.3       1 UPG335      0.0000 
     35 O5'         9.5920   32.2040    1.2100 O.3       1 UPG335      0.0000 
     36 O6'         6.6420   33.6570   -0.1180 O.3       1 UPG335      0.0000 
     37 H          14.3592   25.3570   10.5350 H         1 UPG335      0.0000 
     38 H          13.0100   29.1244    9.1711 H         1 UPG335      0.0000 
     39 H          11.4564   27.9894    7.6706 H         1 UPG335      0.0000 
     40 H          11.0140   24.3335    7.6131 H         1 UPG335      0.0000 
     41 H           9.7437   26.9413    7.7520 H         1 UPG335      0.0000 
     42 H           8.9398   27.0423    5.6781 H         1 UPG335      0.0000 
     43 H          10.3641   25.0506    4.3720 H         1 UPG335      0.0000 
     44 H          10.0936   27.4680    3.7990 H         1 UPG335      0.0000 
     45 H          11.7124   26.7844    3.5708 H         1 UPG335      0.0000 
     46 H          10.9721   31.4001    2.5263 H         1 UPG335      0.0000 
     47 H          11.8000   33.6244    2.1673 H         1 UPG335      0.0000 
     48 H           9.2618   34.7006    3.3387 H         1 UPG335      0.0000 
     49 H          10.0737   34.6811    0.4587 H         1 UPG335      0.0000 
     50 H           7.8896   33.1908    1.8700 H         1 UPG335      0.0000 
     51 H           7.9524   32.0829   -0.5271 H         1 UPG335      0.0000 
     52 H           8.5468   33.6913   -0.9741 H         1 UPG335      0.0000 
     53 H           8.1571   25.6778    8.4450 H         1 UPG335      0.0000 
     54 H           8.3504   24.4691    6.3853 H         1 UPG335      0.0000 
     55 H          11.3933   32.5391    4.4175 H         1 UPG335      0.0000 
     56 H          10.1563   36.6023    2.9056 H         1 UPG335      0.0000 
     57 H           8.1043   35.8210    2.0865 H         1 UPG335      0.0000 
     58 H           6.7192   34.3948    0.5525 H         1 UPG335      0.0000 
@<TRIPOS>BOND
     1    2    1 1    
     2    6    1 1    
     3    9    1 1    
     4    3    2 1    
     5    7    2 2    
     6    4    3 1    
     7   37    3 1    
     8    5    4 1    
     9    8    4 2    
    10    6    5 2    
    11   38    5 1    
    12   39    6 1    
    13   10    9 1    
    14   14    9 1    
    15   40    9 1    
    16   11   10 1    
    17   12   10 1    
    18   41   10 1    
    19   53   11 1    
    20   13   12 1    
    21   15   12 1    
    22   42   12 1    
    23   14   13 1    
    24   16   13 1    
    25   43   13 1    
    26   54   15 1    
    27   17   16 1    
    28   44   16 1    
    29   45   16 1    
    30   18   17 1    
    31   19   18 ar   
    32   20   18 ar   
    33   21   18 1    
    34   22   21 1    
    35   23   22 ar   
    36   24   22 ar   
    37   25   22 1    
    38   26   25 1    
    39   27   26 1    
    40   35   26 1    
    41   46   26 1    
    42   28   27 1    
    43   32   27 1    
    44   47   27 1    
    45   29   28 1    
    46   33   28 1    
    47   48   28 1    
    48   30   29 1    
    49   34   29 1    
    50   49   29 1    
    51   31   30 1    
    52   35   30 1    
    53   50   30 1    
    54   36   31 1    
    55   51   31 1    
    56   52   31 1    
    57   55   32 1    
    58   56   33 1    
    59   57   34 1    
    60   58   36 1    
@<TRIPOS>SUBSTRUCTURE
     1 UPG335      1 GROUP   
@<TRIPOS>SET

