#    Name: 4eys_AMP_1_INTS_M
#    Modification time : Mon Mar 24 18:47:26 2014

@<TRIPOS>MOLECULE
4eys_AMP_1_INTS_M
   45     0     9     0     0
SMALL
NO_CHARGES


@<TRIPOS>ATOM
      1 N          46.4565    5.0270   13.3725 N.am      2 SEC2        0.0000 
      2 N          45.7980    4.4410   12.2050 N.am      8 SEL2        0.0000 
      3 N          47.1150    5.6130   14.5400 N.am      5 SEP2        0.0000 
      4 N          46.4765    4.8175   11.0955 N.am      2 SEC2        0.0000 
      5 N          47.1550    5.1940    9.9860 N.am      5 SEP2        0.0000 
      6 N          47.1490    4.1355   12.4795 N.am      2 SEC2        0.0000 
      7 N          48.5000    3.8300   12.7540 N.am      5 SEP2        0.0000 
      8 N          42.8510    3.5335   14.3190 N.am      2 SEC2        0.0000 
      9 N          43.9910    3.3650   13.5580 N.am      8 SEL2        0.0000 
     10 N          41.7110    3.7020   15.0800 N.am      5 SEP2        0.0000 
     11 CA         48.1915    1.3405    8.3895 C.3       3 GLC5        0.0000 
     12 CA         46.4160    1.0070    9.5680 C.3       9 GLL5        0.0000 
     13 CA         49.9670    1.6740    7.2110 C.3       6 GLP5        0.0000 
     14 O          47.1745   -0.6895    8.1475 O.2       1 ALC1        0.0000 
     15 O          47.6020    0.2150    9.3050 O.2       7 ALL1        0.0000 
     16 O          46.7470   -1.5940    6.9900 O.2       4 ALP1        0.0000 
     17 O          46.3320   -0.3645    7.0890 O.2       1 ALC1        0.0000 
     18 O          45.9170    0.8650    7.1880 O.2       7 ALL1        0.0000 
     19 CA         39.9570   -2.2810    4.9810 C.3       3 GLC5        0.0000 
     20 CA         40.1090   -1.4170    7.0040 C.3       9 GLL5        0.0000 
     21 CA         39.8050   -3.1450    2.9580 C.3       6 GLP5        0.0000 
     22 O          38.0870   -2.0940    6.0970 O.2       1 ALC1        0.0000 
     23 O          38.9900   -1.0440    6.4250 O.2       7 ALL1        0.0000 
     24 O          37.1840   -3.1440    5.7690 O.2       4 ALP1        0.0000 
     25 N          39.4990   -3.6105    7.0305 N.am      2 SEC2        0.0000 
     26 N          40.3480   -2.6870    7.3910 N.am      8 SEL2        0.0000 
     27 N          38.6500   -4.5340    6.6700 N.am      5 SEP2        0.0000 
     28 CA         40.0225   -2.5205    9.2805 C.3       3 GLC5        0.0000 
     29 CA         41.4380   -3.1100    8.0120 C.3       9 GLL5        0.0000 
     30 CA         38.6070   -1.9310   10.5490 C.3       6 GLP5        0.0000 
     31 CA         42.2405   -3.3195   10.0135 C.3       3 GLC5        0.0000 
     32 CA         43.0430   -3.5290   12.0150 C.3       6 GLP5        0.0000 
     33 CA         43.5420    0.9403   11.7995 C.3       3 GLC5        0.0000 
     34 CA         45.5890    0.4100   10.7350 C.3       9 GLL5        0.0000 
     35 CA         41.6060    0.9620   12.3200 C.3       6 GLP5        0.0000 
     36 CA         46.2420    0.1912   12.8485 C.3       3 GLC5        0.0000 
     37 CA         45.3670    1.4270   11.8230 C.3       9 GLL5        0.0000 
     38 CA         47.0060   -0.5360   14.4180 C.3       6 GLP5        0.0000 
     39 CA         44.7630   -0.8157   11.9580 C.3       3 GLC5        0.0000 
     40 CA         44.0480   -2.5500   12.6370 C.3       6 GLP5        0.0000 
     41 CA         47.4265    1.9969   11.0753 C.3       3 GLC5        0.0000 
     42 CA         48.9060    3.0310   11.7270 C.3       6 GLP5        0.0000 
     43 CA         39.3455   -0.7345    8.6770 C.3       3 GLC5        0.0000 
     44 CA         41.1390   -0.4550    7.3560 C.3       9 GLL5        0.0000 
     45 CA         38.0670   -0.5330   10.1740 C.3       6 GLP5        0.0000 
@<TRIPOS>BOND
@<TRIPOS>SUBSTRUCTURE
     1 ALC1       14 GROUP        1 X    ALC  0     ROOT ALC X 1
     2 SEC2        1 GROUP        1 X    SEC  0     **** SEC X 2
     3 GLC5       11 GROUP        1 X    GLC  0     **** GLC X 6
     4 ALP1       16 GROUP        1 Y    ALP  0     ROOT ALP Y 8
     5 SEP2        3 GROUP        1 Y    SEP  0     **** SEP Y 9
     6 GLP5       13 GROUP        1 Y    GLP  0     **** GLP Y 13
     7 ALL1       15 GROUP        1 Z    ALL  0     ROOT ALL Z 15
     8 SEL2        2 GROUP        1 Z    SEL  0     **** SEL Z 16
     9 GLL5       12 GROUP        1 Z    GLL  0     **** GLL Z 20
@<TRIPOS>SET

