#    Name: 4eys_AMP_1_ligand
#    Modification time : Mon Mar 24 18:47:26 2014

@<TRIPOS>MOLECULE
4eys_AMP_1_ligand
   35    37     1     0     0
SMALL
NO_CHARGES


@<TRIPOS>ATOM
      1 P          44.4130    3.7650   12.1880 P.3       1 AMP401      0.0000 
      2 O1P        45.7980    4.4410   12.2050 O.co2     1 AMP401      0.0000 
      3 O2P        43.4030    4.6380   11.4540 O.co2     1 AMP401      0.0000 
      4 O3P        43.9910    3.3650   13.5580 O.co2     1 AMP401      0.0000 
      5 O5'        44.5760    2.4740   11.2840 O.3       1 AMP401      0.0000 
      6 C5'        45.3670    1.4270   11.8230 C.3       1 AMP401      0.0000 
      7 C4'        45.5890    0.4100   10.7350 C.3       1 AMP401      0.0000 
      8 O4'        44.3190   -0.0120   10.2060 O.3       1 AMP401      0.0000 
      9 C3'        46.4160    1.0070    9.5680 C.3       1 AMP401      0.0000 
     10 O3'        47.6020    0.2150    9.3050 O.3       1 AMP401      0.0000 
     11 C2'        45.3840    1.0390    8.4940 C.3       1 AMP401      0.0000 
     12 O2'        45.9170    0.8650    7.1880 O.3       1 AMP401      0.0000 
     13 C1'        44.4420   -0.1080    8.8120 C.3       1 AMP401      0.0000 
     14 N9         43.1400    0.0440    8.1800 N.pl3     1 AMP401      0.0000 
     15 C8         42.5490    1.1330    7.7280 C.2       1 AMP401      0.0000 
     16 N7         41.2980    0.8680    7.2170 N.2       1 AMP401      0.0000 
     17 C5         41.1390   -0.4550    7.3560 C.ar      1 AMP401      0.0000 
     18 C6         40.1090   -1.4170    7.0040 C.ar      1 AMP401      0.0000 
     19 N6         38.9900   -1.0440    6.4250 N.pl3     1 AMP401      0.0000 
     20 N1         40.3480   -2.6870    7.3910 N.ar      1 AMP401      0.0000 
     21 C2         41.4380   -3.1100    8.0120 C.ar      1 AMP401      0.0000 
     22 N3         42.4450   -2.2750    8.2970 N.ar      1 AMP401      0.0000 
     23 C4         42.3170   -0.9850    8.0200 C.ar      1 AMP401      0.0000 
     24 H          44.8706    0.9317   12.6598 H         1 AMP401      0.0000 
     25 H          46.3410    1.7859   12.1613 H         1 AMP401      0.0000 
     26 H          46.1350   -0.4261   11.1294 H         1 AMP401      0.0000 
     27 H          46.6383    2.0194    9.8611 H         1 AMP401      0.0000 
     28 H          44.8131    1.9494    8.5864 H         1 AMP401      0.0000 
     29 H          44.9229   -1.0151    8.5320 H         1 AMP401      0.0000 
     30 H          42.9322    2.0457    7.7403 H         1 AMP401      0.0000 
     31 H          38.3462   -1.7753    6.1995 H         1 AMP401      0.0000 
     32 H          38.8843   -0.0629    6.2627 H         1 AMP401      0.0000 
     33 H          41.5213   -4.1260    8.2911 H         1 AMP401      0.0000 
     34 H          47.3509   -0.3815    8.5427 H         1 AMP401      0.0000 
     35 H          46.6343    0.1759    7.2911 H         1 AMP401      0.0000 
@<TRIPOS>BOND
     1    2    1 ar   
     2    3    1 ar   
     3    4    1 ar   
     4    5    1 1    
     5    6    5 1    
     6    7    6 1    
     7   24    6 1    
     8   25    6 1    
     9    8    7 1    
    10    9    7 1    
    11   26    7 1    
    12   13    8 1    
    13   10    9 1    
    14   11    9 1    
    15   27    9 1    
    16   34   10 1    
    17   12   11 1    
    18   13   11 1    
    19   28   11 1    
    20   35   12 1    
    21   14   13 1    
    22   29   13 1    
    23   15   14 1    
    24   23   14 1    
    25   16   15 2    
    26   30   15 1    
    27   17   16 1    
    28   18   17 ar   
    29   23   17 ar   
    30   19   18 1    
    31   20   18 ar   
    32   31   19 1    
    33   32   19 1    
    34   21   20 ar   
    35   22   21 ar   
    36   33   21 1    
    37   23   22 ar   
@<TRIPOS>SUBSTRUCTURE
     1 AMP401      1 GROUP   
@<TRIPOS>SET

