#    Name: 3ebz_017_3_INTS_M
#    Modification time : Tue Mar 25 01:25:31 2014

@<TRIPOS>MOLECULE
3ebz_017_3_INTS_M
   91     0     9     0     0
SMALL
NO_CHARGES


@<TRIPOS>ATOM
      1 O          13.7115    5.7055   18.0205 O.2       1 ALC1        0.0000 
      2 O          14.1730    5.9190   19.6280 O.2       7 ALL1        0.0000 
      3 O          13.2500    5.4920   16.4130 O.2       4 ALP1        0.0000 
      4 CA         15.2470    8.1865   16.4500 C.3       3 GLC5        0.0000 
      5 CA         15.3400    7.7370   18.5580 C.3       9 GLL5        0.0000 
      6 CA         15.1540    8.6360   14.3420 C.3       6 GLP5        0.0000 
      7 CA         16.1200    9.9320   17.2145 C.3       3 GLC5        0.0000 
      8 CA         16.3320    8.6880   18.5330 C.3       9 GLL5        0.0000 
      9 CA         15.9080   11.1760   15.8960 C.3       6 GLP5        0.0000 
     10 CA         14.7365    7.6670   22.3180 C.3       3 GLC5        0.0000 
     11 CA         16.0540    6.9530   20.7270 C.3       9 GLL5        0.0000 
     12 CA         13.4190    8.3810   23.9090 C.3       6 GLP5        0.0000 
     13 CA         23.6120   10.6305   21.2370 C.3       3 GLC5        0.0000 
     14 CA         22.5720    9.0630   20.2270 C.3       9 GLL5        0.0000 
     15 CA         24.6520   12.1980   22.2470 C.3       6 GLP5        0.0000 
     16 CA         24.4680    9.3480   19.2235 C.3       3 GLC5        0.0000 
     17 CA         26.3640    9.6330   18.2200 C.3       6 GLP5        0.0000 
     18 CA         22.8060    5.0090   19.4840 C.3       3 GLC5        0.0000 
     19 CA         22.3000    6.5610   20.4770 C.3       9 GLL5        0.0000 
     20 CA         23.3120    3.4570   18.4910 C.3       6 GLP5        0.0000 
     21 CA         22.3330    5.1445   21.7105 C.3       3 GLC5        0.0000 
     22 CA         22.3660    3.7280   22.9440 C.3       6 GLP5        0.0000 
     23 CA         18.2615    7.3285   16.6815 C.3       3 GLC5        0.0000 
     24 CA         19.8420    8.7570   17.3370 C.3       9 GLL5        0.0000 
     25 CA         16.6810    5.9000   16.0260 C.3       6 GLP5        0.0000 
     26 N          20.6915    8.0365   14.4035 N.am      2 SEC2        0.0000 
     27 N          21.1560    9.0870   15.3430 N.am      8 SEL2        0.0000 
     28 N          20.2270    6.9860   13.4640 N.am      5 SEP2        0.0000 
     29 O          22.0160    8.2160   14.9045 O.2       1 ALC1        0.0000 
     30 O          21.1560    9.0870   15.3430 O.2       7 ALL1        0.0000 
     31 O          22.8760    7.3450   14.4660 O.2       4 ALP1        0.0000 
     32 O          22.5110    8.4160   15.8730 O.2       1 ALC1        0.0000 
     33 O          23.8660    7.7450   16.4030 O.2       4 ALP1        0.0000 
     34 O          22.1635   11.6330   14.7290 O.2       1 ALC1        0.0000 
     35 O          22.1230   11.6590   16.2760 O.2       7 ALL1        0.0000 
     36 O          22.2040   11.6070   13.1820 O.2       4 ALP1        0.0000 
     37 CA         28.1975   13.7510   15.8755 C.3       3 GLC5        0.0000 
     38 CA         26.3100   13.3400   16.7040 C.3       9 GLL5        0.0000 
     39 CA         30.0850   14.1620   15.0470 C.3       6 GLP5        0.0000 
     40 CA         27.7245   12.8520   17.9890 C.3       3 GLC5        0.0000 
     41 CA         29.1390   12.3640   19.2740 C.3       6 GLP5        0.0000 
     42 CA         26.3370   11.4865   17.4620 C.3       3 GLC5        0.0000 
     43 N          27.5705   13.4535   14.3620 N.am      2 SEC2        0.0000 
     44 N          26.4620   13.7980   15.3460 N.am      8 SEL2        0.0000 
     45 N          28.6790   13.1090   13.3780 N.am      5 SEP2        0.0000 
     46 CA         25.3015   13.0330   14.3215 C.3       3 GLC5        0.0000 
     47 CA         25.7110   15.0030   15.2110 C.3       9 GLL5        0.0000 
     48 CA         24.8920   11.0630   13.4320 C.3       6 GLP5        0.0000 
     49 CA         26.3955   14.9825   13.3450 C.3       3 GLC5        0.0000 
     50 CA         27.0800   14.9620   11.4790 C.3       6 GLP5        0.0000 
     51 CA         27.8980   14.5825   15.1290 C.3       3 GLC5        0.0000 
     52 N          25.5105   13.9365   13.2135 N.am      2 SEC2        0.0000 
     53 N          24.9440   14.9600   14.0290 N.am      8 SEL2        0.0000 
     54 N          26.0770   12.9130   12.3980 N.am      5 SEP2        0.0000 
     55 CA         24.2175   12.9840   13.8905 C.3       3 GLC5        0.0000 
     56 CA         23.5430   14.9050   14.3490 C.3       9 GLL5        0.0000 
     57 CA         19.2820   11.7495   13.6495 C.3       3 GLC5        0.0000 
     58 CA         19.6910   11.5850   15.8080 C.3       9 GLL5        0.0000 
     59 CA         18.8730   11.9140   11.4910 C.3       6 GLP5        0.0000 
     60 CA         19.4835   12.8760   13.1065 C.3       3 GLC5        0.0000 
     61 CA         20.0940   13.8380   14.7220 C.3       9 GLL5        0.0000 
     62 CA         16.2396    6.9485   17.4199 C.3       3 GLC5        0.0000 
     63 CA         14.1636    8.8115   19.2374 C.3       3 GLC5        0.0000 
     64 CA         12.5290    9.6260   19.6610 C.3       6 GLP5        0.0000 
     65 CA         15.8993   10.3912   19.7530 C.3       3 GLC5        0.0000 
     66 CA         15.0390   12.0660   20.4170 C.3       6 GLP5        0.0000 
     67 CA         24.0420    6.9295   19.4132 C.3       3 GLC5        0.0000 
     68 CA         21.9620    7.7990   19.6180 C.3       9 GLL5        0.0000 
     69 CA         25.9530    6.6790   18.7790 C.3       6 GLP5        0.0000 
     70 CA         25.5260   12.9095   18.9410 C.3       3 GLC5        0.0000 
     71 CA         24.8780   13.7400   17.1240 C.3       9 GLL5        0.0000 
     72 CA         25.4580   12.2790   20.9680 C.3       6 GLP5        0.0000 
     73 CA         25.6275   11.9095   15.6990 C.3       3 GLC5        0.0000 
     74 CA         25.6610   10.2790   14.4840 C.3       6 GLP5        0.0000 
     75 CA         26.1283   15.3895   17.9850 C.3       3 GLC5        0.0000 
     76 CA         27.0800   16.4560   19.2900 C.3       6 GLP5        0.0000 
     77 CA         18.3673   14.6677   14.4872 C.3       3 GLC5        0.0000 
     78 CA         16.6420   14.7930   14.2440 C.3       6 GLP5        0.0000 
     79 CA         17.9172   16.5655   17.3935 C.3       3 GLC5        0.0000 
     80 CA         19.6530   15.8660   15.9360 C.3       9 GLL5        0.0000 
     81 CA         16.3880   17.6280   18.2890 C.3       6 GLP5        0.0000 
     82 CA         18.0442   15.1480   15.3710 C.3       3 GLC5        0.0000 
     83 CA         19.2400   15.1400   17.0600 C.3       9 GLL5        0.0000 
     84 CA         20.3222   15.0563   18.6245 C.3       3 GLC5        0.0000 
     85 CA         21.3920   15.6650   20.2270 C.3       6 GLP5        0.0000 
     86 CA         18.5202   14.6128   18.9490 C.3       3 GLC5        0.0000 
     87 CA         17.7880   14.7780   20.8760 C.3       6 GLP5        0.0000 
     88 CA         18.0575   14.1090   15.3287 C.3       3 GLC5        0.0000 
     89 CA         19.2650   13.7550   16.9840 C.3       9 GLL5        0.0000 
     90 CA         17.6917   12.1118   16.1504 C.3       3 GLC5        0.0000 
     91 CA         19.6810   13.0950   15.8430 C.3       9 GLL5        0.0000 
@<TRIPOS>BOND
@<TRIPOS>SUBSTRUCTURE
     1 ALC1        1 GROUP        1 X    ALC  0     ROOT ALC X 1
     2 SEC2       26 GROUP        1 X    SEC  0     **** SEC X 2
     3 GLC5        4 GROUP        1 X    GLC  0     **** GLC X 6
     4 ALP1        3 GROUP        1 Y    ALP  0     ROOT ALP Y 8
     5 SEP2       28 GROUP        1 Y    SEP  0     **** SEP Y 9
     6 GLP5        6 GROUP        1 Y    GLP  0     **** GLP Y 13
     7 ALL1        2 GROUP        1 Z    ALL  0     ROOT ALL Z 15
     8 SEL2       27 GROUP        1 Z    SEL  0     **** SEL Z 16
     9 GLL5        5 GROUP        1 Z    GLL  0     **** GLL Z 20
@<TRIPOS>SET

