#    Name: 3ebz_017_3_ligand
#    Modification time : Tue Mar 25 01:25:32 2014

@<TRIPOS>MOLECULE
3ebz_017_3_ligand
   75    78     1     0     0
SMALL
NO_CHARGES


@<TRIPOS>ATOM
      1 N1         14.1730    5.9190   19.6280 N.pl3     1 017201      0.0000 
      2 C2         15.1890    6.8750   19.6310 C.ar      1 017201      0.0000 
      3 C3         15.3400    7.7370   18.5580 C.ar      1 017201      0.0000 
      4 C4         16.3320    8.6880   18.5330 C.ar      1 017201      0.0000 
      5 C5         17.1870    8.7450   19.6450 C.ar      1 017201      0.0000 
      6 C6         17.0780    7.9080   20.7390 C.ar      1 017201      0.0000 
      7 C7         16.0540    6.9530   20.7270 C.ar      1 017201      0.0000 
      8 S8         18.5730    9.7990   19.4670 S.o2      1 017201      0.0000 
      9 O9         18.2120   10.8030   18.4930 O.2       1 017201      0.0000 
     10 O10        18.9860   10.2500   20.7730 O.2       1 017201      0.0000 
     11 N11        19.8840    9.0000   18.8080 N.pl3     1 017201      0.0000 
     12 C12        20.4230    7.9160   19.6550 C.3       1 017201      0.0000 
     13 C13        21.9620    7.7990   19.6180 C.3       1 017201      0.0000 
     14 C14        22.5720    9.0630   20.2270 C.3       1 017201      0.0000 
     15 C15        22.3000    6.5610   20.4770 C.3       1 017201      0.0000 
     16 C16        19.8420    8.7570   17.3370 C.3       1 017201      0.0000 
     17 C17        21.0160    9.5210   16.7200 C.3       1 017201      0.0000 
     18 O18        21.1560    9.0870   15.3430 O.3       1 017201      0.0000 
     19 C19        20.8490   11.0710   16.7420 C.3       1 017201      0.0000 
     20 N20        22.1230   11.6590   16.2760 N.am      1 017201      0.0000 
     21 C21        22.9280   12.3510   17.1260 C.2       1 017201      0.0000 
     22 O22        22.7340   12.6000   18.2850 O.2       1 017201      0.0000 
     23 O23        24.0450   12.7520   16.4650 O.3       1 017201      0.0000 
     24 C24        24.8780   13.7400   17.1240 C.3       1 017201      0.0000 
     25 C25        26.3100   13.3400   16.7040 C.3       1 017201      0.0000 
     26 O26        26.4620   13.7980   15.3460 O.3       1 017201      0.0000 
     27 C27        25.7110   15.0030   15.2110 C.3       1 017201      0.0000 
     28 O28        24.9440   14.9600   14.0290 O.3       1 017201      0.0000 
     29 C29        23.5430   14.9050   14.3490 C.3       1 017201      0.0000 
     30 C30        23.4050   15.3990   15.7810 C.3       1 017201      0.0000 
     31 C31        24.7590   15.1060   16.4460 C.3       1 017201      0.0000 
     32 C32        19.6910   11.5850   15.8080 C.3       1 017201      0.0000 
     33 C33        20.0940   13.8380   14.7220 C.ar      1 017201      0.0000 
     34 C34        20.0910   15.2470   14.7390 C.ar      1 017201      0.0000 
     35 C35        19.6530   15.8660   15.9360 C.ar      1 017201      0.0000 
     36 C36        19.2400   15.1400   17.0600 C.ar      1 017201      0.0000 
     37 C37        19.2650   13.7550   16.9840 C.ar      1 017201      0.0000 
     38 C38        19.6810   13.0950   15.8430 C.ar      1 017201      0.0000 
     39 H          14.0874    5.3653   20.4563 H         1 017201      0.0000 
     40 H          13.6177    5.8697   18.7978 H         1 017201      0.0000 
     41 H          14.6831    7.6593   17.7517 H         1 017201      0.0000 
     42 H          16.4518    9.3217   17.7588 H         1 017201      0.0000 
     43 H          17.7113    7.9758   21.5252 H         1 017201      0.0000 
     44 H          15.9396    6.3140   21.5189 H         1 017201      0.0000 
     45 H          20.0034    6.9406   19.3447 H         1 017201      0.0000 
     46 H          20.1218    8.0653   20.7089 H         1 017201      0.0000 
     47 H          22.2787    7.6521   18.6367 H         1 017201      0.0000 
     48 H          18.9225    9.1310   16.9183 H         1 017201      0.0000 
     49 H          19.9572    7.7072   17.1240 H         1 017201      0.0000 
     50 H          21.9155    9.2751   17.2711 H         1 017201      0.0000 
     51 H          20.6462   11.3825   17.7422 H         1 017201      0.0000 
     52 H          22.3579   11.5143   15.2863 H         1 017201      0.0000 
     53 H          24.8160   13.7943   18.1184 H         1 017201      0.0000 
     54 H          26.3907   12.2691   16.7823 H         1 017201      0.0000 
     55 H          26.9989   13.8244   17.3749 H         1 017201      0.0000 
     56 H          26.3520   15.8622   15.2465 H         1 017201      0.0000 
     57 H          23.1591   13.8939   14.2983 H         1 017201      0.0000 
     58 H          22.9589   15.5522   13.7069 H         1 017201      0.0000 
     59 H          22.6387   14.8535   16.2831 H         1 017201      0.0000 
     60 H          23.2269   16.4503   15.7890 H         1 017201      0.0000 
     61 H          25.0806   15.8802   17.0333 H         1 017201      0.0000 
     62 H          18.7615   11.1909   16.1809 H         1 017201      0.0000 
     63 H          19.8843   11.2301   14.8105 H         1 017201      0.0000 
     64 H          20.4046   13.3436   13.8724 H         1 017201      0.0000 
     65 H          20.3814   15.7842   13.9512 H         1 017201      0.0000 
     66 H          19.6402   16.9080   15.9748 H         1 017201      0.0000 
     67 H          18.9337   15.6168   17.8993 H         1 017201      0.0000 
     68 H          18.9610   13.1983   17.8120 H         1 017201      0.0000 
     69 H          23.5715    9.0320   20.2232 H         1 017201      0.0000 
     70 H          22.3023    9.8846   19.7248 H         1 017201      0.0000 
     71 H          22.2864    9.1929   21.1765 H         1 017201      0.0000 
     72 H          23.2856    6.3978   20.5216 H         1 017201      0.0000 
     73 H          21.9768    6.6623   21.4179 H         1 017201      0.0000 
     74 H          21.8815    5.7297   20.1113 H         1 017201      0.0000 
     75 H          22.0195    8.5833   15.3170 H         1 017201      0.0000 
@<TRIPOS>BOND
     1    2    1 1    
     2   39    1 1    
     3   40    1 1    
     4    3    2 ar   
     5    7    2 ar   
     6    4    3 ar   
     7   41    3 1    
     8    5    4 ar   
     9   42    4 1    
    10    6    5 ar   
    11    8    5 1    
    12    7    6 ar   
    13   43    6 1    
    14   44    7 1    
    15    9    8 2    
    16   10    8 2    
    17   11    8 1    
    18   12   11 1    
    19   16   11 1    
    20   13   12 1    
    21   45   12 1    
    22   46   12 1    
    23   14   13 1    
    24   15   13 1    
    25   47   13 1    
    26   69   14 1    
    27   70   14 1    
    28   71   14 1    
    29   72   15 1    
    30   73   15 1    
    31   74   15 1    
    32   17   16 1    
    33   48   16 1    
    34   49   16 1    
    35   18   17 1    
    36   19   17 1    
    37   50   17 1    
    38   75   18 1    
    39   20   19 1    
    40   32   19 1    
    41   51   19 1    
    42   21   20 am   
    43   52   20 1    
    44   22   21 2    
    45   23   21 1    
    46   24   23 1    
    47   25   24 1    
    48   31   24 1    
    49   53   24 1    
    50   26   25 1    
    51   54   25 1    
    52   55   25 1    
    53   27   26 1    
    54   28   27 1    
    55   31   27 1    
    56   56   27 1    
    57   29   28 1    
    58   30   29 1    
    59   57   29 1    
    60   58   29 1    
    61   31   30 1    
    62   59   30 1    
    63   60   30 1    
    64   61   31 1    
    65   38   32 1    
    66   62   32 1    
    67   63   32 1    
    68   34   33 ar   
    69   38   33 ar   
    70   64   33 1    
    71   35   34 ar   
    72   65   34 1    
    73   36   35 ar   
    74   66   35 1    
    75   37   36 ar   
    76   67   36 1    
    77   38   37 ar   
    78   68   37 1    
@<TRIPOS>SUBSTRUCTURE
     1 017201      1 GROUP   
@<TRIPOS>SET

