#    Name: 3apv_TP0_2_INTS_M
#    Modification time : Mon Mar 24 17:59:45 2014

@<TRIPOS>MOLECULE
3apv_TP0_2_INTS_M
   38     0     3     0     0
SMALL
NO_CHARGES


@<TRIPOS>ATOM
      1 CA         16.6270    3.4695   44.6830 C.3       1 GLC5        0.0000 
      2 CA         15.2760    2.3440   43.7170 C.3       3 GLL5        0.0000 
      3 CA         17.9780    4.5950   45.6490 C.3       2 GLP5        0.0000 
      4 CA         14.5070    3.2215   45.5230 C.3       1 GLC5        0.0000 
      5 CA         13.7380    4.0990   47.3290 C.3       2 GLP5        0.0000 
      6 CA          6.8660    1.3760   40.3355 C.3       1 GLC5        0.0000 
      7 CA          8.2030    1.7920   41.5760 C.3       3 GLL5        0.0000 
      8 CA          5.5290    0.9600   39.0950 C.3       2 GLP5        0.0000 
      9 CA         17.2695    4.2150   43.9645 C.3       1 GLC5        0.0000 
     10 CA         16.5610    3.8350   42.2800 C.3       3 GLL5        0.0000 
     11 CA         18.4510    3.3580   41.5985 C.3       1 GLC5        0.0000 
     12 CA         20.3410    2.8810   40.9170 C.3       2 GLP5        0.0000 
     13 CA         16.8645    5.5725   42.2105 C.3       1 GLC5        0.0000 
     14 CA         17.1680    7.3100   42.1410 C.3       2 GLP5        0.0000 
     15 CA         17.7420    1.1740   41.4375 C.3       1 GLC5        0.0000 
     16 CA         15.9700    1.6790   41.4280 C.3       3 GLL5        0.0000 
     17 CA         19.5140    0.6690   41.4470 C.3       2 GLP5        0.0000 
     18 CA         14.5125   -0.9980   44.4920 C.3       1 GLC5        0.0000 
     19 CA         14.3390    1.1260   43.8280 C.3       3 GLL5        0.0000 
     20 CA         14.6860   -3.1220   45.1560 C.3       2 GLP5        0.0000 
     21 CA         13.0580    0.4557   45.4295 C.3       1 GLC5        0.0000 
     22 CA         12.9310    1.3930   43.3260 C.3       3 GLL5        0.0000 
     23 CA         12.4810   -0.3480   47.2820 C.3       2 GLP5        0.0000 
     24 CA         11.6525   -2.7817   39.3300 C.3       1 GLC5        0.0000 
     25 CA         13.6390   -2.8070   40.2910 C.3       3 GLL5        0.0000 
     26 CA          9.7660   -3.3630   38.6990 C.3       2 GLP5        0.0000 
     27 CA         12.9525   -3.1677   38.3970 C.3       1 GLC5        0.0000 
     28 CA         13.4390   -1.5940   39.6310 C.3       3 GLL5        0.0000 
     29 CA         12.3660   -4.1350   36.8330 C.3       2 GLP5        0.0000 
     30 CA         15.3570   -2.5438   39.4575 C.3       1 GLC5        0.0000 
     31 CA         17.1750   -2.8870   38.9540 C.3       2 GLP5        0.0000 
     32 CA         13.9133   -2.7405   43.5857 C.3       1 GLC5        0.0000 
     33 CA         13.3740   -2.9130   41.6580 C.3       3 GLL5        0.0000 
     34 CA         13.3818   -4.9760   40.4993 C.3       1 GLC5        0.0000 
     35 CA         13.2570   -7.0920   40.0240 C.3       2 GLP5        0.0000 
     36 CA          9.0457    0.7779   38.8801 C.3       1 GLC5        0.0000 
     37 CA         11.2700    1.1370   39.4760 C.3       3 GLL5        0.0000 
     38 CA          7.5780    0.2600   37.7080 C.3       2 GLP5        0.0000 
@<TRIPOS>BOND
@<TRIPOS>SUBSTRUCTURE
     1 GLC5        1 GROUP        1 X    GLC  0     ROOT GLC X 6
     2 GLP5        3 GROUP        1 Y    GLP  0     ROOT GLP Y 13
     3 GLL5        2 GROUP        1 Z    GLL  0     ROOT GLL Z 20
@<TRIPOS>SET

