#    Name: 3apv_TP0_2_ligand
#    Modification time : Mon Mar 24 17:59:45 2014

@<TRIPOS>MOLECULE
3apv_TP0_2_ligand
   45    47     1     0     0
SMALL
NO_CHARGES


@<TRIPOS>ATOM
      1 N1         15.5330    2.7770   42.3180 N.4       1 TP0190      0.0000 
      2 C3         12.2300    0.6440   42.4260 C.2       1 TP0190      0.0000 
      3 C4         12.9800   -0.4840   40.3540 C.ar      1 TP0190      0.0000 
      4 C5         10.4180    1.2700   40.7350 C.ar      1 TP0190      0.0000 
      5 C6         12.7340   -0.5870   41.7190 C.ar      1 TP0190      0.0000 
      6 C7         10.8310    1.0530   42.0570 C.ar      1 TP0190      0.0000 
      7 C8         12.9310    1.3930   43.3260 C.2       1 TP0190      0.0000 
      8 C10        13.4390   -1.5940   39.6310 C.ar      1 TP0190      0.0000 
      9 C11         9.0960    1.6390   40.5220 C.ar      1 TP0190      0.0000 
     10 C12        12.9070   -1.8050   42.3730 C.ar      1 TP0190      0.0000 
     11 C13         9.9280    1.2000   43.1070 C.ar      1 TP0190      0.0000 
     12 C14        15.2760    2.3440   43.7170 C.3       1 TP0190      0.0000 
     13 C15        13.6390   -2.8070   40.2910 C.ar      1 TP0190      0.0000 
     14 C16         8.2030    1.7920   41.5760 C.ar      1 TP0190      0.0000 
     15 C17        13.3740   -2.9130   41.6580 C.ar      1 TP0190      0.0000 
     16 C18         8.6210    1.5740   42.8750 C.ar      1 TP0190      0.0000 
     17 C19        16.5610    3.8350   42.2800 C.3       1 TP0190      0.0000 
     18 C20        15.9700    1.6790   41.4280 C.3       1 TP0190      0.0000 
     19 C21        12.7590    0.8570   39.6680 C.3       1 TP0190      0.0000 
     20 C22        11.2700    1.1370   39.4760 C.3       1 TP0190      0.0000 
     21 C29        14.3390    1.1260   43.8280 C.3       1 TP0190      0.0000 
     22 H          14.6041    3.2031   41.9060 H         1 TP0190      0.0000 
     23 H          12.4969    2.2643   43.7528 H         1 TP0190      0.0000 
     24 H          13.6246   -1.5124   38.6298 H         1 TP0190      0.0000 
     25 H           8.7657    1.8050   39.5498 H         1 TP0190      0.0000 
     26 H          12.6944   -1.8912   43.3706 H         1 TP0190      0.0000 
     27 H          10.2495    1.0239   44.0775 H         1 TP0190      0.0000 
     28 H          14.8282    3.1724   44.2947 H         1 TP0190      0.0000 
     29 H          16.2278    2.0885   44.2164 H         1 TP0190      0.0000 
     30 H          13.9818   -3.6239   39.7708 H         1 TP0190      0.0000 
     31 H           7.2290    2.0684   41.3849 H         1 TP0190      0.0000 
     32 H          13.5222   -3.8076   42.1414 H         1 TP0190      0.0000 
     33 H           7.9661    1.6893   43.6563 H         1 TP0190      0.0000 
     34 H          13.2504    0.8504   38.6946 H         1 TP0190      0.0000 
     35 H          13.1970    1.6500   40.2750 H         1 TP0190      0.0000 
     36 H          11.1601    2.0707   38.8725 H         1 TP0190      0.0000 
     37 H          10.8370    0.3287   38.8379 H         1 TP0190      0.0000 
     38 H          14.7786    0.2939   43.2573 H         1 TP0190      0.0000 
     39 H          14.2976    0.8121   44.8821 H         1 TP0190      0.0000 
     40 H          17.4304    3.5220   42.6623 H         1 TP0190      0.0000 
     41 H          16.7447    4.1409   41.3458 H         1 TP0190      0.0000 
     42 H          16.2840    4.6409   42.8032 H         1 TP0190      0.0000 
     43 H          16.1329    1.9997   40.4949 H         1 TP0190      0.0000 
     44 H          16.8199    1.2590   41.7461 H         1 TP0190      0.0000 
     45 H          15.2863    0.9514   41.3726 H         1 TP0190      0.0000 
@<TRIPOS>BOND
     1   12    1 1    
     2   17    1 1    
     3   18    1 1    
     4   22    1 1    
     5    5    2 1    
     6    6    2 1    
     7    7    2 2    
     8    5    3 ar   
     9    8    3 ar   
    10   19    3 1    
    11    6    4 ar   
    12    9    4 ar   
    13   20    4 1    
    14   10    5 ar   
    15   11    6 ar   
    16   21    7 1    
    17   23    7 1    
    18   13    8 ar   
    19   24    8 1    
    20   14    9 ar   
    21   25    9 1    
    22   15   10 ar   
    23   26   10 1    
    24   16   11 ar   
    25   27   11 1    
    26   21   12 1    
    27   28   12 1    
    28   29   12 1    
    29   15   13 ar   
    30   30   13 1    
    31   16   14 ar   
    32   31   14 1    
    33   32   15 1    
    34   33   16 1    
    35   40   17 1    
    36   41   17 1    
    37   42   17 1    
    38   43   18 1    
    39   44   18 1    
    40   45   18 1    
    41   20   19 1    
    42   34   19 1    
    43   35   19 1    
    44   36   20 1    
    45   37   20 1    
    46   38   21 1    
    47   39   21 1    
@<TRIPOS>SUBSTRUCTURE
     1 TP0190      1 GROUP   
@<TRIPOS>SET

