#    Name: 2AD6_2_CAVITY_N1_6.mol2
#    Modification time : Tue Mar 11 01:23:10 2014

@<TRIPOS>MOLECULE
2AD6_2_CAVITY_N1_6.mol2
    2     0     2     0     0
SMALL
NO_CHARGES


@<TRIPOS>ATOM
      1 CA         52.3408    8.5637   13.4298 C.3       2 GLY6        0.0000 
      2 N          51.3307    8.6610   14.5344 N.2       1 ALA2        0.0000 
@<TRIPOS>BOND
@<TRIPOS>SUBSTRUCTURE
     1 ALA2        2 GROUP   
     2 GLY6        1 GROUP   
@<TRIPOS>SET

