#    Name: 2AD6_2_CAVITY_N1_ALL.mol2
#    Modification time : Tue Mar 11 01:23:10 2014

@<TRIPOS>MOLECULE
2AD6_2_CAVITY_N1_ALL.mol2
   52     0     4     0     0
SMALL
NO_CHARGES


@<TRIPOS>ATOM
      1 CZ         49.7320   13.3694   14.6945 C.ar      2 PHE5        0.0000 
      2 CZ         48.7220   13.4667   15.7991 C.ar      2 PHE5        0.0000 
      3 CZ         47.7119   13.5641   16.9038 C.ar      2 PHE5        0.0000 
      4 N          46.7018   13.6614   18.0084 N.2       1 ALA2        0.0000 
      5 CA         52.3408    8.5637   13.4298 C.3       3 GLY6        0.0000 
      6 N          51.3307    8.6610   14.5344 N.2       1 ALA2        0.0000 
      7 O          50.3525    7.8791   13.7088 O.2       1 ALA2        0.0000 
      8 N          49.3424    7.9764   14.8135 N.2       1 ALA2        0.0000 
      9 CA         51.7867   10.7193   14.7699 C.3       3 GLY6        0.0000 
     10 CA         50.8085    9.9374   13.9443 C.3       3 GLY6        0.0000 
     11 N          46.7681   10.3268   18.3629 N.2       1 ALA2        0.0000 
     12 N          45.7580   10.4241   19.4676 N.2       1 ALA2        0.0000 
     13 N          49.8302    9.1554   13.1188 N.2       1 ALA2        0.0000 
     14 N          48.8201    9.2528   14.2234 N.2       1 ALA2        0.0000 
     15 N          46.7999    9.4475   16.4327 N.2       1 ALA2        0.0000 
     16 CZ         45.7899    9.5448   17.5373 C.ar      2 PHE5        0.0000 
     17 CA         51.2644   11.9957   14.1799 C.3       3 GLY6        0.0000 
     18 N          50.2543   12.0930   15.2845 N.2       1 ALA2        0.0000 
     19 N          49.2442   12.1904   16.3892 N.2       1 ALA2        0.0000 
     20 N          48.2341   12.2877   17.4938 N.2       1 ALA2        0.0000 
     21 CA         50.2862   11.2137   13.3543 C.3       3 GLY6        0.0000 
     22 N          49.2761   11.3111   14.4589 N.2       1 ALA2        0.0000 
     23 N          48.2660   11.4084   15.5636 N.2       1 ALA2        0.0000 
     24 N          47.2559   11.5058   16.6682 N.2       1 ALA2        0.0000 
     25 N          46.2458   11.6031   17.7729 N.2       1 ALA2        0.0000 
     26 N          45.2357   11.7005   18.8775 N.2       1 ALA2        0.0000 
     27 CA         49.3079   10.4318   12.5287 C.3       3 GLY6        0.0000 
     28 CA         48.2979   10.5291   13.6334 C.3       3 GLY6        0.0000 
     29 N          47.2878   10.6265   14.7380 N.2       1 ALA2        0.0000 
     30 N          46.2777   10.7238   15.8426 N.2       1 ALA2        0.0000 
     31 CZ         45.2676   10.8212   16.9473 C.ar      2 PHE5        0.0000 
     32 CZ         44.2575   10.9185   18.0519 C.ar      2 PHE5        0.0000 
     33 CA         47.8419    8.4708   13.3978 C.3       3 GLY6        0.0000 
     34 CA         46.8318    8.5682   14.5025 C.3       3 GLY6        0.0000 
     35 CA         45.8217    8.6655   15.6071 C.3       3 GLY6        0.0000 
     36 CA         46.3095    9.8445   13.9124 C.3       3 GLY6        0.0000 
     37 CZ         45.2994    9.9419   15.0171 C.ar      2 PHE5        0.0000 
     38 CZ         44.2893   10.0392   16.1217 C.ar      2 PHE5        0.0000 
     39 CA         45.7872   11.1209   13.3224 C.3       3 GLY6        0.0000 
     40 CA         44.7772   11.2182   14.4270 C.3       3 GLY6        0.0000 
     41 CZ         43.7671   11.3156   15.5317 C.ar      2 PHE5        0.0000 
     42 CA         49.7639   12.4901   12.7643 C.3       3 GLY6        0.0000 
     43 DU         48.7538   12.5874   13.8689 H         4 CUB7        0.0000 
     44 DU         47.7437   12.6848   14.9735 H         4 CUB7        0.0000 
     45 DU         46.7336   12.7821   16.0782 H         4 CUB7        0.0000 
     46 DU         45.7235   12.8795   17.1828 H         4 CUB7        0.0000 
     47 DU         44.7135   12.9768   18.2875 H         4 CUB7        0.0000 
     48 CA         47.7756   11.8055   13.0433 C.3       3 GLY6        0.0000 
     49 DU         46.7655   11.9028   14.1480 H         4 CUB7        0.0000 
     50 DU         45.7554   12.0002   15.2526 H         4 CUB7        0.0000 
     51 DU         44.7453   12.0975   16.3572 H         4 CUB7        0.0000 
     52 CZ         43.7352   12.1949   17.4619 C.ar      2 PHE5        0.0000 
@<TRIPOS>BOND
@<TRIPOS>SUBSTRUCTURE
     1 ALA2        4 GROUP   
     2 PHE5        1 GROUP   
     3 GLY6        5 GROUP   
     4 CUB7       43 GROUP   
@<TRIPOS>SET

