#    Name: 2ad6_PQQ_2_INTS_M
#    Modification time : Mon Mar 24 19:03:12 2014

@<TRIPOS>MOLECULE
2ad6_PQQ_2_INTS_M
   54     0     9     0     0
SMALL
NO_CHARGES


@<TRIPOS>ATOM
      1 NZ         51.9570    2.2735   21.8900 N.4       2 LYC4        0.0000 
      2 NZ         50.7870    1.8920   20.9720 N.4       8 LYL4        0.0000 
      3 NZ         53.4180    2.0240   23.9350 N.4       5 LYP4        0.0000 
      4 N          51.9570    2.2735   21.8900 N.am      1 SEC2        0.0000 
      5 N          50.7870    1.8920   20.9720 N.am      7 SEL2        0.0000 
      6 N          53.1270    2.6550   22.8080 N.am      4 SEP2        0.0000 
      7 N          49.3580    1.9295   17.9885 N.am      1 SEC2        0.0000 
      8 N          50.3510    1.2990   18.8760 N.am      7 SEL2        0.0000 
      9 N          48.3650    2.5600   17.1010 N.am      4 SEP2        0.0000 
     10 N          50.3865   -0.0910   18.4610 N.am      1 SEC2        0.0000 
     11 N          50.4220   -1.4810   18.0460 N.am      4 SEP2        0.0000 
     12 N          55.0965    1.9375   15.9980 N.am      1 SEC2        0.0000 
     13 N          55.0770    3.4470   16.2490 N.am      7 SEL2        0.0000 
     14 N          55.1160    0.4280   15.7470 N.am      4 SEP2        0.0000 
     15 N          57.2045    4.6590   15.7250 N.am      1 SEC2        0.0000 
     16 N          56.6980    5.4730   16.8340 N.am      7 SEL2        0.0000 
     17 N          57.7110    3.8450   14.6160 N.am      4 SEP2        0.0000 
     18 N          57.2895    3.9780   16.6445 N.am      1 SEC2        0.0000 
     19 N          57.8810    2.4830   16.4550 N.am      4 SEP2        0.0000 
     20 N          58.3495   10.3405   20.1320 N.am      1 SEC2        0.0000 
     21 N          58.2660    8.8000   19.5050 N.am      7 SEL2        0.0000 
     22 N          58.4330   11.8810   20.7590 N.am      4 SEP2        0.0000 
     23 N          57.2915   10.0870   22.3525 N.am      1 SEC2        0.0000 
     24 N          57.6840    8.9920   21.6290 N.am      7 SEL2        0.0000 
     25 N          56.8990   11.1820   23.0760 N.am      4 SEP2        0.0000 
     26 N          58.0585   10.4365   21.1940 N.am      1 SEC2        0.0000 
     27 N          59.0375    9.0240   21.8825 N.am      1 SEC2        0.0000 
     28 N          60.3910    9.0560   22.1360 N.am      4 SEP2        0.0000 
     29 CA         55.5335    8.0870   23.0005 C.3       3 GLC5        0.0000 
     30 CA         55.5000    7.2640   21.2480 C.3       9 GLL5        0.0000 
     31 CA         55.5670    8.9100   24.7530 C.3       6 GLP5        0.0000 
     32 CA         56.4840    6.1310   22.9100 C.3       3 GLC5        0.0000 
     33 CA         57.4680    4.9980   24.5720 C.3       6 GLP5        0.0000 
     34 N          53.8370    5.7345   24.5655 N.am      1 SEC2        0.0000 
     35 N          54.1110    6.1180   23.4050 N.am      7 SEL2        0.0000 
     36 N          53.5630    5.3510   25.7260 N.am      4 SEP2        0.0000 
     37 N          54.9035    6.8395   24.2795 N.am      1 SEC2        0.0000 
     38 N          55.6960    7.5610   25.1540 N.am      4 SEP2        0.0000 
     39 N          52.8005    4.0520   22.4445 N.am      1 SEC2        0.0000 
     40 N          52.4740    5.4490   22.0810 N.am      7 SEL2        0.0000 
     41 CA         51.4805    4.5723   18.5562 C.3       3 GLC5        0.0000 
     42 CA         52.7000    2.8260   18.0870 C.3       9 GLL5        0.0000 
     43 CA         50.5970    6.2800   18.4310 C.3       6 GLP5        0.0000 
     44 CA         51.1820    2.9643   17.0168 C.3       3 GLC5        0.0000 
     45 CA         52.0280    2.9030   19.2760 C.3       9 GLL5        0.0000 
     46 CA         50.0000    3.0640   15.3520 C.3       6 GLP5        0.0000 
     47 CA         52.8483    5.6720   18.2460 C.3       3 GLC5        0.0000 
     48 CA         53.6870    3.8260   18.1320 C.3       9 GLL5        0.0000 
     49 CA         52.0640    7.1850   17.7450 C.3       6 GLP5        0.0000 
     50 CA         53.3567    6.5656   18.9225 C.3       3 GLC5        0.0000 
     51 CA         54.4430    5.6120   19.7990 C.3       9 GLL5        0.0000 
     52 CA         54.0360    7.6554   19.7747 C.3       3 GLC5        0.0000 
     53 CA         54.4920    6.2660   21.0730 C.3       9 GLL5        0.0000 
     54 CA         52.7460    8.5810   19.0850 C.3       6 GLP5        0.0000 
@<TRIPOS>BOND
@<TRIPOS>SUBSTRUCTURE
     1 SEC2        4 GROUP        1 X    SEC  0     ROOT SEC X 2
     2 LYC4        1 GROUP        1 X    LYC  0     **** LYC X 4
     3 GLC5       29 GROUP        1 X    GLC  0     **** GLC X 6
     4 SEP2        6 GROUP        1 Y    SEP  0     ROOT SEP Y 9
     5 LYP4        3 GROUP        1 Y    LYP  0     **** LYP Y 11
     6 GLP5       31 GROUP        1 Y    GLP  0     **** GLP Y 13
     7 SEL2        5 GROUP        1 Z    SEL  0     ROOT SEL Z 16
     8 LYL4        2 GROUP        1 Z    LYL  0     **** LYL Z 18
     9 GLL5       30 GROUP        1 Z    GLL  0     **** GLL Z 20
@<TRIPOS>SET

