#    Name: 2ad6_PQQ_2_ligand
#    Modification time : Mon Mar 24 19:03:12 2014

@<TRIPOS>MOLECULE
2ad6_PQQ_2_ligand
   27    29     1     0     0
SMALL
NO_CHARGES


@<TRIPOS>ATOM
      1 N1         52.5710    3.9200   20.0340 N.pl3     1 PQQ703      0.0000 
      2 C2         52.0280    2.9030   19.2760 C.2       1 PQQ703      0.0000 
      3 C2X        50.9660    1.9610   19.7420 C.2       1 PQQ703      0.0000 
      4 O2A        50.7870    1.8920   20.9720 O.co2     1 PQQ703      0.0000 
      5 O2B        50.3510    1.2990   18.8760 O.co2     1 PQQ703      0.0000 
      6 C3         52.7000    2.8260   18.0870 C.2       1 PQQ703      0.0000 
      7 C3A        53.6870    3.8260   18.1320 C.2       1 PQQ703      0.0000 
      8 C1A        53.5780    4.4920   19.3620 C.2       1 PQQ703      0.0000 
      9 C4         54.7110    4.1450   17.1550 C.2       1 PQQ703      0.0000 
     10 O4         55.0770    3.4470   16.2490 O.2       1 PQQ703      0.0000 
     11 C5         55.3750    5.5450   17.3250 C.2       1 PQQ703      0.0000 
     12 O5         56.6980    5.4730   16.8340 O.2       1 PQQ703      0.0000 
     13 C6A        55.4030    6.0190   18.8260 C.ar      1 PQQ703      0.0000 
     14 N6         56.3400    6.9590   19.0240 N.ar      1 PQQ703      0.0000 
     15 C7         56.3890    7.5740   20.2240 C.ar      1 PQQ703      0.0000 
     16 C7X        57.5300    8.5380   20.4770 C.2       1 PQQ703      0.0000 
     17 O7A        58.2660    8.8000   19.5050 O.co2     1 PQQ703      0.0000 
     18 O7B        57.6840    8.9920   21.6290 O.co2     1 PQQ703      0.0000 
     19 C8         55.5000    7.2640   21.2480 C.ar      1 PQQ703      0.0000 
     20 C9         54.4920    6.2660   21.0730 C.ar      1 PQQ703      0.0000 
     21 C9X        53.6280    5.8850   22.2750 C.2       1 PQQ703      0.0000 
     22 O9A        54.1110    6.1180   23.4050 O.co2     1 PQQ703      0.0000 
     23 O9B        52.4740    5.4490   22.0810 O.co2     1 PQQ703      0.0000 
     24 C9A        54.4430    5.6120   19.7990 C.ar      1 PQQ703      0.0000 
     25 H          52.2548    4.1654   20.9170 H         1 PQQ703      0.0000 
     26 H          52.5509    2.2368   17.3751 H         1 PQQ703      0.0000 
     27 H          55.5555    7.7521   22.1528 H         1 PQQ703      0.0000 
@<TRIPOS>BOND
     1    2    1 1    
     2    8    1 1    
     3   25    1 1    
     4    3    2 1    
     5    6    2 2    
     6    4    3 ar   
     7    5    3 ar   
     8    7    6 1    
     9   26    6 1    
    10    8    7 2    
    11    9    7 1    
    12   24    8 1    
    13   10    9 2    
    14   11    9 1    
    15   12   11 2    
    16   13   11 1    
    17   14   13 ar   
    18   24   13 ar   
    19   15   14 ar   
    20   16   15 1    
    21   19   15 ar   
    22   17   16 ar   
    23   18   16 ar   
    24   20   19 ar   
    25   27   19 1    
    26   21   20 1    
    27   24   20 ar   
    28   22   21 ar   
    29   23   21 ar   
@<TRIPOS>SUBSTRUCTURE
     1 PQQ703      1 GROUP   
@<TRIPOS>SET

