#    Name: 3saz_043_1_INTS_M
#    Modification time : Mon Apr  7 22:12:44 2014

@<TRIPOS>MOLECULE
3saz_043_1_INTS_M
   49     0     9     0     0
SMALL
NO_CHARGES


@<TRIPOS>ATOM
      1 Zn         38.9525   79.9455   62.2355 Zn        2 ZIC7        0.0000 
      2 Zn         39.0530   79.6030   63.3480 Zn        8 ZIL7        0.0000 
      3 Zn         38.8520   80.2880   61.1230 Zn        5 ZIP7        0.0000 
      4 N          40.1650   79.0450   63.9195 N.am      1 SEC2        0.0000 
      5 N          39.0530   79.6030   63.3480 N.am      7 SEL2        0.0000 
      6 N          41.2770   78.4870   64.4910 N.am      4 SEP2        0.0000 
      7 N          38.6705   78.9760   65.9710 N.am      1 SEC2        0.0000 
      8 N          37.6280   79.2350   65.0270 N.am      7 SEL2        0.0000 
      9 N          39.7130   78.7170   66.9150 N.am      4 SEP2        0.0000 
     10 Zn         37.7660   80.1855   61.5050 Zn        2 ZIC7        0.0000 
     11 Zn         36.6800   80.0830   61.8870 Zn        8 ZIL7        0.0000 
     12 N          36.0360   80.6230   60.5295 N.am      1 SEC2        0.0000 
     13 N          36.6800   80.0830   61.8870 N.am      7 SEL2        0.0000 
     14 N          35.3920   81.1630   59.1720 N.am      4 SEP2        0.0000 
     15 CA         36.2675   77.0050   64.5735 C.3       3 GLC5        0.0000 
     16 CA         35.6950   78.2480   63.0560 C.3       9 GLL5        0.0000 
     17 CA         36.8400   75.7620   66.0910 C.3       6 GLP5        0.0000 
     18 CA         34.6095   79.8355   62.6200 C.3       3 GLC5        0.0000 
     19 CA         33.5240   81.4230   62.1840 C.3       6 GLP5        0.0000 
     20 N          35.2660   79.7305   59.9725 N.am      1 SEC2        0.0000 
     21 N          35.1400   78.2980   60.7730 N.am      7 SEL2        0.0000 
     22 N          34.8745   78.8055   59.4190 N.am      1 SEC2        0.0000 
     23 N          34.6090   79.3130   58.0650 N.am      4 SEP2        0.0000 
     24 CA         33.2550   77.0070   64.1260 C.3       3 GLC5        0.0000 
     25 CA         34.2350   76.4460   62.2300 C.3       9 GLL5        0.0000 
     26 CA         32.2750   77.5680   66.0220 C.3       6 GLP5        0.0000 
     27 CA         33.7320   73.8745   65.4000 C.3       3 GLC5        0.0000 
     28 CA         33.8100   74.3180   63.3840 C.3       9 GLL5        0.0000 
     29 CA         33.6540   73.4310   67.4160 C.3       6 GLP5        0.0000 
     30 CA         31.4690   74.9495   58.5880 C.3       3 GLC5        0.0000 
     31 CA         30.6870   74.9310   60.5700 C.3       9 GLL5        0.0000 
     32 CA         32.2510   74.9680   56.6060 C.3       6 GLP5        0.0000 
     33 CA         30.5980   73.1095   61.4535 C.3       3 GLC5        0.0000 
     34 CA         30.5090   71.2880   62.3370 C.3       6 GLP5        0.0000 
     35 CA         31.5260   76.9300   62.4735 C.3       3 GLC5        0.0000 
     36 CA         33.0750   76.2930   61.4460 C.3       9 GLL5        0.0000 
     37 CA         29.9770   77.5670   63.5010 C.3       6 GLP5        0.0000 
     38 CA         34.9565   74.6340   61.1930 C.3       3 GLC5        0.0000 
     39 CA         35.4940   73.3120   59.6740 C.3       6 GLP5        0.0000 
     40 CA         35.5233   75.3270   64.6900 C.3       3 GLC5        0.0000 
     41 CA         34.6030   75.4660   63.1940 C.3       9 GLL5        0.0000 
     42 CA         34.3600   73.7752   61.3332 C.3       3 GLC5        0.0000 
     43 CA         32.4011   75.4677   64.2790 C.3       3 GLC5        0.0000 
     44 CA         32.6420   74.1590   62.6010 C.3       9 GLL5        0.0000 
     45 CA         31.3780   76.4100   65.6130 C.3       6 GLP5        0.0000 
     46 CA         31.4870   72.9685   62.2288 C.3       3 GLC5        0.0000 
     47 CA         30.7323   76.3010   62.3030 C.3       3 GLC5        0.0000 
     48 CA         32.2880   75.1390   61.6400 C.3       9 GLL5        0.0000 
     49 CA         34.0877   74.5140   60.6085 C.3       3 GLC5        0.0000 
@<TRIPOS>BOND
@<TRIPOS>SUBSTRUCTURE
     1 SEC2        4 GROUP        1 X    SEC  0     ROOT SEC X 2
     2 ZIC7        1 GROUP        1 X    ZIC  0     **** ZIC X 5
     3 GLC5       15 GROUP        1 X    GLC  0     **** GLC X 6
     4 SEP2        6 GROUP        1 Y    SEP  0     ROOT SEP Y 9
     5 ZIP7        3 GROUP        1 Y    ZIP  0     **** ZIP Y 12
     6 GLP5       17 GROUP        1 Y    GLP  0     **** GLP Y 13
     7 SEL2        5 GROUP        1 Z    SEL  0     ROOT SEL Z 16
     8 ZIL7        2 GROUP        1 Z    ZIL  0     **** ZIL Z 19
     9 GLL5       16 GROUP        1 Z    GLL  0     **** GLL Z 20
@<TRIPOS>SET

