#    Name: 3saz_043_1_ligand
#    Modification time : Mon Apr  7 22:12:44 2014

@<TRIPOS>MOLECULE
3saz_043_1_ligand
   21    21     1     0     0
SMALL
NO_CHARGES


@<TRIPOS>ATOM
      1 O01        39.0530   79.6030   63.3480 O.co2     1 043801      0.0000 
      2 C02        37.7770   79.5560   63.8870 C.2       1 043801      0.0000 
      3 O03        37.6280   79.2350   65.0270 O.co2     1 043801      0.0000 
      4 C04        36.6520   79.4250   62.8800 C.2       1 043801      0.0000 
      5 O05        36.6800   80.0830   61.8870 O.2       1 043801      0.0000 
      6 C06        35.6950   78.2480   63.0560 C.3       1 043801      0.0000 
      7 C07        35.1030   77.6860   62.0230 C.2       1 043801      0.0000 
      8 O08        35.1400   78.2980   60.7730 O.2       1 043801      0.0000 
      9 C09        34.2350   76.4460   62.2300 C.ar      1 043801      0.0000 
     10 C10        34.6030   75.4660   63.1940 C.ar      1 043801      0.0000 
     11 C11        33.8100   74.3180   63.3840 C.ar      1 043801      0.0000 
     12 C12        32.6420   74.1590   62.6010 C.ar      1 043801      0.0000 
     13 C13        32.2880   75.1390   61.6400 C.ar      1 043801      0.0000 
     14 BR14       30.6870   74.9310   60.5700 Br        1 043801      0.0000 
     15 C15        33.0750   76.2930   61.4460 C.ar      1 043801      0.0000 
     16 H          34.9362   78.6105   63.8577 H         1 043801      0.0000 
     17 H          36.2931   77.4827   63.6936 H         1 043801      0.0000 
     18 H          35.4513   75.6026   63.7499 H         1 043801      0.0000 
     19 H          34.0681   73.6170   64.0678 H         1 043801      0.0000 
     20 H          32.0513   73.3355   62.7280 H         1 043801      0.0000 
     21 H          32.8136   76.9893   60.7642 H         1 043801      0.0000 
@<TRIPOS>BOND
     1    2    1 ar   
     2    3    2 ar   
     3    4    2 1    
     4    5    4 2    
     5    6    4 1    
     6    7    6 1    
     7   16    6 1    
     8   17    6 1    
     9    8    7 2    
    10    9    7 1    
    11   10    9 ar   
    12   15    9 ar   
    13   11   10 ar   
    14   18   10 1    
    15   12   11 ar   
    16   19   11 1    
    17   13   12 ar   
    18   20   12 1    
    19   14   13 1    
    20   15   13 ar   
    21   21   15 1    
@<TRIPOS>SUBSTRUCTURE
     1 043801      1 GROUP   
@<TRIPOS>SET

