#    Name: 1w22_NHB_1_INTS_M
#    Modification time : Tue Mar 25 08:30:39 2014

@<TRIPOS>MOLECULE
1w22_NHB_1_INTS_M
   41     0     9     0     0
SMALL
NO_CHARGES


@<TRIPOS>ATOM
      1 CA          2.0215   18.4500   26.0290 C.3       3 GLC5        0.0000 
      2 CA          1.4250   16.3410   25.9190 C.3       9 GLL5        0.0000 
      3 CA          2.6180   20.5590   26.1390 C.3       6 GLP5        0.0000 
      4 Zn          2.9920    9.8900   30.6820 Zn        2 ZIC7        0.0000 
      5 Zn          1.5790   13.5120   31.1630 Zn        8 ZIL7        0.0000 
      6 Zn          4.4050    6.2680   30.2010 Zn        5 ZIP7        0.0000 
      7 CA         -1.1120   15.0190   31.9510 C.3       3 GLC5        0.0000 
      8 CA          0.2250   14.0170   31.3970 C.3       9 GLL5        0.0000 
      9 CA         -2.4490   16.0210   32.5050 C.3       6 GLP5        0.0000 
     10 CA         -0.2565   12.7020   32.6460 C.3       3 GLC5        0.0000 
     11 CA         -0.7380   11.3870   33.8950 C.3       6 GLP5        0.0000 
     12 CA         -0.8570   13.6945   30.2725 C.3       3 GLC5        0.0000 
     13 CA         -1.9390   13.3720   29.1480 C.3       6 GLP5        0.0000 
     14 CA          4.2160    9.7175   32.0530 C.3       3 GLC5        0.0000 
     15 CA          2.1070   10.0300   32.0740 C.3       9 GLL5        0.0000 
     16 CA          6.3250    9.4050   32.0320 C.3       6 GLP5        0.0000 
     17 CA          4.1145    8.7515   31.4710 C.3       3 GLC5        0.0000 
     18 CA          2.2150    9.4130   30.8330 C.3       9 GLL5        0.0000 
     19 CA          6.0140    8.0900   32.1090 C.3       6 GLP5        0.0000 
     20 Zn          3.5135    6.8105   29.9120 Zn        2 ZIC7        0.0000 
     21 Zn          2.6220    7.3530   29.6230 Zn        8 ZIL7        0.0000 
     22 O           2.6440    7.4295   33.1335 O.2       1 ALC1        0.0000 
     23 O           2.6130    7.2120   31.8290 O.2       7 ALL1        0.0000 
     24 O           2.6750    7.6470   34.4380 O.2       4 ALP1        0.0000 
     25 Zn          3.7040    6.0905   31.0050 Zn        2 ZIC7        0.0000 
     26 Zn          3.0030    5.9130   31.8090 Zn        8 ZIL7        0.0000 
     27 O           2.7840    5.2365   32.9320 O.2       1 ALC1        0.0000 
     28 O           3.0030    5.9130   31.8090 O.2       7 ALL1        0.0000 
     29 O           2.5650    4.5600   34.0550 O.2       4 ALP1        0.0000 
     30 CA          1.7567   19.0110   24.9720 C.3       3 GLC5        0.0000 
     31 CA          1.5680   17.2580   23.7770 C.3       9 GLL5        0.0000 
     32 CA          4.7865   13.3815   27.3272 C.3       3 GLC5        0.0000 
     33 CA          3.0260   14.7700   27.0280 C.3       9 GLL5        0.0000 
     34 CA          6.3720   12.2130   27.0080 C.3       6 GLP5        0.0000 
     35 CA          0.6191   11.1505   32.8724 C.3       3 GLC5        0.0000 
     36 CA          1.7258    8.9336   33.1036 C.3       3 GLC5        0.0000 
     37 CA          1.9010   11.4010   32.1890 C.3       9 GLL5        0.0000 
     38 CA          1.3420    7.8030   34.7250 C.3       6 GLP5        0.0000 
     39 CA          3.7759   16.2266   28.4269 C.3       3 GLC5        0.0000 
     40 CA          2.6550   14.8870   29.2430 C.3       9 GLL5        0.0000 
     41 CA          4.8410   17.5030   28.7740 C.3       6 GLP5        0.0000 
@<TRIPOS>BOND
@<TRIPOS>SUBSTRUCTURE
     1 ALC1       22 GROUP        1 X    ALC  0     ROOT ALC X 1
     2 ZIC7        4 GROUP        1 X    ZIC  0     **** ZIC X 5
     3 GLC5        1 GROUP        1 X    GLC  0     **** GLC X 6
     4 ALP1       24 GROUP        1 Y    ALP  0     ROOT ALP Y 8
     5 ZIP7        6 GROUP        1 Y    ZIP  0     **** ZIP Y 12
     6 GLP5        3 GROUP        1 Y    GLP  0     **** GLP Y 13
     7 ALL1       23 GROUP        1 Z    ALL  0     ROOT ALL Z 15
     8 ZIL7        5 GROUP        1 Z    ZIL  0     **** ZIL Z 19
     9 GLL5        2 GROUP        1 Z    GLL  0     **** GLL Z 20
@<TRIPOS>SET

