#    Name: 1w22_NHB_1_ligand
#    Modification time : Tue Mar 25 08:30:39 2014

@<TRIPOS>MOLECULE
1w22_NHB_1_ligand
   41    43     1     0     0
SMALL
NO_CHARGES


@<TRIPOS>ATOM
      1 C7          0.0760   16.7330   26.0190 C.ar      1 NHB1378     0.0000 
      2 C8         -0.5380   17.4090   24.9680 C.ar      1 NHB1378     0.0000 
      3 C9          0.2230   17.6680   23.8330 C.ar      1 NHB1378     0.0000 
      4 C10         1.5680   17.2580   23.7770 C.ar      1 NHB1378     0.0000 
      5 N11         2.1420   16.6230   24.7980 N.ar      1 NHB1378     0.0000 
      6 C6          1.4250   16.3410   25.9190 C.ar      1 NHB1378     0.0000 
      7 C4          2.0230   15.6770   26.9930 C.2       1 NHB1378     0.0000 
      8 S5          1.5490   15.9510   28.5730 S.3       1 NHB1378     0.0000 
      9 C3          3.0260   14.7700   27.0280 C.2       1 NHB1378     0.0000 
     10 C2          3.3760   14.3300   28.2650 C.2       1 NHB1378     0.0000 
     11 C1          2.6550   14.8870   29.2430 C.2       1 NHB1378     0.0000 
     12 S12         2.8020   14.5870   30.9670 S.o2      1 NHB1378     0.0000 
     13 O13         2.5870   15.8440   31.7380 O.2       1 NHB1378     0.0000 
     14 O14         4.1650   14.0270   31.3020 O.2       1 NHB1378     0.0000 
     15 N15         1.5790   13.5120   31.1630 N.pl3     1 NHB1378     0.0000 
     16 C16         0.2250   14.0170   31.3970 C.3       1 NHB1378     0.0000 
     17 C17         1.7900   12.1950   31.0620 C.ar      1 NHB1378     0.0000 
     18 C18         1.9010   11.4010   32.1890 C.ar      1 NHB1378     0.0000 
     19 C19         2.1070   10.0300   32.0740 C.ar      1 NHB1378     0.0000 
     20 C22         1.8930   11.5980   29.8170 C.ar      1 NHB1378     0.0000 
     21 C21         2.0970   10.2230   29.7070 C.ar      1 NHB1378     0.0000 
     22 C20         2.2150    9.4130   30.8330 C.ar      1 NHB1378     0.0000 
     23 C23         2.4840    7.8900   30.7090 C.2       1 NHB1378     0.0000 
     24 O25         2.6220    7.3530   29.6230 O.2       1 NHB1378     0.0000 
     25 N24         2.6130    7.2120   31.8290 N.am      1 NHB1378     0.0000 
     26 O26         3.0030    5.9130   31.8090 O.3       1 NHB1378     0.0000 
     27 H          -0.4507   16.5161   26.8734 H         1 NHB1378     0.0000 
     28 H          -1.5049   17.7016   25.0285 H         1 NHB1378     0.0000 
     29 H          -0.1900   18.1581   23.0318 H         1 NHB1378     0.0000 
     30 H           2.0996   17.4711   22.9029 H         1 NHB1378     0.0000 
     31 H           3.4862   14.4398   26.1918 H         1 NHB1378     0.0000 
     32 H           4.0983   13.6600   28.4155 H         1 NHB1378     0.0000 
     33 H           1.8306   11.8275   33.1285 H         1 NHB1378     0.0000 
     34 H           2.1818    9.4544   32.9356 H         1 NHB1378     0.0000 
     35 H           1.8189   12.1708   28.9619 H         1 NHB1378     0.0000 
     36 H           2.1622    9.7947   28.7639 H         1 NHB1378     0.0000 
     37 H           2.4165    7.6643   32.7568 H         1 NHB1378     0.0000 
     38 H           0.1747   14.5748   32.2255 H         1 NHB1378     0.0000 
     39 H          -0.0948   14.5869   30.6401 H         1 NHB1378     0.0000 
     40 H          -0.4354   13.2737   31.5036 H         1 NHB1378     0.0000 
     41 H           2.9964    5.6261   32.7669 H         1 NHB1378     0.0000 
@<TRIPOS>BOND
     1    2    1 ar   
     2    6    1 ar   
     3   27    1 1    
     4    3    2 ar   
     5   28    2 1    
     6    4    3 ar   
     7   29    3 1    
     8    5    4 ar   
     9   30    4 1    
    10    6    5 ar   
    11    7    6 1    
    12    8    7 1    
    13    9    7 2    
    14   11    8 1    
    15   10    9 1    
    16   31    9 1    
    17   11   10 2    
    18   32   10 1    
    19   12   11 1    
    20   13   12 2    
    21   14   12 2    
    22   15   12 1    
    23   16   15 1    
    24   17   15 1    
    25   38   16 1    
    26   39   16 1    
    27   40   16 1    
    28   18   17 ar   
    29   20   17 ar   
    30   19   18 ar   
    31   33   18 1    
    32   22   19 ar   
    33   34   19 1    
    34   21   20 ar   
    35   35   20 1    
    36   22   21 ar   
    37   36   21 1    
    38   23   22 1    
    39   24   23 2    
    40   25   23 am   
    41   26   25 1    
    42   37   25 1    
    43   41   26 1    
@<TRIPOS>SUBSTRUCTURE
     1 NHB1378     1 GROUP   
@<TRIPOS>SET

