#    Name: 3jzb_4HY_1_INTS_M
#    Modification time : Tue Mar 25 18:04:02 2014

@<TRIPOS>MOLECULE
3jzb_4HY_1_INTS_M
   87     0     9     0     0
SMALL
NO_CHARGES


@<TRIPOS>ATOM
      1 CA         26.8035   39.0935   36.1070 C.3       3 GLC5        0.0000 
      2 CA         25.8560   38.8320   34.4270 C.3       9 GLL5        0.0000 
      3 CA         27.7510   39.3550   37.7870 C.3       6 GLP5        0.0000 
      4 CA         24.0140   39.5310   33.6865 C.3       3 GLC5        0.0000 
      5 CA         22.1720   40.2300   32.9460 C.3       6 GLP5        0.0000 
      6 CA         27.5480   42.0090   29.3580 C.3       3 GLC5        0.0000 
      7 CA         28.1110   40.1440   29.3190 C.3       9 GLL5        0.0000 
      8 CA         26.9850   43.8740   29.3970 C.3       6 GLP5        0.0000 
      9 CA         26.3290   39.7740   28.1745 C.3       3 GLC5        0.0000 
     10 CA         24.5470   39.4040   27.0300 C.3       6 GLP5        0.0000 
     11 CA         28.2100   38.9840   27.5705 C.3       3 GLC5        0.0000 
     12 CA         28.3090   37.8240   25.8220 C.3       6 GLP5        0.0000 
     13 CA         28.6455   40.0490   33.7885 C.3       3 GLC5        0.0000 
     14 CA         26.6850   39.2400   33.2280 C.3       9 GLL5        0.0000 
     15 CA         30.6060   40.8580   34.3490 C.3       6 GLP5        0.0000 
     16 CA         29.9720   37.7705   28.1475 C.3       3 GLC5        0.0000 
     17 CA         30.1980   38.0660   30.1120 C.3       9 GLL5        0.0000 
     18 CA         29.7460   37.4750   26.1830 C.3       6 GLP5        0.0000 
     19 CA         26.3925   38.1225   36.7960 C.3       3 GLC5        0.0000 
     20 CA         25.0340   36.8900   35.8050 C.3       9 GLL5        0.0000 
     21 CA         26.7850   35.7000   35.4055 C.3       3 GLC5        0.0000 
     22 CA         28.5360   34.5100   35.0060 C.3       6 GLP5        0.0000 
     23 CA         23.4795   38.1835   36.6910 C.3       3 GLC5        0.0000 
     24 CA         21.9250   39.4770   37.5770 C.3       6 GLP5        0.0000 
     25 CA         26.9395   42.5925   31.1485 C.3       3 GLC5        0.0000 
     26 CA         26.8940   41.3110   32.9000 C.3       9 GLL5        0.0000 
     27 CA         26.0310   42.8380   33.8330 C.3       3 GLC5        0.0000 
     28 CA         25.1680   44.3650   34.7660 C.3       6 GLP5        0.0000 
     29 CA         28.6280   41.8350   33.6845 C.3       3 GLC5        0.0000 
     30 CA         30.3620   42.3590   34.4690 C.3       6 GLP5        0.0000 
     31 CA         25.0360   41.0230   31.7965 C.3       3 GLC5        0.0000 
     32 CA         23.1780   40.7350   30.6930 C.3       6 GLP5        0.0000 
     33 CA         30.9220   43.1795   26.5700 C.3       3 GLC5        0.0000 
     34 CA         30.0480   41.5810   27.3320 C.3       9 GLL5        0.0000 
     35 CA         31.7960   44.7780   25.8080 C.3       6 GLP5        0.0000 
     36 CA         28.0800   42.4675   27.2210 C.3       3 GLC5        0.0000 
     37 CA         26.1120   43.3540   27.1100 C.3       6 GLP5        0.0000 
     38 CA         30.0995   41.6845   25.2415 C.3       3 GLC5        0.0000 
     39 CA         30.1510   41.7880   23.1510 C.3       6 GLP5        0.0000 
     40 CA         29.8970   39.5280   26.7575 C.3       3 GLC5        0.0000 
     41 CA         31.7740   40.7150   26.2090 C.3       3 GLC5        0.0000 
     42 CA         33.5000   39.8490   25.0860 C.3       6 GLP5        0.0000 
     43 CA         27.9135   35.1150   29.6985 C.3       3 GLC5        0.0000 
     44 CA         25.9820   35.8530   30.3270 C.3       9 GLL5        0.0000 
     45 CA         29.8450   34.3770   29.0700 C.3       6 GLP5        0.0000 
     46 CA         26.1500   33.8310   31.2345 C.3       3 GLC5        0.0000 
     47 CA         26.3180   31.8090   32.1420 C.3       6 GLP5        0.0000 
     48 CA         24.3030   35.2015   31.3485 C.3       3 GLC5        0.0000 
     49 CA         22.6240   34.5500   32.3700 C.3       6 GLP5        0.0000 
     50 CA         24.2360   37.0995   30.8145 C.3       3 GLC5        0.0000 
     51 CA         22.4900   38.3460   31.3020 C.3       6 GLP5        0.0000 
     52 CA         26.6720   36.3930   28.4845 C.3       3 GLC5        0.0000 
     53 CA         27.3620   36.9330   26.6420 C.3       6 GLP5        0.0000 
     54 CA         26.0770   34.5135   29.1505 C.3       3 GLC5        0.0000 
     55 CA         26.1720   33.1740   27.9740 C.3       6 GLP5        0.0000 
     56 NZ         21.7965   36.3680   35.9505 N.4       2 LYC4        0.0000 
     57 NZ         22.9020   36.6920   35.3870 N.4       8 LYL4        0.0000 
     58 NZ         20.3340   35.7710   37.7660 N.4       5 LYP4        0.0000 
     59 N          21.7965   36.3680   35.9505 N.am      1 SEC2        0.0000 
     60 N          22.9020   36.6920   35.3870 N.am      7 SEL2        0.0000 
     61 N          20.6910   36.0440   36.5140 N.am      4 SEP2        0.0000 
     62 N          22.3595   37.8940   35.7755 N.am      1 SEC2        0.0000 
     63 N          21.8170   39.0960   36.1640 N.am      4 SEP2        0.0000 
     64 NZ         22.4170   36.0525   38.1375 N.4       2 LYC4        0.0000 
     65 NZ         23.5720   36.3750   37.5600 N.4       8 LYL4        0.0000 
     66 N          22.1315   36.2095   37.0370 N.am      1 SEC2        0.0000 
     67 N          23.5720   36.3750   37.5600 N.am      7 SEL2        0.0000 
     68 N          22.4170   36.0525   38.1375 N.am      1 SEC2        0.0000 
     69 N          21.2620   35.7300   38.7150 N.am      4 SEP2        0.0000 
     70 CA         23.9490   37.6268   32.5832 C.3       3 GLC5        0.0000 
     71 CA         25.5310   36.3950   33.3040 C.3       9 GLL5        0.0000 
     72 CA         27.8438   37.7215   28.5950 C.3       3 GLC5        0.0000 
     73 CA         28.8290   37.9970   30.7480 C.3       9 GLL5        0.0000 
     74 CA         30.5130   40.0360   30.9153 C.3       3 GLC5        0.0000 
     75 CA         29.4720   40.1500   28.7260 C.3       9 GLL5        0.0000 
     76 CA         31.0330   40.4080   32.9370 C.3       6 GLP5        0.0000 
     77 CA         29.8695   38.5695   27.5382 C.3       3 GLC5        0.0000 
     78 CA         30.5140   39.1780   29.0610 C.3       9 GLL5        0.0000 
     79 CA         24.5617   37.9512   31.7037 C.3       3 GLC5        0.0000 
     80 CA         26.9030   38.2820   32.0950 C.3       9 GLL5        0.0000 
     81 CA         27.2110   35.6896   33.9981 C.3       3 GLC5        0.0000 
     82 CA         26.3640   36.8310   32.1160 C.3       9 GLL5        0.0000 
     83 CA         24.2550   35.7096   32.6801 C.3       3 GLC5        0.0000 
     84 CA         30.1474   39.3480   31.6335 C.3       3 GLC5        0.0000 
     85 CA         27.8220   39.0230   30.3480 C.3       9 GLL5        0.0000 
     86 CA         30.0892   36.1893   30.5840 C.3       3 GLC5        0.0000 
     87 CA         30.6650   34.3470   30.7380 C.3       6 GLP5        0.0000 
@<TRIPOS>BOND
@<TRIPOS>SUBSTRUCTURE
     1 SEC2       59 GROUP        1 X    SEC  0     ROOT SEC X 2
     2 LYC4       56 GROUP        1 X    LYC  0     **** LYC X 4
     3 GLC5        1 GROUP        1 X    GLC  0     **** GLC X 6
     4 SEP2       61 GROUP        1 Y    SEP  0     ROOT SEP Y 9
     5 LYP4       58 GROUP        1 Y    LYP  0     **** LYP Y 11
     6 GLP5        3 GROUP        1 Y    GLP  0     **** GLP Y 13
     7 SEL2       60 GROUP        1 Z    SEL  0     ROOT SEL Z 16
     8 LYL4       57 GROUP        1 Z    LYL  0     **** LYL Z 18
     9 GLL5        2 GROUP        1 Z    GLL  0     **** GLL Z 20
@<TRIPOS>SET

