#    Name: 3jzb_4HY_1_ligand
#    Modification time : Tue Mar 25 18:04:02 2014

@<TRIPOS>MOLECULE
3jzb_4HY_1_ligand
   29    30     1     0     0
SMALL
NO_CHARGES


@<TRIPOS>ATOM
      1 C1         25.2850   37.4200   34.4250 C.ar      1 4HY1        0.0000 
      2 C2         27.8220   39.0230   30.3480 C.ar      1 4HY1        0.0000 
      3 C3         25.8560   38.8320   34.4270 C.ar      1 4HY1        0.0000 
      4 C4         28.1110   40.1440   29.3190 C.ar      1 4HY1        0.0000 
      5 C5         26.6850   39.2400   33.2280 C.ar      1 4HY1        0.0000 
      6 C6         29.4720   40.1500   28.7260 C.ar      1 4HY1        0.0000 
      7 C7         26.9030   38.2820   32.0950 C.ar      1 4HY1        0.0000 
      8 C8         30.5140   39.1780   29.0610 C.ar      1 4HY1        0.0000 
      9 C9         26.3640   36.8310   32.1160 C.ar      1 4HY1        0.0000 
     10 C10        30.1980   38.0660   30.1120 C.ar      1 4HY1        0.0000 
     11 C11        25.5310   36.3950   33.3040 C.ar      1 4HY1        0.0000 
     12 C12        28.8290   37.9970   30.7480 C.ar      1 4HY1        0.0000 
     13 C13        25.0340   36.8900   35.8050 C.3       1 4HY1        0.0000 
     14 C14        23.6530   36.9530   36.2710 C.2       1 4HY1        0.0000 
     15 I1         26.8940   41.3110   32.9000 I         1 4HY1        0.0000 
     16 I2         30.0480   41.5810   27.3320 I         1 4HY1        0.0000 
     17 I3         25.9820   35.8530   30.3270 I         1 4HY1        0.0000 
     18 O3         22.9020   36.6920   35.3870 O.co2     1 4HY1        0.0000 
     19 O2         26.5940   38.8780   30.9100 O.3       1 4HY1        0.0000 
     20 O1         31.7790   39.2920   28.4610 O.3       1 4HY1        0.0000 
     21 O4         23.5720   36.3750   37.5600 O.co2     1 4HY1        0.0000 
     22 H          25.6944   39.4349   35.1603 H         1 4HY1        0.0000 
     23 H          27.4318   40.7810   29.0988 H         1 4HY1        0.0000 
     24 H          30.9011   37.4249   30.3434 H         1 4HY1        0.0000 
     25 H          25.1612   35.5041   33.3658 H         1 4HY1        0.0000 
     26 H          28.6189   37.3011   31.3979 H         1 4HY1        0.0000 
     27 H          25.7009   37.4416   36.5186 H         1 4HY1        0.0000 
     28 H          25.4002   35.8304   35.8451 H         1 4HY1        0.0000 
     29 H          32.3564   39.8694   29.0384 H         1 4HY1        0.0000 
@<TRIPOS>BOND
     1    3    1 ar   
     2   11    1 ar   
     3   13    1 1    
     4    4    2 ar   
     5   12    2 ar   
     6   19    2 1    
     7    5    3 ar   
     8   22    3 1    
     9    6    4 ar   
    10   23    4 1    
    11    7    5 ar   
    12   15    5 1    
    13    8    6 ar   
    14   16    6 1    
    15    9    7 ar   
    16   19    7 1    
    17   10    8 ar   
    18   20    8 1    
    19   11    9 ar   
    20   17    9 1    
    21   12   10 ar   
    22   24   10 1    
    23   25   11 1    
    24   26   12 1    
    25   14   13 1    
    26   27   13 1    
    27   28   13 1    
    28   18   14 ar   
    29   21   14 ar   
    30   29   20 1    
@<TRIPOS>SUBSTRUCTURE
     1 4HY1        1 GROUP   
@<TRIPOS>SET

