#    Name: 1mc5_AHE_1_INTS_M
#    Modification time : Tue Mar 25 11:33:51 2014

@<TRIPOS>MOLECULE
1mc5_AHE_1_INTS_M
   67     0    18     0     0
SMALL
NO_CHARGES


@<TRIPOS>ATOM
      1 OD1        47.9900   21.8805   -0.7195 O.co2     3 ASC3        0.0000 
      2 OD1        48.7380   22.8250    0.2300 O.co2    15 ASL3        0.0000 
      3 OD1        47.2420   20.9360   -1.6690 O.co2     9 ASP3        0.0000 
      4 OD1        48.4415   24.2335   -0.4040 O.co2     3 ASC3        0.0000 
      5 OD1        48.1450   25.6420   -1.0380 O.co2     9 ASP3        0.0000 
      6 O          47.9900   21.8805   -0.7195 O.2       1 ALC1        0.0000 
      7 O          48.7380   22.8250    0.2300 O.2      13 ALL1        0.0000 
      8 O          47.2420   20.9360   -1.6690 O.2       7 ALP1        0.0000 
      9 O          48.4415   24.2335   -0.4040 O.2       1 ALC1        0.0000 
     10 O          48.1450   25.6420   -1.0380 O.2       7 ALP1        0.0000 
     11 CA         47.3375   21.4035    1.2460 C.3       6 GLC5        0.0000 
     12 CA         49.0100   22.3740    1.6030 C.3      18 GLL5        0.0000 
     13 CA         45.6650   20.4330    0.8890 C.3      12 GLP5        0.0000 
     14 CA         50.0605   24.0735    3.5420 C.3       6 GLC5        0.0000 
     15 CA         50.3820   22.9100    2.0230 C.3      18 GLL5        0.0000 
     16 CA         49.7390   25.2370    5.0610 C.3      12 GLP5        0.0000 
     17 CA         57.4745   23.5500   -0.7565 C.3       6 GLC5        0.0000 
     18 CA         56.1680   22.7040    0.3000 C.3      18 GLL5        0.0000 
     19 CA         58.7810   24.3960   -1.8130 C.3      12 GLP5        0.0000 
     20 CA         56.0445   22.5605   -1.8840 C.3       6 GLC5        0.0000 
     21 CA         55.9210   22.4170   -4.0680 C.3      12 GLP5        0.0000 
     22 CA         55.1075   19.6825   -0.7990 C.3       6 GLC5        0.0000 
     23 CA         56.1580   20.8960    0.4430 C.3      18 GLL5        0.0000 
     24 CA         54.0570   18.4690   -2.0410 C.3      12 GLP5        0.0000 
     25 CA         55.1405   20.0110    1.6660 C.3       6 GLC5        0.0000 
     26 CA         54.1230   19.1260    2.8890 C.3      12 GLP5        0.0000 
     27 CA         56.3510   18.9460   -1.4125 C.3       6 GLC5        0.0000 
     28 CA         57.5760   20.4820   -0.5920 C.3      18 GLL5        0.0000 
     29 CA         55.1260   17.4100   -2.2330 C.3      12 GLP5        0.0000 
     30 CA         57.9955   20.3120   -2.7855 C.3       6 GLC5        0.0000 
     31 CA         58.4150   20.1420   -4.9790 C.3      12 GLP5        0.0000 
     32 CA         58.6695   21.9615   -1.3085 C.3       6 GLC5        0.0000 
     33 CA         59.7630   23.4410   -2.0250 C.3      12 GLP5        0.0000 
     34 CA         56.7485   21.4495   -2.3300 C.3       6 GLC5        0.0000 
     35 CA         59.1250   20.0980   -1.3230 C.3       6 GLC5        0.0000 
     36 CA         60.6740   19.7140   -2.0540 C.3      12 GLP5        0.0000 
     37 CA         58.5990   19.9615    0.4335 C.3       6 GLC5        0.0000 
     38 CA         59.6220   19.4410    1.4590 C.3      12 GLP5        0.0000 
     39 Zn         57.9855   19.0045   -1.9840 Zn        5 ZIC7        0.0000 
     40 Zn         57.1820   19.4930   -1.5420 Zn       17 ZIL7        0.0000 
     41 Zn         58.7890   18.5160   -2.4260 Zn       11 ZIP7        0.0000 
     42 N          56.5630   18.4295   -1.2995 N.am      2 SEC2        0.0000 
     43 N          57.1820   19.4930   -1.5420 N.am     14 SEL2        0.0000 
     44 N          55.9440   17.3660   -1.0570 N.am      8 SEP2        0.0000 
     45 CA         55.8580   28.4220    2.5960 C.3       6 GLC5        0.0000 
     46 CA         54.3390   26.9820    2.1130 C.3      18 GLL5        0.0000 
     47 CA         57.3770   29.8620    3.0790 C.3      12 GLP5        0.0000 
     48 CA         56.1775   26.5340    2.9355 C.3       6 GLC5        0.0000 
     49 CA         58.0160   26.0860    3.7580 C.3      12 GLP5        0.0000 
     50 CA         53.2480   27.5485    3.8945 C.3       6 GLC5        0.0000 
     51 CA         52.1570   28.1150    5.6760 C.3      12 GLP5        0.0000 
     52 NZ         51.2605   26.9090    0.2655 N.4       4 LYC4        0.0000 
     53 NZ         52.2530   26.3690    1.1650 N.4      16 LYL4        0.0000 
     54 NZ         50.5300   28.5590   -1.3120 N.4      10 LYP4        0.0000 
     55 N          51.2605   26.9090    0.2655 N.am      2 SEC2        0.0000 
     56 N          52.2530   26.3690    1.1650 N.am     14 SEL2        0.0000 
     57 N          50.2680   27.4490   -0.6340 N.am      8 SEP2        0.0000 
     58 NZ         51.4365   28.0005    0.3545 N.4       4 LYC4        0.0000 
     59 NZ         52.6050   28.5520    1.3430 N.4      16 LYL4        0.0000 
     60 N          52.1155   28.9040    0.1525 N.am      2 SEC2        0.0000 
     61 N          52.6050   28.5520    1.3430 N.am     14 SEL2        0.0000 
     62 N          51.6260   29.2560   -1.0380 N.am      8 SEP2        0.0000 
     63 N          51.4365   28.0005    0.3545 N.am      2 SEC2        0.0000 
     64 CA         51.2860   20.6382    2.2320 C.3       6 GLC5        0.0000 
     65 CA         51.6370   18.7880    2.7670 C.3      12 GLP5        0.0000 
     66 CA         57.4535   20.7540    1.4112 C.3       6 GLC5        0.0000 
     67 CA         58.7440   19.7080    2.4510 C.3      12 GLP5        0.0000 
@<TRIPOS>BOND
@<TRIPOS>SUBSTRUCTURE
     1 ALC1        6 GROUP        1 X    ALC  0     ROOT ALC X 1
     2 SEC2       42 GROUP        1 X    SEC  0     **** SEC X 2
     3 ASC3        1 GROUP        1 X    ASC  0     **** ASC X 3
     4 LYC4       52 GROUP        1 X    LYC  0     **** LYC X 4
     5 ZIC7       39 GROUP        1 X    ZIC  0     **** ZIC X 5
     6 GLC5       11 GROUP        1 X    GLC  0     **** GLC X 6
     7 ALP1        8 GROUP        1 Y    ALP  0     ROOT ALP Y 8
     8 SEP2       44 GROUP        1 Y    SEP  0     **** SEP Y 9
     9 ASP3        3 GROUP        1 Y    ASP  0     **** ASP Y 10
    10 LYP4       54 GROUP        1 Y    LYP  0     **** LYP Y 11
    11 ZIP7       41 GROUP        1 Y    ZIP  0     **** ZIP Y 12
    12 GLP5       13 GROUP        1 Y    GLP  0     **** GLP Y 13
    13 ALL1        7 GROUP        1 Z    ALL  0     ROOT ALL Z 15
    14 SEL2       43 GROUP        1 Z    SEL  0     **** SEL Z 16
    15 ASL3        2 GROUP        1 Z    ASL  0     **** ASL Z 17
    16 LYL4       53 GROUP        1 Z    LYL  0     **** LYL Z 18
    17 ZIL7       40 GROUP        1 Z    ZIL  0     **** ZIL Z 19
    18 GLL5       12 GROUP        1 Z    GLL  0     **** GLL Z 20
@<TRIPOS>SET

