#    Name: 1mc5_AHE_1_ligand
#    Modification time : Tue Mar 25 11:33:51 2014

@<TRIPOS>MOLECULE
1mc5_AHE_1_ligand
   39    38     1     0     0
SMALL
NO_CHARGES


@<TRIPOS>ATOM
      1 N1         48.7380   22.8250    0.2300 N.4       1 AHE404      0.0000 
      2 CA1        49.0100   22.3740    1.6030 C.3       1 AHE404      0.0000 
      3 CB1        50.3820   22.9100    2.0230 C.3       1 AHE404      0.0000 
      4 CG1        51.4880   22.0670    1.3710 C.3       1 AHE404      0.0000 
      5 CD1        52.8440   22.5700    1.8090 C.2       1 AHE404      0.0000 
      6 OE1        53.0890   22.6790    2.9980 O.2       1 AHE404      0.0000 
      7 N2         53.7800   22.9120    0.8770 N.am      1 AHE404      0.0000 
      8 CA2        55.1430   23.3180    1.2760 C.3       1 AHE404      0.0000 
      9 CB2        56.1680   22.7040    0.3000 C.3       1 AHE404      0.0000 
     10 SG2        56.1580   20.8960    0.4430 S.3       1 AHE404      0.0000 
     11 CD2        57.5760   20.4820   -0.5920 C.3       1 AHE404      0.0000 
     12 OE2        57.1820   19.4930   -1.5420 O.3       1 AHE404      0.0000 
     13 C2         55.2130   24.8330    1.2470 C.2       1 AHE404      0.0000 
     14 O2         55.8420   25.4180    0.3800 O.2       1 AHE404      0.0000 
     15 N3         54.5430   25.5260    2.2040 N.am      1 AHE404      0.0000 
     16 CA3        54.3390   26.9820    2.1130 C.3       1 AHE404      0.0000 
     17 C3         52.9880   27.2780    1.5060 C.2       1 AHE404      0.0000 
     18 O31        52.2530   26.3690    1.1650 O.co2     1 AHE404      0.0000 
     19 O32        52.6050   28.5520    1.3430 O.co2     1 AHE404      0.0000 
     20 C1         47.9430   22.9080    2.5370 C.2       1 AHE404      0.0000 
     21 O11        47.3180   23.9040    2.2360 O.co2     1 AHE404      0.0000 
     22 O12        47.6860   22.2850    3.6970 O.co2     1 AHE404      0.0000 
     23 H          49.0290   21.3089    1.6526 H         1 AHE404      0.0000 
     24 H          50.4768   22.8515    3.0998 H         1 AHE404      0.0000 
     25 H          50.4805   23.9386    1.7004 H         1 AHE404      0.0000 
     26 H          51.3972   22.1422    0.2916 H         1 AHE404      0.0000 
     27 H          51.3637   21.0310    1.6715 H         1 AHE404      0.0000 
     28 H          53.5812   22.9026   -0.1313 H         1 AHE404      0.0000 
     29 H          55.3572   22.9727    2.2640 H         1 AHE404      0.0000 
     30 H          57.1711   22.9501    0.5349 H         1 AHE404      0.0000 
     31 H          55.9222   22.8578   -0.7188 H         1 AHE404      0.0000 
     32 H          58.2875   20.1680    0.1475 H         1 AHE404      0.0000 
     33 H          57.8288   21.4453   -0.9919 H         1 AHE404      0.0000 
     34 H          54.1459   25.0622    3.0398 H         1 AHE404      0.0000 
     35 H          55.1141   27.4370    1.4902 H         1 AHE404      0.0000 
     36 H          54.3877   27.4363    3.1065 H         1 AHE404      0.0000 
     37 H          49.5795   22.9307   -0.2998 H         1 AHE404      0.0000 
     38 H          48.1589   22.1777   -0.2657 H         1 AHE404      0.0000 
     39 H          48.2695   23.7083    0.2152 H         1 AHE404      0.0000 
@<TRIPOS>BOND
     1    2    1 1    
     2   37    1 1    
     3   38    1 1    
     4   39    1 1    
     5    3    2 1    
     6   20    2 1    
     7   23    2 1    
     8    4    3 1    
     9   24    3 1    
    10   25    3 1    
    11    5    4 1    
    12   26    4 1    
    13   27    4 1    
    14    6    5 2    
    15    7    5 am   
    16    8    7 1    
    17   28    7 1    
    18    9    8 1    
    19   13    8 1    
    20   29    8 1    
    21   10    9 1    
    22   30    9 1    
    23   31    9 1    
    24   11   10 1    
    25   12   11 1    
    26   32   11 1    
    27   33   11 1    
    28   14   13 2    
    29   15   13 am   
    30   16   15 1    
    31   34   15 1    
    32   17   16 1    
    33   35   16 1    
    34   36   16 1    
    35   18   17 ar   
    36   19   17 ar   
    37   21   20 ar   
    38   22   20 ar   
@<TRIPOS>SUBSTRUCTURE
     1 AHE404      1 GROUP   
@<TRIPOS>SET

