#    Name: 4fc0_0T2_1_INTS_M
#    Modification time : Mon Mar 24 19:16:45 2014

@<TRIPOS>MOLECULE
4fc0_0T2_1_INTS_M
  105     0     9     0     0
SMALL
NO_CHARGES


@<TRIPOS>ATOM
      1 CA         45.4155  -37.9540   11.6410 C.3       3 GLC5        0.0000 
      2 CA         45.6050  -37.9940    9.5760 C.3       9 GLL5        0.0000 
      3 CA         45.2260  -37.9140   13.7060 C.3       6 GLP5        0.0000 
      4 CA         44.4205  -38.1915    8.1465 C.3       3 GLC5        0.0000 
      5 CA         43.2360  -38.3890    6.7170 C.3       6 GLP5        0.0000 
      6 CA         45.5585  -36.3555   12.1970 C.3       3 GLC5        0.0000 
      7 CA         45.8910  -34.7970   10.6880 C.3       9 GLL5        0.0000 
      8 CA         44.0025  -34.8025   11.8880 C.3       3 GLC5        0.0000 
      9 CA         42.1140  -34.8080   13.0880 C.3       6 GLP5        0.0000 
     10 CA         48.2095  -32.1455   11.3060 C.3       3 GLC5        0.0000 
     11 CA         46.7310  -33.7040   10.6740 C.3       9 GLL5        0.0000 
     12 CA         49.6880  -30.5870   11.9380 C.3       6 GLP5        0.0000 
     13 O          49.3605  -33.4655    7.6920 O.2       1 ALC1        0.0000 
     14 O          48.1150  -33.8550    7.2630 O.2       7 ALL1        0.0000 
     15 O          50.6060  -33.0760    8.1210 O.2       4 ALP1        0.0000 
     16 N          46.7455  -35.5155    4.3880 N.am      2 SEC2        0.0000 
     17 N          46.8880  -34.7520    5.6190 N.am      8 SEL2        0.0000 
     18 N          46.6030  -36.2790    3.1570 N.am      5 SEP2        0.0000 
     19 CA         50.2575  -30.6580    2.0560 C.3       3 GLC5        0.0000 
     20 CA         49.4810  -32.5240    2.9390 C.3       9 GLL5        0.0000 
     21 CA         51.0340  -28.7920    1.1730 C.3       6 GLP5        0.0000 
     22 CA         48.5515  -34.5000   -1.1140 C.3       3 GLC5        0.0000 
     23 CA         49.6580  -33.3710    0.0640 C.3       9 GLL5        0.0000 
     24 CA         47.4450  -35.6290   -2.2920 C.3       6 GLP5        0.0000 
     25 CA         47.7375  -30.0910   -1.6875 C.3       3 GLC5        0.0000 
     26 CA         48.8920  -31.0830   -0.4260 C.3       9 GLL5        0.0000 
     27 CA         46.5830  -29.0990   -2.9490 C.3       6 GLP5        0.0000 
     28 CA         49.7225  -30.3580   -1.9535 C.3       3 GLC5        0.0000 
     29 CA         50.5530  -29.6330   -3.4810 C.3       6 GLP5        0.0000 
     30 CA         46.8675  -32.0665   -1.5205 C.3       3 GLC5        0.0000 
     31 CA         47.3520  -32.6380    0.5800 C.3       9 GLL5        0.0000 
     32 CA         46.3830  -31.4950   -3.6210 C.3       6 GLP5        0.0000 
     33 CA         47.3985  -34.1335   -0.8560 C.3       3 GLC5        0.0000 
     34 CA         45.9835  -33.9365    1.4335 C.3       3 GLC5        0.0000 
     35 CA         44.6150  -35.2350    2.2870 C.3       6 GLP5        0.0000 
     36 CA         47.0035  -30.9555    4.4030 C.3       3 GLC5        0.0000 
     37 CA         46.8840  -32.4100    3.6550 C.3       9 GLL5        0.0000 
     38 CA         47.1230  -29.5010    5.1510 C.3       6 GLP5        0.0000 
     39 CA         45.2395  -32.9265    5.0805 C.3       3 GLC5        0.0000 
     40 CA         43.5950  -33.4430    6.5060 C.3       6 GLP5        0.0000 
     41 CA         45.7495  -33.8225    2.9710 C.3       3 GLC5        0.0000 
     42 CA         44.3765  -37.2990   11.7340 C.3       3 GLC5        0.0000 
     43 CA         43.5270  -36.6840    9.7620 C.3       9 GLL5        0.0000 
     44 CA         43.1510  -34.5045    8.0390 C.3       3 GLC5        0.0000 
     45 CA         42.7070  -35.5660    9.5720 C.3       9 GLL5        0.0000 
     46 CA         43.0385  -33.3650    9.6835 C.3       3 GLC5        0.0000 
     47 CA         43.3700  -31.1640    9.7950 C.3       6 GLP5        0.0000 
     48 CA         41.2185  -34.4870    8.1470 C.3       3 GLC5        0.0000 
     49 CA         41.3490  -35.6720    9.7440 C.3       9 GLL5        0.0000 
     50 CA         41.0880  -33.3020    6.5500 C.3       6 GLP5        0.0000 
     51 N          38.3690  -36.2575   10.2580 N.am      2 SEC2        0.0000 
     52 N          39.5080  -37.2900   10.3840 N.am      8 SEL2        0.0000 
     53 N          37.2300  -35.2250   10.1320 N.am      5 SEP2        0.0000 
     54 O          36.9960  -38.4920   10.6865 O.2       1 ALC1        0.0000 
     55 O          38.0450  -39.1070   11.0830 O.2       7 ALL1        0.0000 
     56 O          35.9470  -37.8770   10.2900 O.2       4 ALP1        0.0000 
     57 CA         34.2275  -39.2435   10.6325 C.3       3 GLC5        0.0000 
     58 CA         35.2970  -40.7690   11.3430 C.3       9 GLL5        0.0000 
     59 CA         33.1580  -37.7180    9.9220 C.3       6 GLP5        0.0000 
     60 CA         41.1920  -40.7765   12.4005 C.3       3 GLC5        0.0000 
     61 CA         40.7930  -39.3830   10.7870 C.3       9 GLL5        0.0000 
     62 CA         41.5910  -42.1700   14.0140 C.3       6 GLP5        0.0000 
     63 CA         47.9642  -35.9603   10.0320 C.3       3 GLC5        0.0000 
     64 CA         45.7550  -35.5860    9.5570 C.3       9 GLL5        0.0000 
     65 CA         49.8060  -36.4750   11.0810 C.3       6 GLP5        0.0000 
     66 CA         45.3390  -33.2147    9.8027 C.3       3 GLC5        0.0000 
     67 CA         44.8550  -31.2380    9.4830 C.3       6 GLP5        0.0000 
     68 CA         47.5280  -34.7843   11.8825 C.3       3 GLC5        0.0000 
     69 CA         48.7450  -35.3180   13.0840 C.3       6 GLP5        0.0000 
     70 CA         48.2127  -31.3065    8.3603 C.3       3 GLC5        0.0000 
     71 CA         47.4480  -33.4110    9.5300 C.3       9 GLL5        0.0000 
     72 CA         48.5680  -29.7360    7.1910 C.3       6 GLP5        0.0000 
     73 CA         48.4308  -31.2735   10.2363 C.3       3 GLC5        0.0000 
     74 CA         48.2670  -32.3430    9.5290 C.3       9 GLL5        0.0000 
     75 CA         49.0040  -29.6700   10.9430 C.3       6 GLP5        0.0000 
     76 CA         49.0799  -34.4465    9.6751 C.3       3 GLC5        0.0000 
     77 CA         50.5660  -35.3570   10.3950 C.3       6 GLP5        0.0000 
     78 CA         45.1606  -34.1316    7.5940 C.3       3 GLC5        0.0000 
     79 CA         47.3300  -34.1950    8.3810 C.3       9 GLL5        0.0000 
     80 CA         46.1796  -32.4053    9.2906 C.3       3 GLC5        0.0000 
     81 CA         50.7777  -32.7150    5.9915 C.3       3 GLC5        0.0000 
     82 CA         48.8760  -33.7110    4.9620 C.3       9 GLL5        0.0000 
     83 CA         52.0140  -31.5180    6.9480 C.3       6 GLP5        0.0000 
     84 CA         49.2737  -35.3650    3.9795 C.3       3 GLC5        0.0000 
     85 CA         50.2070  -34.1130    5.1080 C.3       9 GLL5        0.0000 
     86 CA         49.0060  -36.8180    2.9240 C.3       6 GLP5        0.0000 
     87 CA         51.4983  -32.4215    5.2995 C.3       3 GLC5        0.0000 
     88 CA         51.1610  -33.7240    4.1890 C.3       9 GLL5        0.0000 
     89 CA         49.9943  -35.0715    3.2875 C.3       3 GLC5        0.0000 
     90 CA         48.0627  -31.1090    4.2778 C.3       3 GLC5        0.0000 
     91 CA         49.0042  -34.7675    3.1643 C.3       3 GLC5        0.0000 
     92 CA         48.5240  -32.9100    3.8700 C.3       9 GLL5        0.0000 
     93 CA         49.9318  -30.2240    0.6238 C.3       3 GLC5        0.0000 
     94 CA         48.7670  -32.2290    0.5750 C.3       9 GLL5        0.0000 
     95 CA         42.6155  -35.4665   11.3775 C.3       3 GLC5        0.0000 
     96 CA         39.7077  -35.7777    8.5587 C.3       3 GLC5        0.0000 
     97 CA         38.3450  -35.2610    7.1780 C.3       6 GLP5        0.0000 
     98 CA         36.6320  -39.8567   12.9815 C.3       3 GLC5        0.0000 
     99 CA         36.6830  -41.1020   11.8810 C.3       9 GLL5        0.0000 
    100 CA         37.2740  -38.7780   14.3510 C.3       6 GLP5        0.0000 
    101 CA         36.4315  -40.8301    9.4533 C.3       3 GLC5        0.0000 
    102 CA         35.9800  -42.0890   10.9610 C.3       9 GLL5        0.0000 
    103 CA         36.8780  -40.1480    7.6200 C.3       6 GLP5        0.0000 
    104 CA         41.7464  -35.9694   11.6056 C.3       3 GLC5        0.0000 
    105 CA         41.6870  -37.9670   10.3070 C.3       9 GLL5        0.0000 
@<TRIPOS>BOND
@<TRIPOS>SUBSTRUCTURE
     1 ALC1       13 GROUP        1 X    ALC  0     ROOT ALC X 1
     2 SEC2       16 GROUP        1 X    SEC  0     **** SEC X 2
     3 GLC5        1 GROUP        1 X    GLC  0     **** GLC X 6
     4 ALP1       15 GROUP        1 Y    ALP  0     ROOT ALP Y 8
     5 SEP2       18 GROUP        1 Y    SEP  0     **** SEP Y 9
     6 GLP5        3 GROUP        1 Y    GLP  0     **** GLP Y 13
     7 ALL1       14 GROUP        1 Z    ALL  0     ROOT ALL Z 15
     8 SEL2       17 GROUP        1 Z    SEL  0     **** SEL Z 16
     9 GLL5        2 GROUP        1 Z    GLL  0     **** GLL Z 20
@<TRIPOS>SET

