#    Name: 4fc0_0T2_1_ligand
#    Modification time : Mon Mar 24 19:16:45 2014

@<TRIPOS>MOLECULE
4fc0_0T2_1_ligand
   64    68     1     0     0
SMALL
NO_CHARGES


@<TRIPOS>ATOM
      1 C1         45.6050  -37.9940    9.5760 C.3       1 0T2901      0.0000 
      2 N2         44.9200  -36.7000    9.6130 N.pl3     1 0T2901      0.0000 
      3 C3         45.7550  -35.5860    9.5570 C.ar      1 0T2901      0.0000 
      4 C4         45.8910  -34.7970   10.6880 C.ar      1 0T2901      0.0000 
      5 C5         46.7310  -33.7040   10.6740 C.ar      1 0T2901      0.0000 
      6 C6         47.4480  -33.4110    9.5300 C.ar      1 0T2901      0.0000 
      7 F7         48.2670  -32.3430    9.5290 F         1 0T2901      0.0000 
      8 C8         47.3300  -34.1950    8.3810 C.ar      1 0T2901      0.0000 
      9 N9         48.1150  -33.8550    7.2630 N.am      1 0T2901      0.0000 
     10 C10        47.8800  -34.1490    5.9670 C.2       1 0T2901      0.0000 
     11 O11        46.8880  -34.7520    5.6190 O.2       1 0T2901      0.0000 
     12 C12        48.8760  -33.7110    4.9620 C.ar      1 0T2901      0.0000 
     13 C13        50.2070  -34.1130    5.1080 C.ar      1 0T2901      0.0000 
     14 C14        51.1610  -33.7240    4.1890 C.ar      1 0T2901      0.0000 
     15 C15        50.8040  -32.9260    3.1130 C.ar      1 0T2901      0.0000 
     16 C16        49.4810  -32.5240    2.9390 C.ar      1 0T2901      0.0000 
     17 O17        49.1300  -31.7280    1.8800 O.3       1 0T2901      0.0000 
     18 C18        48.7670  -32.2290    0.5750 C.3       1 0T2901      0.0000 
     19 C19        49.6580  -33.3710    0.0640 C.3       1 0T2901      0.0000 
     20 C20        48.8920  -31.0830   -0.4260 C.3       1 0T2901      0.0000 
     21 C21        47.3520  -32.6380    0.5800 C.1       1 0T2901      0.0000 
     22 N22        46.2530  -32.9320    0.5620 N.1       1 0T2901      0.0000 
     23 C23        48.5240  -32.9100    3.8700 C.ar      1 0T2901      0.0000 
     24 CL2        46.8840  -32.4100    3.6550 Cl        1 0T2901      0.0000 
     25 C25        46.4900  -35.3050    8.4090 C.ar      1 0T2901      0.0000 
     26 C26        43.5270  -36.6840    9.7620 C.ar      1 0T2901      0.0000 
     27 C27        42.7070  -35.5660    9.5720 C.ar      1 0T2901      0.0000 
     28 C28        41.3490  -35.6720    9.7440 C.ar      1 0T2901      0.0000 
     29 C29        40.7920  -36.9170   10.1350 C.ar      1 0T2901      0.0000 
     30 N30        39.5080  -37.2900   10.3840 N.2       1 0T2901      0.0000 
     31 C31        39.2680  -38.5260   10.7160 C.2       1 0T2901      0.0000 
     32 N32        38.0450  -39.1070   11.0830 N.am      1 0T2901      0.0000 
     33 C33        37.9420  -40.4280   11.3840 C.2       1 0T2901      0.0000 
     34 O34        38.9080  -41.1430   11.2820 O.2       1 0T2901      0.0000 
     35 C35        36.6830  -41.1020   11.8810 C.3       1 0T2901      0.0000 
     36 C36        35.2970  -40.7690   11.3430 C.3       1 0T2901      0.0000 
     37 C37        35.9800  -42.0890   10.9610 C.3       1 0T2901      0.0000 
     38 S38        40.7930  -39.3830   10.7870 S.3       1 0T2901      0.0000 
     39 C39        41.6870  -37.9670   10.3070 C.ar      1 0T2901      0.0000 
     40 N40        42.9820  -37.8240   10.1170 N.ar      1 0T2901      0.0000 
     41 H          45.3603  -35.0310   11.5421 H         1 0T2901      0.0000 
     42 H          46.8242  -33.1101   11.5085 H         1 0T2901      0.0000 
     43 H          49.0139  -33.2876    7.4937 H         1 0T2901      0.0000 
     44 H          50.4706  -34.7049    5.9114 H         1 0T2901      0.0000 
     45 H          52.1405  -34.0259    4.3007 H         1 0T2901      0.0000 
     46 H          51.5208  -32.6258    2.4341 H         1 0T2901      0.0000 
     47 H          46.4133  -35.9133    7.5864 H         1 0T2901      0.0000 
     48 H          43.1341  -34.6679    9.3029 H         1 0T2901      0.0000 
     49 H          40.7274  -34.8738    9.5969 H         1 0T2901      0.0000 
     50 H          37.2021  -38.4918   11.1203 H         1 0T2901      0.0000 
     51 H          36.5358  -41.4595   12.7912 H         1 0T2901      0.0000 
     52 H          35.4065  -40.1764   10.6160 H         1 0T2901      0.0000 
     53 H          34.6712  -40.9639   12.0228 H         1 0T2901      0.0000 
     54 H          35.6020  -42.7665   11.5002 H         1 0T2901      0.0000 
     55 H          36.3373  -41.9789   10.0934 H         1 0T2901      0.0000 
     56 H          46.1357  -38.1094    8.7363 H         1 0T2901      0.0000 
     57 H          46.2402  -38.1000   10.3411 H         1 0T2901      0.0000 
     58 H          44.9603  -38.7570    9.6225 H         1 0T2901      0.0000 
     59 H          50.6145  -33.0897   -0.0130 H         1 0T2901      0.0000 
     60 H          49.6335  -34.1627    0.6744 H         1 0T2901      0.0000 
     61 H          49.3723  -33.6889   -0.8400 H         1 0T2901      0.0000 
     62 H          49.8232  -30.7202   -0.4609 H         1 0T2901      0.0000 
     63 H          48.6553  -31.3725   -1.3535 H         1 0T2901      0.0000 
     64 H          48.2887  -30.3199   -0.1942 H         1 0T2901      0.0000 
@<TRIPOS>BOND
     1    2    1 1    
     2   56    1 1    
     3   57    1 1    
     4   58    1 1    
     5    3    2 1    
     6   26    2 1    
     7    4    3 ar   
     8   25    3 ar   
     9    5    4 ar   
    10   41    4 1    
    11    6    5 ar   
    12   42    5 1    
    13    7    6 1    
    14    8    6 ar   
    15    9    8 1    
    16   25    8 ar   
    17   10    9 am   
    18   43    9 1    
    19   11   10 2    
    20   12   10 1    
    21   13   12 ar   
    22   23   12 ar   
    23   14   13 ar   
    24   44   13 1    
    25   15   14 ar   
    26   45   14 1    
    27   16   15 ar   
    28   46   15 1    
    29   17   16 1    
    30   23   16 ar   
    31   18   17 1    
    32   19   18 1    
    33   20   18 1    
    34   21   18 1    
    35   59   19 1    
    36   60   19 1    
    37   61   19 1    
    38   62   20 1    
    39   63   20 1    
    40   64   20 1    
    41   22   21 3    
    42   24   23 1    
    43   47   25 1    
    44   27   26 ar   
    45   40   26 ar   
    46   28   27 ar   
    47   48   27 1    
    48   29   28 ar   
    49   49   28 1    
    50   30   29 1    
    51   39   29 ar   
    52   31   30 2    
    53   32   31 1    
    54   38   31 1    
    55   33   32 am   
    56   50   32 1    
    57   34   33 2    
    58   35   33 1    
    59   36   35 1    
    60   37   35 1    
    61   51   35 1    
    62   37   36 1    
    63   52   36 1    
    64   53   36 1    
    65   54   37 1    
    66   55   37 1    
    67   39   38 1    
    68   40   39 ar   
@<TRIPOS>SUBSTRUCTURE
     1 0T2901      1 GROUP   
@<TRIPOS>SET

