#    Name: 1cgl_0ED_2_INTS_M
#    Modification time : Mon Mar 24 20:41:47 2014

@<TRIPOS>MOLECULE
1cgl_0ED_2_INTS_M
   94     0    12     0     0
SMALL
NO_CHARGES


@<TRIPOS>ATOM
      1 N          24.3985   41.8665  -13.0910 N.am      2 SEC2        0.0000 
      2 N          25.7260   42.3940  -13.4110 N.am     10 SEL2        0.0000 
      3 N          23.0710   41.3390  -12.7710 N.am      6 SEP2        0.0000 
      4 N          25.2525   42.9255  -14.5555 N.am      2 SEC2        0.0000 
      5 N          24.7790   43.4570  -15.7000 N.am      6 SEP2        0.0000 
      6 CA         28.4825   40.3725  -13.0345 C.3       4 GLC5        0.0000 
      7 CA         28.6370   42.3330  -13.0080 C.3      12 GLL5        0.0000 
      8 CA         28.3280   38.4120  -13.0610 C.3       8 GLP5        0.0000 
      9 CA         28.7790   41.8405  -11.4325 C.3       4 GLC5        0.0000 
     10 CA         28.9210   41.3480   -9.8570 C.3       8 GLP5        0.0000 
     11 CA         26.9480   44.9110  -16.8075 C.3       4 GLC5        0.0000 
     12 CA         28.7160   44.8020  -16.4560 C.3      12 GLL5        0.0000 
     13 CA         25.1800   45.0200  -17.1590 C.3       8 GLP5        0.0000 
     14 O          24.0605   43.3295  -11.6255 O.2       1 ALC1        0.0000 
     15 O          25.5150   43.4400  -11.5690 O.2       9 ALL1        0.0000 
     16 O          22.6060   43.2190  -11.6820 O.2       5 ALP1        0.0000 
     17 CA         27.5265   42.6915  -10.1205 C.3       4 GLC5        0.0000 
     18 CA         26.1320   44.0350  -10.3840 C.3      12 GLL5        0.0000 
     19 CA         24.9525   46.6880  -12.5115 C.3       4 GLC5        0.0000 
     20 CA         25.0780   46.3170  -10.3880 C.3      12 GLL5        0.0000 
     21 CA         24.8270   47.0590  -14.6350 C.3       8 GLP5        0.0000 
     22 Zn         27.3110   48.4355   -9.3015 Zn        3 ZIC7        0.0000 
     23 Zn         27.3260   47.1640   -9.6850 Zn       11 ZIL7        0.0000 
     24 Zn         27.2960   49.7070   -8.9180 Zn        7 ZIP7        0.0000 
     25 Zn         26.4620   49.1285   -9.2035 Zn        3 ZIC7        0.0000 
     26 Zn         25.6280   48.5500   -9.4890 Zn       11 ZIL7        0.0000 
     27 N          24.6270   49.2450  -10.4145 N.am      2 SEC2        0.0000 
     28 N          25.6280   48.5500   -9.4890 N.am     10 SEL2        0.0000 
     29 N          23.6260   49.9400  -11.3400 N.am      6 SEP2        0.0000 
     30 N          20.6645   44.7605   -9.8995 N.am      2 SEC2        0.0000 
     31 N          21.7270   45.3070   -9.1500 N.am     10 SEL2        0.0000 
     32 N          19.6020   44.2140  -10.6490 N.am      6 SEP2        0.0000 
     33 CA         23.7540   51.1725   -7.4465 C.3       4 GLC5        0.0000 
     34 CA         23.1030   49.5720   -6.5080 C.3      12 GLL5        0.0000 
     35 CA         24.4050   52.7730   -8.3850 C.3       8 GLP5        0.0000 
     36 CA         23.0160   48.7005   -4.8470 C.3       4 GLC5        0.0000 
     37 CA         22.9290   47.8290   -3.1860 C.3       8 GLP5        0.0000 
     38 CA         20.2110   50.5150   -9.5700 C.3       4 GLC5        0.0000 
     39 CA         21.1360   50.3340   -7.8340 C.3      12 GLL5        0.0000 
     40 CA         19.2860   50.6960  -11.3060 C.3       8 GLP5        0.0000 
     41 CA         22.7705   51.5535   -8.1095 C.3       4 GLC5        0.0000 
     42 N          20.6680   47.4890   -4.3205 N.am      2 SEC2        0.0000 
     43 N          20.5910   46.2730   -4.9060 N.am     10 SEL2        0.0000 
     44 N          20.7450   48.7050   -3.7350 N.am      6 SEP2        0.0000 
     45 CA         20.5975   41.0780   -7.1040 C.3       4 GLC5        0.0000 
     46 CA         22.7350   41.5650   -6.8190 C.3      12 GLL5        0.0000 
     47 CA         18.4600   40.5910   -7.3890 C.3       8 GLP5        0.0000 
     48 CA         21.6740   41.8330   -8.4560 C.3       4 GLC5        0.0000 
     49 CA         20.6130   42.1010  -10.0930 C.3       8 GLP5        0.0000 
     50 CA         22.5190   41.0615   -9.3530 C.3       4 GLC5        0.0000 
     51 CA         23.5660   40.8890   -7.7060 C.3      12 GLL5        0.0000 
     52 CA         21.4720   41.2340  -11.0000 C.3       8 GLP5        0.0000 
     53 CA         20.9850   40.7470   -0.2345 C.3       4 GLC5        0.0000 
     54 CA         20.1840   41.4400   -1.7600 C.3      12 GLL5        0.0000 
     55 CA         21.7860   40.0540    1.2910 C.3       8 GLP5        0.0000 
     56 CA         20.9420   41.8065    0.3070 C.3       4 GLC5        0.0000 
     57 CA         20.0980   43.5590   -0.6770 C.3      12 GLL5        0.0000 
     58 CA         17.8605   46.1870   -6.3550 C.3       4 GLC5        0.0000 
     59 CA         18.1510   45.0820   -4.5500 C.3      12 GLL5        0.0000 
     60 CA         17.5700   47.2920   -8.1600 C.3       8 GLP5        0.0000 
     61 CA         18.3150   47.0475   -4.5685 C.3       4 GLC5        0.0000 
     62 CA         18.4790   49.0130   -4.5870 C.3       8 GLP5        0.0000 
     63 O          19.1370   43.8035   -6.7390 O.2       1 ALC1        0.0000 
     64 O          19.1560   44.7800   -5.5810 O.2       9 ALL1        0.0000 
     65 O          19.1180   42.8270   -7.8970 O.2       5 ALP1        0.0000 
     66 CA         30.1245   41.7980  -14.5285 C.3       4 GLC5        0.0000 
     67 CA         31.5630   40.8230  -15.4420 C.3       8 GLP5        0.0000 
     68 CA         27.2586   45.1375  -14.6747 C.3       4 GLC5        0.0000 
     69 CA         29.1160   45.3500  -15.2330 C.3      12 GLL5        0.0000 
     70 CA         25.4900   45.6570  -14.6480 C.3       8 GLP5        0.0000 
     71 CA         30.5162   43.9736  -15.9694 C.3       4 GLC5        0.0000 
     72 CA         29.1420   44.5590  -14.1180 C.3      12 GLL5        0.0000 
     73 CA         32.1100   43.0690  -16.3730 C.3       8 GLP5        0.0000 
     74 CA         29.9848   42.3785  -16.3650 C.3       4 GLC5        0.0000 
     75 CA         28.3630   43.4600  -16.5790 C.3      12 GLL5        0.0000 
     76 CA         31.6140   41.6820  -16.7130 C.3       8 GLP5        0.0000 
     77 CA         27.7502   41.6000  -16.6775 C.3       4 GLC5        0.0000 
     78 CA         28.3480   42.6900  -15.4550 C.3      12 GLL5        0.0000 
     79 CA         27.1450   40.1250  -17.3380 C.3       8 GLP5        0.0000 
     80 CA         26.7492   43.9265  -15.9195 C.3       4 GLC5        0.0000 
     81 CA         25.1430   44.7780  -15.8220 C.3       8 GLP5        0.0000 
     82 CA         23.7223   50.3240   -8.5542 C.3       4 GLC5        0.0000 
     83 CA         22.5230   48.4540   -8.7340 C.3      12 GLL5        0.0000 
     84 CA         25.1740   51.8430   -9.0030 C.3       8 GLP5        0.0000 
     85 CA         20.7486   49.7535   -5.6236 C.3       4 GLC5        0.0000 
     86 CA         19.6490   49.6580   -3.8340 C.3       8 GLP5        0.0000 
     87 CA         24.9180   39.4715   -7.4223 C.3       4 GLC5        0.0000 
     88 CA         25.6290   37.8240   -7.0080 C.3       8 GLP5        0.0000 
     89 CA         27.1100   41.7420   -8.0152 C.3       4 GLC5        0.0000 
     90 CA         24.8480   41.3490   -7.9670 C.3      12 GLL5        0.0000 
     91 CA         29.1180   41.6090   -8.4350 C.3       8 GLP5        0.0000 
     92 CA         21.2172   45.3515   -1.7400 C.3       4 GLC5        0.0000 
     93 CA         19.6370   44.2530   -2.0030 C.3      12 GLL5        0.0000 
     94 CA         22.5670   46.7970   -2.1400 C.3       8 GLP5        0.0000 
@<TRIPOS>BOND
@<TRIPOS>SUBSTRUCTURE
     1 ALC1       14 GROUP        1 X    ALC  0     ROOT ALC X 1
     2 SEC2        1 GROUP        1 X    SEC  0     **** SEC X 2
     3 ZIC7       22 GROUP        1 X    ZIC  0     **** ZIC X 5
     4 GLC5        6 GROUP        1 X    GLC  0     **** GLC X 6
     5 ALP1       16 GROUP        1 Y    ALP  0     ROOT ALP Y 8
     6 SEP2        3 GROUP        1 Y    SEP  0     **** SEP Y 9
     7 ZIP7       24 GROUP        1 Y    ZIP  0     **** ZIP Y 12
     8 GLP5        8 GROUP        1 Y    GLP  0     **** GLP Y 13
     9 ALL1       15 GROUP        1 Z    ALL  0     ROOT ALL Z 15
    10 SEL2        2 GROUP        1 Z    SEL  0     **** SEL Z 16
    11 ZIL7       23 GROUP        1 Z    ZIL  0     **** ZIL Z 19
    12 GLL5        7 GROUP        1 Z    GLL  0     **** GLL Z 20
@<TRIPOS>SET

