#    Name: 1cgl_0ED_2_ligand
#    Modification time : Mon Mar 24 20:41:47 2014

@<TRIPOS>MOLECULE
1cgl_0ED_2_ligand
   91    93     1     0     0
SMALL
NO_CHARGES


@<TRIPOS>ATOM
      1 C1         26.2660   42.8400  -12.4090 C.2       1 0ED1        0.0000 
      2 O1         25.7260   42.3940  -13.4110 O.2       1 0ED1        0.0000 
      3 O2         27.6460   42.8230  -12.1270 O.3       1 0ED1        0.0000 
      4 C2         28.6370   42.3330  -13.0080 C.3       1 0ED1        0.0000 
      5 C3         28.7350   43.2130  -14.2220 C.ar      1 0ED1        0.0000 
      6 C4         29.1420   44.5590  -14.1180 C.ar      1 0ED1        0.0000 
      7 C5         29.1160   45.3500  -15.2330 C.ar      1 0ED1        0.0000 
      8 C6         28.7160   44.8020  -16.4560 C.ar      1 0ED1        0.0000 
      9 C7         28.3630   43.4600  -16.5790 C.ar      1 0ED1        0.0000 
     10 C8         28.3480   42.6900  -15.4550 C.ar      1 0ED1        0.0000 
     11 N          25.5150   43.4400  -11.5690 N.am      1 0ED1        0.0000 
     12 CA         26.1320   44.0350  -10.3840 C.3       1 0ED1        0.0000 
     13 CB         25.1350   44.9330   -9.7380 C.3       1 0ED1        0.0000 
     14 CG         25.0780   46.3170  -10.3880 C.3       1 0ED1        0.0000 
     15 CD         26.1350   47.3350   -9.8650 C.2       1 0ED1        0.0000 
     16 OE1        27.3260   47.1640   -9.6850 O.co2     1 0ED1        0.0000 
     17 OE2        25.6280   48.5500   -9.4890 O.co2     1 0ED1        0.0000 
     18 N1         23.6940   46.7660  -10.1380 N.4       1 0ED1        0.0000 
     19 CA1        23.2420   47.0930   -8.7220 C.3       1 0ED1        0.0000 
     20 C          22.3630   45.9230   -8.3020 C.2       1 0ED1        0.0000 
     21 O          21.7270   45.3070   -9.1500 O.2       1 0ED1        0.0000 
     22 CB1        22.5230   48.4540   -8.7340 C.3       1 0ED1        0.0000 
     23 CG1        22.0180   49.1560   -7.4770 C.3       1 0ED1        0.0000 
     24 CD1        23.1030   49.5720   -6.5080 C.3       1 0ED1        0.0000 
     25 CD2        21.1360   50.3340   -7.8340 C.3       1 0ED1        0.0000 
     26 N2         22.3480   45.6130   -6.9990 N.am      1 0ED1        0.0000 
     27 CA2        21.4490   44.5910   -6.3770 C.3       1 0ED1        0.0000 
     28 C9         20.3450   45.3000   -5.5770 C.2       1 0ED1        0.0000 
     29 O3         20.5910   46.2730   -4.9060 O.2       1 0ED1        0.0000 
     30 CB2        22.2220   43.6210   -5.4200 C.3       1 0ED1        0.0000 
     31 CG2        23.2190   42.6930   -6.1540 C.ar      1 0ED1        0.0000 
     32 CD11       22.7350   41.5650   -6.8190 C.ar      1 0ED1        0.0000 
     33 CD21       24.5640   43.0650   -6.3090 C.ar      1 0ED1        0.0000 
     34 CE1        23.5660   40.8890   -7.7060 C.ar      1 0ED1        0.0000 
     35 CE2        25.3560   42.4010   -7.2240 C.ar      1 0ED1        0.0000 
     36 CZ         24.8480   41.3490   -7.9670 C.ar      1 0ED1        0.0000 
     37 O11        20.9090   42.4330   -1.0190 O.3       1 0ED1        0.0000 
     38 C21        20.1840   41.4400   -1.7600 C.3       1 0ED1        0.0000 
     39 C31        19.4340   41.9910   -3.0210 C.3       1 0ED1        0.0000 
     40 N4         18.8210   43.3010   -2.7950 N.4       1 0ED1        0.0000 
     41 C51        19.6370   44.2530   -2.0030 C.3       1 0ED1        0.0000 
     42 C61        20.0980   43.5590   -0.6770 C.3       1 0ED1        0.0000 
     43 C1'        17.8410   43.7940   -3.7740 C.3       1 0ED1        0.0000 
     44 C2'        18.1510   45.0820   -4.5500 C.3       1 0ED1        0.0000 
     45 N2'        19.1560   44.7800   -5.5810 N.am      1 0ED1        0.0000 
     46 H          28.4105   41.3082  -13.3458 H         1 0ED1        0.0000 
     47 H          29.6289   42.3012  -12.5276 H         1 0ED1        0.0000 
     48 H          29.4493   44.9204  -13.2118 H         1 0ED1        0.0000 
     49 H          29.3854   46.3402  -15.1875 H         1 0ED1        0.0000 
     50 H          28.6819   45.4147  -17.2948 H         1 0ED1        0.0000 
     51 H          28.1239   43.0766  -17.4946 H         1 0ED1        0.0000 
     52 H          28.0459   41.6969  -15.5031 H         1 0ED1        0.0000 
     53 H          24.4956   43.5491  -11.6445 H         1 0ED1        0.0000 
     54 H          27.0131   44.6132  -10.6624 H         1 0ED1        0.0000 
     55 H          26.4305   43.2590   -9.6791 H         1 0ED1        0.0000 
     56 H          25.3776   45.0600   -8.6716 H         1 0ED1        0.0000 
     57 H          24.1318   44.4826   -9.7917 H         1 0ED1        0.0000 
     58 H          25.2100   46.1844  -11.4566 H         1 0ED1        0.0000 
     59 H          24.1045   47.1374   -8.0990 H         1 0ED1        0.0000 
     60 H          21.6406   48.3649   -9.4620 H         1 0ED1        0.0000 
     61 H          23.2000   49.1901   -9.2964 H         1 0ED1        0.0000 
     62 H          21.3596   48.4259   -6.9413 H         1 0ED1        0.0000 
     63 H          22.9920   46.0882   -6.3113 H         1 0ED1        0.0000 
     64 H          20.9764   43.9952   -7.1404 H         1 0ED1        0.0000 
     65 H          21.4899   43.0090   -4.8843 H         1 0ED1        0.0000 
     66 H          22.7659   44.2223   -4.6851 H         1 0ED1        0.0000 
     67 H          21.7793   41.2411   -6.6541 H         1 0ED1        0.0000 
     68 H          24.9462   43.8279   -5.7400 H         1 0ED1        0.0000 
     69 H          23.2225   40.0340   -8.1753 H         1 0ED1        0.0000 
     70 H          26.3414   42.6916   -7.3575 H         1 0ED1        0.0000 
     71 H          25.4134   40.9135   -8.7034 H         1 0ED1        0.0000 
     72 H          19.4162   40.9391   -1.1313 H         1 0ED1        0.0000 
     73 H          20.8528   40.6290   -2.1213 H         1 0ED1        0.0000 
     74 H          18.6773   41.2408   -3.3006 H         1 0ED1        0.0000 
     75 H          20.1679   42.0316   -3.8416 H         1 0ED1        0.0000 
     76 H          18.0029   42.9512   -1.8593 H         1 0ED1        0.0000 
     77 H          19.0612   45.1304   -1.7340 H         1 0ED1        0.0000 
     78 H          20.5256   44.5511   -2.5464 H         1 0ED1        0.0000 
     79 H          20.6412   44.3034   -0.1016 H         1 0ED1        0.0000 
     80 H          19.1984   43.2753   -0.1380 H         1 0ED1        0.0000 
     81 H          16.8405   43.9420   -3.2688 H         1 0ED1        0.0000 
     82 H          17.6281   42.9880   -4.5376 H         1 0ED1        0.0000 
     83 H          18.5238   45.8224   -3.8492 H         1 0ED1        0.0000 
     84 H          17.2301   45.4413   -4.9986 H         1 0ED1        0.0000 
     85 H          18.8272   44.1068   -6.3205 H         1 0ED1        0.0000 
     86 H          23.6332   48.7880   -6.1852 H         1 0ED1        0.0000 
     87 H          23.7491   50.2108   -6.9258 H         1 0ED1        0.0000 
     88 H          22.7257   50.0236   -5.6995 H         1 0ED1        0.0000 
     89 H          21.6262   51.0128   -8.3808 H         1 0ED1        0.0000 
     90 H          20.3366   50.0521   -8.3646 H         1 0ED1        0.0000 
     91 H          20.7962   50.8039   -7.0193 H         1 0ED1        0.0000 
@<TRIPOS>BOND
     1    2    1 2    
     2    3    1 1    
     3   11    1 am   
     4    4    3 1    
     5    5    4 1    
     6   46    4 1    
     7   47    4 1    
     8    6    5 ar   
     9   10    5 ar   
    10    7    6 ar   
    11   48    6 1    
    12    8    7 ar   
    13   49    7 1    
    14    9    8 ar   
    15   50    8 1    
    16   10    9 ar   
    17   51    9 1    
    18   52   10 1    
    19   12   11 1    
    20   53   11 1    
    21   13   12 1    
    22   54   12 1    
    23   55   12 1    
    24   14   13 1    
    25   56   13 1    
    26   57   13 1    
    27   15   14 1    
    28   18   14 1    
    29   58   14 1    
    30   16   15 ar   
    31   17   15 ar   
    32   19   18 1    
    33   20   19 1    
    34   22   19 1    
    35   59   19 1    
    36   21   20 2    
    37   26   20 am   
    38   23   22 1    
    39   60   22 1    
    40   61   22 1    
    41   24   23 1    
    42   25   23 1    
    43   62   23 1    
    44   86   24 1    
    45   87   24 1    
    46   88   24 1    
    47   89   25 1    
    48   90   25 1    
    49   91   25 1    
    50   27   26 1    
    51   63   26 1    
    52   28   27 1    
    53   30   27 1    
    54   64   27 1    
    55   29   28 2    
    56   45   28 am   
    57   31   30 1    
    58   65   30 1    
    59   66   30 1    
    60   32   31 ar   
    61   33   31 ar   
    62   34   32 ar   
    63   67   32 1    
    64   35   33 ar   
    65   68   33 1    
    66   36   34 ar   
    67   69   34 1    
    68   36   35 ar   
    69   70   35 1    
    70   71   36 1    
    71   38   37 1    
    72   42   37 1    
    73   39   38 1    
    74   72   38 1    
    75   73   38 1    
    76   40   39 1    
    77   74   39 1    
    78   75   39 1    
    79   41   40 1    
    80   43   40 1    
    81   76   40 1    
    82   42   41 1    
    83   77   41 1    
    84   78   41 1    
    85   79   42 1    
    86   80   42 1    
    87   44   43 1    
    88   81   43 1    
    89   82   43 1    
    90   45   44 1    
    91   83   44 1    
    92   84   44 1    
    93   85   45 1    
@<TRIPOS>SUBSTRUCTURE
     1 0ED1        1 GROUP   
@<TRIPOS>SET

