#    Name: 4gon_0Y1_2_INTS_M
#    Modification time : Mon Mar 24 23:28:14 2014

@<TRIPOS>MOLECULE
4gon_0Y1_2_INTS_M
   65     0    12     0     0
SMALL
NO_CHARGES


@<TRIPOS>ATOM
      1 O          94.2985  -12.4415   53.9165 O.2       1 ALC1        0.0000 
      2 O          95.7800  -11.9750   54.7050 O.2       9 ALL1        0.0000 
      3 O          92.8170  -12.9080   53.1280 O.2       5 ALP1        0.0000 
      4 CA        100.6195   -7.2985   59.4915 C.3       4 GLC5        0.0000 
      5 CA        100.1600   -8.3230   57.6110 C.3      12 GLL5        0.0000 
      6 CA        101.0790   -6.2740   61.3720 C.3       8 GLP5        0.0000 
      7 OD1       103.1260   -6.3970   56.6605 O.co2     3 ASC3        0.0000 
      8 OD1       101.8870   -6.9190   57.0810 O.co2    11 ASL3        0.0000 
      9 OD1       104.3650   -5.8750   56.2400 O.co2     7 ASP3        0.0000 
     10 OD1       102.9695   -7.2815   56.0455 O.co2     3 ASC3        0.0000 
     11 OD1       104.0520   -7.6440   55.0100 O.co2     7 ASP3        0.0000 
     12 O         103.2610   -7.4930   57.9015 O.2       1 ALC1        0.0000 
     13 O         101.8870   -6.9190   57.0810 O.2       9 ALL1        0.0000 
     14 O         104.6350   -8.0670   58.7220 O.2       5 ALP1        0.0000 
     15 O         102.9695   -7.2815   56.0455 O.2       1 ALC1        0.0000 
     16 O         104.0520   -7.6440   55.0100 O.2       5 ALP1        0.0000 
     17 O         102.5745   -6.3165   58.5070 O.2       1 ALC1        0.0000 
     18 O         103.2620   -5.7140   59.9330 O.2       5 ALP1        0.0000 
     19 CA        103.3120  -11.2875   60.7230 C.3       4 GLC5        0.0000 
     20 CA        101.4650  -11.9710   59.6470 C.3      12 GLL5        0.0000 
     21 CA        105.1590  -10.6040   61.7990 C.3       8 GLP5        0.0000 
     22 O         101.6885  -14.5380   59.1600 O.2       1 ALC1        0.0000 
     23 O         100.4100  -14.0100   59.1630 O.2       9 ALL1        0.0000 
     24 O         102.9670  -15.0660   59.1570 O.2       5 ALP1        0.0000 
     25 O         101.2300  -15.2005   59.9385 O.2       1 ALC1        0.0000 
     26 O         102.0500  -16.3910   60.7140 O.2       5 ALP1        0.0000 
     27 O         101.0995  -15.4080   61.1725 O.2       1 ALC1        0.0000 
     28 O         100.1490  -14.4250   61.6310 O.2       9 ALL1        0.0000 
     29 CA        103.4915  -11.6870   61.7440 C.3       4 GLC5        0.0000 
     30 CA        101.8240  -12.7700   61.6890 C.3      12 GLL5        0.0000 
     31 CA        105.2625  -15.3315   62.5685 C.3       4 GLC5        0.0000 
     32 CA        105.4390  -13.6880   63.9960 C.3      12 GLL5        0.0000 
     33 CA        105.0860  -16.9750   61.1410 C.3       8 GLP5        0.0000 
     34 CA        103.9655  -14.9545   64.6020 C.3       4 GLC5        0.0000 
     35 CA        102.4920  -16.2210   65.2080 C.3       8 GLP5        0.0000 
     36 CA        106.2660  -14.7150   65.5780 C.3       4 GLC5        0.0000 
     37 CA        107.0930  -15.7420   67.1600 C.3       8 GLP5        0.0000 
     38 CA        107.3620  -13.3355   64.8255 C.3       4 GLC5        0.0000 
     39 CA        109.2850  -12.9830   65.6550 C.3       8 GLP5        0.0000 
     40 N         106.7880  -13.5850   65.7375 N.am      2 SEC2        0.0000 
     41 N         105.3890  -13.3640   65.3170 N.am     10 SEL2        0.0000 
     42 N         108.1870  -13.8060   66.1580 N.am      6 SEP2        0.0000 
     43 CA        103.3780  -14.5155   65.5270 C.3       4 GLC5        0.0000 
     44 CA        104.2640  -12.8100   65.8460 C.3      12 GLL5        0.0000 
     45 CA        105.6785  -14.2760   66.5030 C.3       4 GLC5        0.0000 
     46 O         105.2790  -13.2275   67.9895 O.2       1 ALC1        0.0000 
     47 O         104.1810  -12.4530   67.2570 O.2       9 ALL1        0.0000 
     48 O         106.3770  -14.0020   68.7220 O.2       5 ALP1        0.0000 
     49 CA        100.5835  -14.3133   55.3565 C.3       4 GLC5        0.0000 
     50 CA         98.8100  -13.8080   55.4740 C.3      12 GLL5        0.0000 
     51 CA        102.5140  -14.1580   55.3590 C.3       8 GLP5        0.0000 
     52 CA         98.9090  -17.0102   55.0940 C.3       4 GLC5        0.0000 
     53 CA         98.4960  -15.1290   55.2340 C.3      12 GLL5        0.0000 
     54 CA         99.9520  -18.7060   55.1810 C.3       8 GLP5        0.0000 
     55 CA         95.3044  -14.6824   56.0379 C.3       4 GLC5        0.0000 
     56 CA         97.2360  -15.5000   54.7800 C.3      12 GLL5        0.0000 
     57 CA         93.9270  -15.2850   57.3210 C.3       8 GLP5        0.0000 
     58 CA         97.2870  -10.7680   53.2100 C.3       4 GLC5        0.0000 
     59 CA         96.6610  -10.9390   55.0970 C.3      12 GLL5        0.0000 
     60 CA         97.3100  -10.3040   51.1540 C.3       8 GLP5        0.0000 
     61 CA        101.1418  -14.2095   63.1210 C.3       4 GLC5        0.0000 
     62 CA        100.4130  -13.1080   61.3470 C.3      12 GLL5        0.0000 
     63 CA        101.1650  -15.4800   64.7240 C.3       8 GLP5        0.0000 
     64 CA        102.1950  -14.0960   64.5400 C.3       4 GLC5        0.0000 
     65 CA        103.2690  -12.8850   63.6800 C.3      12 GLL5        0.0000 
@<TRIPOS>BOND
@<TRIPOS>SUBSTRUCTURE
     1 ALC1        1 GROUP        1 X    ALC  0     ROOT ALC X 1
     2 SEC2       40 GROUP        1 X    SEC  0     **** SEC X 2
     3 ASC3        7 GROUP        1 X    ASC  0     **** ASC X 3
     4 GLC5        4 GROUP        1 X    GLC  0     **** GLC X 6
     5 ALP1        3 GROUP        1 Y    ALP  0     ROOT ALP Y 8
     6 SEP2       42 GROUP        1 Y    SEP  0     **** SEP Y 9
     7 ASP3        9 GROUP        1 Y    ASP  0     **** ASP Y 10
     8 GLP5        6 GROUP        1 Y    GLP  0     **** GLP Y 13
     9 ALL1        2 GROUP        1 Z    ALL  0     ROOT ALL Z 15
    10 SEL2       41 GROUP        1 Z    SEL  0     **** SEL Z 16
    11 ASL3        8 GROUP        1 Z    ASL  0     **** ASL Z 17
    12 GLL5        5 GROUP        1 Z    GLL  0     **** GLL Z 20
@<TRIPOS>SET

