#    Name: 4gon_0Y1_2_ligand
#    Modification time : Mon Mar 24 23:28:14 2014

@<TRIPOS>MOLECULE
4gon_0Y1_2_ligand
   68    72     1     0     0
SMALL
NO_CHARGES


@<TRIPOS>ATOM
      1 CBC        97.8480  -12.8260   55.2680 C.ar      1 0Y1301      0.0000 
      2 CBG        98.8100  -13.8080   55.4740 C.ar      1 0Y1301      0.0000 
      3 CBH        98.4960  -15.1290   55.2340 C.ar      1 0Y1301      0.0000 
      4 CBI        97.2360  -15.5000   54.7800 C.ar      1 0Y1301      0.0000 
      5 CBJ        96.2930  -14.5110   54.5810 C.ar      1 0Y1301      0.0000 
      6 CBD        96.5990  -13.1540   54.8290 C.ar      1 0Y1301      0.0000 
      7 NBE        95.7800  -11.9750   54.7050 N.pl3     1 0Y1301      0.0000 
      8 CBF        96.6610  -10.9390   55.0970 C.2       1 0Y1301      0.0000 
      9 CBB        97.8670  -11.5250   55.4350 C.2       1 0Y1301      0.0000 
     10 CBA        99.0820  -10.7700   55.9090 C.3       1 0Y1301      0.0000 
     11 CAZ        99.3570  -10.7340   57.3850 C.3       1 0Y1301      0.0000 
     12 NAR       100.7910  -10.6840   57.7410 N.4       1 0Y1301      0.0000 
     13 CAS       101.2820   -9.3240   57.4360 C.3       1 0Y1301      0.0000 
     14 CB        100.1600   -8.3230   57.6110 C.3       1 0Y1301      0.0000 
     15 CA        100.4510   -7.0850   56.8980 C.3       1 0Y1301      0.0000 
     16 C          99.9980   -5.8790   57.5950 C.2       1 0Y1301      0.0000 
     17 OXT        98.8260   -5.7690   58.0940 O.co2     1 0Y1301      0.0000 
     18 O         100.9210   -5.0080   57.6680 O.co2     1 0Y1301      0.0000 
     19 N         101.8870   -6.9190   57.0810 N.4       1 0Y1301      0.0000 
     20 CAF       100.9200  -10.7280   59.1770 C.3       1 0Y1301      0.0000 
     21 CAA       101.4650  -11.9710   59.6470 C.3       1 0Y1301      0.0000 
     22 OAE       102.1550  -11.6860   60.8960 O.3       1 0Y1301      0.0000 
     23 CAB       100.3170  -12.8590   59.9130 C.3       1 0Y1301      0.0000 
     24 OAH       100.4100  -14.0100   59.1630 O.3       1 0Y1301      0.0000 
     25 CAC       100.4130  -13.1080   61.3470 C.3       1 0Y1301      0.0000 
     26 OAI       100.1490  -14.4250   61.6310 O.3       1 0Y1301      0.0000 
     27 CAD       101.8240  -12.7700   61.6890 C.3       1 0Y1301      0.0000 
     28 N9        102.0770  -12.5220   63.1280 N.pl3     1 0Y1301      0.0000 
     29 C8        101.2730  -11.9850   64.0730 C.2       1 0Y1301      0.0000 
     30 N7        101.9630  -12.0100   65.2290 N.2       1 0Y1301      0.0000 
     31 C5        103.1810  -12.5390   65.0320 C.ar      1 0Y1301      0.0000 
     32 C4        103.2690  -12.8850   63.6800 C.ar      1 0Y1301      0.0000 
     33 N3        104.3850  -13.4650   63.1880 N.ar      1 0Y1301      0.0000 
     34 C2        105.4390  -13.6880   63.9960 C.ar      1 0Y1301      0.0000 
     35 N1        105.3890  -13.3640   65.3170 N.ar      1 0Y1301      0.0000 
     36 C6        104.2640  -12.8100   65.8460 C.ar      1 0Y1301      0.0000 
     37 N6        104.1810  -12.4530   67.2570 N.pl3     1 0Y1301      0.0000 
     38 H          99.7473  -13.5461   55.8030 H         1 0Y1301      0.0000 
     39 H          99.2121  -15.8649   55.3943 H         1 0Y1301      0.0000 
     40 H          97.0174  -16.4784   54.5997 H         1 0Y1301      0.0000 
     41 H          95.3460  -14.7525   54.2462 H         1 0Y1301      0.0000 
     42 H          94.9229  -11.9265   54.4422 H         1 0Y1301      0.0000 
     43 H          96.4468  -10.0236   55.1174 H         1 0Y1301      0.0000 
     44 H          99.0140   -9.7124   55.5301 H         1 0Y1301      0.0000 
     45 H          99.9867  -11.1865   55.3848 H         1 0Y1301      0.0000 
     46 H          98.8867  -11.6259   57.8564 H         1 0Y1301      0.0000 
     47 H          98.8332   -9.8550   57.8232 H         1 0Y1301      0.0000 
     48 H         101.3527  -11.3976   57.2673 H         1 0Y1301      0.0000 
     49 H         101.6442   -9.2729   56.4075 H         1 0Y1301      0.0000 
     50 H         102.1015   -9.0572   58.1058 H         1 0Y1301      0.0000 
     51 H         100.0293   -8.1311   58.6849 H         1 0Y1301      0.0000 
     52 H          99.2296   -8.7750   57.2406 H         1 0Y1301      0.0000 
     53 H         100.2139   -7.0915   55.9098 H         1 0Y1301      0.0000 
     54 H          99.9236  -10.5494   59.6478 H         1 0Y1301      0.0000 
     55 H         101.5594   -9.8800   59.5213 H         1 0Y1301      0.0000 
     56 H         102.1108  -12.3996   58.9378 H         1 0Y1301      0.0000 
     57 H          99.4172  -12.2930   59.7217 H         1 0Y1301      0.0000 
     58 H          99.7734  -12.4187   61.8645 H         1 0Y1301      0.0000 
     59 H         102.4390  -13.6459   61.3744 H         1 0Y1301      0.0000 
     60 H         100.3870  -11.6529   63.9425 H         1 0Y1301      0.0000 
     61 H         106.3122  -14.1164   63.6086 H         1 0Y1301      0.0000 
     62 H         103.5605  -11.7027   67.4853 H         1 0Y1301      0.0000 
     63 H         104.7513  -12.9877   67.8805 H         1 0Y1301      0.0000 
     64 H         102.3738   -6.9072   56.2075 H         1 0Y1301      0.0000 
     65 H         102.1051   -6.0631   57.5498 H         1 0Y1301      0.0000 
     66 H         102.2800   -7.6598   57.6256 H         1 0Y1301      0.0000 
     67 H         101.3660  -14.2928   59.2407 H         1 0Y1301      0.0000 
     68 H         100.8969  -14.9360   61.2073 H         1 0Y1301      0.0000 
@<TRIPOS>BOND
     1    2    1 ar   
     2    6    1 ar   
     3    9    1 1    
     4    3    2 ar   
     5   38    2 1    
     6    4    3 ar   
     7   39    3 1    
     8    5    4 ar   
     9   40    4 1    
    10    6    5 ar   
    11   41    5 1    
    12    7    6 1    
    13    8    7 1    
    14   42    7 1    
    15    9    8 2    
    16   43    8 1    
    17   10    9 1    
    18   11   10 1    
    19   44   10 1    
    20   45   10 1    
    21   12   11 1    
    22   46   11 1    
    23   47   11 1    
    24   13   12 1    
    25   20   12 1    
    26   48   12 1    
    27   14   13 1    
    28   49   13 1    
    29   50   13 1    
    30   15   14 1    
    31   51   14 1    
    32   52   14 1    
    33   16   15 1    
    34   19   15 1    
    35   53   15 1    
    36   17   16 ar   
    37   18   16 ar   
    38   64   19 1    
    39   65   19 1    
    40   66   19 1    
    41   21   20 1    
    42   54   20 1    
    43   55   20 1    
    44   22   21 1    
    45   23   21 1    
    46   56   21 1    
    47   27   22 1    
    48   24   23 1    
    49   25   23 1    
    50   57   23 1    
    51   67   24 1    
    52   26   25 1    
    53   27   25 1    
    54   58   25 1    
    55   68   26 1    
    56   28   27 1    
    57   59   27 1    
    58   29   28 1    
    59   32   28 1    
    60   30   29 2    
    61   60   29 1    
    62   31   30 1    
    63   32   31 ar   
    64   36   31 ar   
    65   33   32 ar   
    66   34   33 ar   
    67   35   34 ar   
    68   61   34 1    
    69   36   35 ar   
    70   37   36 1    
    71   62   37 1    
    72   63   37 1    
@<TRIPOS>SUBSTRUCTURE
     1 0Y1301      1 GROUP   
@<TRIPOS>SET

