#    Name: 3zcw_4A2_2_INTS_M
#    Modification time : Tue Mar 25 02:44:40 2014

@<TRIPOS>MOLECULE
3zcw_4A2_2_INTS_M
   81     0     3     0     0
SMALL
NO_CHARGES


@<TRIPOS>ATOM
      1 CA          2.5230    5.5975   28.5020 C.3       1 GLC5        0.0000 
      2 CA          1.9860    6.9200   29.4810 C.3       3 GLL5        0.0000 
      3 CA          3.0600    4.2750   27.5230 C.3       2 GLP5        0.0000 
      4 CA          3.5010    7.4425   28.4480 C.3       1 GLC5        0.0000 
      5 CA          5.0160    7.9650   27.4150 C.3       2 GLP5        0.0000 
      6 CA          2.9780    4.2570   31.9885 C.3       1 GLC5        0.0000 
      7 CA          2.6090    6.0020   31.4070 C.3       3 GLL5        0.0000 
      8 CA          3.3470    2.5120   32.5700 C.3       2 GLP5        0.0000 
      9 CA          1.9045    6.5445   33.4995 C.3       1 GLC5        0.0000 
     10 CA          0.2000    6.7210   32.4080 C.3       3 GLL5        0.0000 
     11 CA          3.6090    6.3680   34.5910 C.3       2 GLP5        0.0000 
     12 CA          1.2110   10.1355   28.0790 C.3       1 GLC5        0.0000 
     13 CA          0.4590    9.1940   29.4640 C.3       3 GLL5        0.0000 
     14 CA          1.9630   11.0770   26.6940 C.3       2 GLP5        0.0000 
     15 CA         -1.4830   14.6915   31.0020 C.3       1 GLC5        0.0000 
     16 CA          0.3840   13.9760   30.4340 C.3       3 GLL5        0.0000 
     17 CA         -3.3500   15.4070   31.5700 C.3       2 GLP5        0.0000 
     18 CA         -6.4835   11.6185   30.3195 C.3       1 GLC5        0.0000 
     19 CA         -6.0470   12.5610   28.9520 C.3       3 GLL5        0.0000 
     20 CA         -6.9200   10.6760   31.6870 C.3       2 GLP5        0.0000 
     21 CA         -7.9430   12.8785   29.1545 C.3       1 GLC5        0.0000 
     22 CA         -9.8390   13.1960   29.3570 C.3       2 GLP5        0.0000 
     23 CA         -8.8205   12.4325   27.9360 C.3       1 GLC5        0.0000 
     24 CA         -7.8020   11.6690   26.5150 C.3       3 GLL5        0.0000 
     25 CA         -9.2145   13.2295   26.0815 C.3       1 GLC5        0.0000 
     26 CA        -10.6270   14.7900   25.6480 C.3       2 GLP5        0.0000 
     27 CA         -9.5560   11.0095   25.7855 C.3       1 GLC5        0.0000 
     28 CA        -11.3100   10.3500   25.0560 C.3       2 GLP5        0.0000 
     29 CA         -7.7150   10.6005   24.8890 C.3       1 GLC5        0.0000 
     30 CA         -7.6280    9.5320   23.2630 C.3       2 GLP5        0.0000 
     31 CA         -3.1695   12.8975   24.9860 C.3       1 GLC5        0.0000 
     32 CA         -4.5970   11.5240   25.7810 C.3       3 GLL5        0.0000 
     33 CA         -1.7420   14.2710   24.1910 C.3       2 GLP5        0.0000 
     34 CA         -6.1125   10.5280   24.5220 C.3       1 GLC5        0.0000 
     35 CA          4.0080    8.0035   29.7728 C.3       1 GLC5        0.0000 
     36 CA          2.1020    7.0750   30.8070 C.3       3 GLL5        0.0000 
     37 CA          5.5190    8.4210   28.6220 C.3       2 GLP5        0.0000 
     38 CA          0.7913    5.5919   29.8888 C.3       1 GLC5        0.0000 
     39 CA         -0.7440    4.6840   29.0020 C.3       2 GLP5        0.0000 
     40 CA          3.8719    6.0489   30.4952 C.3       1 GLC5        0.0000 
     41 CA          5.1200    4.7800   29.9170 C.3       2 GLP5        0.0000 
     42 CA          3.1164    6.8429   32.8323 C.3       1 GLC5        0.0000 
     43 CA         -0.2078    6.3000   29.9985 C.3       1 GLC5        0.0000 
     44 CA          0.7020    7.4200   31.3110 C.3       3 GLL5        0.0000 
     45 CA         -0.7842    5.3507   31.4070 C.3       1 GLC5        0.0000 
     46 CA         -1.1340    3.8350   30.1740 C.3       2 GLP5        0.0000 
     47 CA         -1.1660    9.4692   32.8505 C.3       1 GLC5        0.0000 
     48 CA         -1.0690    7.0120   32.8720 C.3       3 GLL5        0.0000 
     49 CA         -0.8890   11.4320   33.1440 C.3       2 GLP5        0.0000 
     50 CA         -2.4845    8.6037   33.9120 C.3       1 GLC5        0.0000 
     51 CA         -1.8170    8.0010   32.2420 C.3       3 GLL5        0.0000 
     52 CA         -3.5260    9.7010   35.2670 C.3       2 GLP5        0.0000 
     53 CA         -3.4220    8.6255   31.2752 C.3       1 GLC5        0.0000 
     54 CA         -5.2760    8.9000   30.8530 C.3       2 GLP5        0.0000 
     55 CA         -0.7855    9.9943   32.0300 C.3       1 GLC5        0.0000 
     56 CA         -1.3190    8.7010   31.1530 C.3       3 GLL5        0.0000 
     57 CA          0.1622   11.5168   31.8473 C.3       1 GLC5        0.0000 
     58 CA          0.6560   11.5940   30.1310 C.3       3 GLL5        0.0000 
     59 CA          3.1025   13.1427   29.9180 C.3       1 GLC5        0.0000 
     60 CA          1.7710   11.6090   30.9700 C.3       3 GLL5        0.0000 
     61 CA          4.2200   14.0710   28.5780 C.3       2 GLP5        0.0000 
     62 CA          3.6515   11.7993   32.1050 C.3       1 GLC5        0.0000 
     63 CA          2.1990   12.8200   31.5460 C.3       3 GLL5        0.0000 
     64 CA          5.3180   11.3840   32.9520 C.3       2 GLP5        0.0000 
     65 CA          1.5680   14.0178   33.4047 C.3       1 GLC5        0.0000 
     66 CA          1.2830   14.6240   35.4010 C.3       2 GLP5        0.0000 
     67 CA          0.4820   12.4218   32.2762 C.3       1 GLC5        0.0000 
     68 CA          1.5070   14.0030   31.2710 C.3       3 GLL5        0.0000 
     69 CA          2.5827   14.0302   29.7153 C.3       1 GLC5        0.0000 
     70 CA         -0.3578   12.4025   31.6472 C.3       1 GLC5        0.0000 
     71 CA          1.2756   11.6314   28.4514 C.3       1 GLC5        0.0000 
     72 CA         -0.0370   12.7700   29.8670 C.3       3 GLL5        0.0000 
     73 CA         -1.9013   11.5257   25.5110 C.3       1 GLC5        0.0000 
     74 CA         -3.0530   11.0090   27.5870 C.3       3 GLL5        0.0000 
     75 CA         -0.5850   12.0430   24.1140 C.3       2 GLP5        0.0000 
     76 CA         -5.0861   10.1019   28.7743 C.3       1 GLC5        0.0000 
     77 CA         -5.1690   12.0600   28.0560 C.3       3 GLL5        0.0000 
     78 CA         -5.8360    8.5360   29.4970 C.3       2 GLP5        0.0000 
     79 CA         -4.6666   13.1190   30.1194 C.3       1 GLC5        0.0000 
     80 CA         -3.9540   11.5420   28.5070 C.3       3 GLL5        0.0000 
     81 CA         -4.0290   14.0570   31.6220 C.3       2 GLP5        0.0000 
@<TRIPOS>BOND
@<TRIPOS>SUBSTRUCTURE
     1 GLC5        1 GROUP        1 X    GLC  0     ROOT GLC X 6
     2 GLP5        3 GROUP        1 Y    GLP  0     ROOT GLP Y 13
     3 GLL5        2 GROUP        1 Z    GLL  0     ROOT GLL Z 20
@<TRIPOS>SET

