#    Name: 3zcw_4A2_2_ligand
#    Modification time : Tue Mar 25 02:44:41 2014

@<TRIPOS>MOLECULE
3zcw_4A2_2_ligand
   49    52     1     0     0
SMALL
NO_CHARGES


@<TRIPOS>ATOM
      1 FAA         1.9860    6.9200   29.4810 F         1 4A21367     0.0000 
      2 CAC         2.1020    7.0750   30.8070 C.3       1 4A21367     0.0000 
      3 FAB         2.6090    6.0020   31.4070 F         1 4A21367     0.0000 
      4 FAG         2.8920    8.0970   31.0400 F         1 4A21367     0.0000 
      5 CAD         0.7020    7.4200   31.3110 C.ar      1 4A21367     0.0000 
      6 CAE         0.2000    6.7210   32.4080 C.ar      1 4A21367     0.0000 
      7 CAF        -1.0690    7.0120   32.8720 C.ar      1 4A21367     0.0000 
      8 CAK        -1.8170    8.0010   32.2420 C.ar      1 4A21367     0.0000 
      9 CAJ        -1.3190    8.7010   31.1530 C.ar      1 4A21367     0.0000 
     10 CAI        -0.0450    8.4120   30.6790 C.ar      1 4A21367     0.0000 
     11 CAH         0.4590    9.1940   29.4640 C.3       1 4A21367     0.0000 
     12 NAP         0.0320   10.6050   29.4640 N.pl3     1 4A21367     0.0000 
     13 CAO         0.6560   11.5940   30.1310 C.ar      1 4A21367     0.0000 
     14 CAN         1.7710   11.6090   30.9700 C.ar      1 4A21367     0.0000 
     15 CAM         2.1990   12.8200   31.5460 C.ar      1 4A21367     0.0000 
     16 CAW         1.5070   14.0030   31.2710 C.ar      1 4A21367     0.0000 
     17 CAV         1.9720   15.3280   31.9080 C.2       1 4A21367     0.0000 
     18 OAL         1.2140   16.3220   31.9250 O.co2     1 4A21367     0.0000 
     19 OBG         3.1030   15.4050   32.4260 O.co2     1 4A21367     0.0000 
     20 CAX         0.3840   13.9760   30.4340 C.ar      1 4A21367     0.0000 
     21 CAY        -0.0370   12.7700   29.8670 C.ar      1 4A21367     0.0000 
     22 NAZ        -1.0320   12.4500   29.0380 N.pl3     1 4A21367     0.0000 
     23 CBA        -1.0040   11.1250   28.7870 C.2       1 4A21367     0.0000 
     24 NBB        -1.8740   10.4930   27.9940 N.2       1 4A21367     0.0000 
     25 CBC        -3.0530   11.0090   27.5870 C.ar      1 4A21367     0.0000 
     26 CBD        -3.9540   11.5420   28.5070 C.ar      1 4A21367     0.0000 
     27 CBE        -5.1690   12.0600   28.0560 C.ar      1 4A21367     0.0000 
     28 FBF        -6.0470   12.5610   28.9520 F         1 4A21367     0.0000 
     29 CAS        -5.5100   12.0530   26.6970 C.ar      1 4A21367     0.0000 
     30 OAT        -6.6990   12.5560   26.2140 O.3       1 4A21367     0.0000 
     31 CAU        -7.8020   11.6690   26.5150 C.3       1 4A21367     0.0000 
     32 CAR        -4.5970   11.5240   25.7810 C.ar      1 4A21367     0.0000 
     33 CAQ        -3.3820   11.0080   26.2290 C.ar      1 4A21367     0.0000 
     34 H           0.7697    6.0007   32.8612 H         1 4A21367     0.0000 
     35 H          -1.4593    6.5052   33.6738 H         1 4A21367     0.0000 
     36 H          -2.7690    8.2189   32.5959 H         1 4A21367     0.0000 
     37 H          -1.8853    9.4261   30.7005 H         1 4A21367     0.0000 
     38 H           0.0967    8.6839   28.5535 H         1 4A21367     0.0000 
     39 H           1.5616    9.1272   29.4465 H         1 4A21367     0.0000 
     40 H           2.2805   10.7437   31.1696 H         1 4A21367     0.0000 
     41 H           3.0145   12.8297   32.1634 H         1 4A21367     0.0000 
     42 H          -0.1285   14.8425   30.2381 H         1 4A21367     0.0000 
     43 H          -1.6849   13.0732   28.6654 H         1 4A21367     0.0000 
     44 H          -3.7276   11.5539   29.5045 H         1 4A21367     0.0000 
     45 H          -4.8220   11.5160   24.7799 H         1 4A21367     0.0000 
     46 H          -2.7111   10.6171   25.5451 H         1 4A21367     0.0000 
     47 H          -7.6710   10.7634   26.1116 H         1 4A21367     0.0000 
     48 H          -7.9148   11.5377   27.4999 H         1 4A21367     0.0000 
     49 H          -8.6694   12.0230   26.1652 H         1 4A21367     0.0000 
@<TRIPOS>BOND
     1    2    1 1    
     2    3    2 1    
     3    4    2 1    
     4    5    2 1    
     5    6    5 ar   
     6   10    5 ar   
     7    7    6 ar   
     8   34    6 1    
     9    8    7 ar   
    10   35    7 1    
    11    9    8 ar   
    12   36    8 1    
    13   10    9 ar   
    14   37    9 1    
    15   11   10 1    
    16   12   11 1    
    17   38   11 1    
    18   39   11 1    
    19   13   12 1    
    20   23   12 1    
    21   14   13 ar   
    22   21   13 ar   
    23   15   14 ar   
    24   40   14 1    
    25   16   15 ar   
    26   41   15 1    
    27   17   16 1    
    28   20   16 ar   
    29   18   17 ar   
    30   19   17 ar   
    31   21   20 ar   
    32   42   20 1    
    33   22   21 1    
    34   23   22 1    
    35   43   22 1    
    36   24   23 2    
    37   25   24 1    
    38   26   25 ar   
    39   33   25 ar   
    40   27   26 ar   
    41   44   26 1    
    42   28   27 1    
    43   29   27 ar   
    44   30   29 1    
    45   32   29 ar   
    46   31   30 1    
    47   47   31 1    
    48   48   31 1    
    49   49   31 1    
    50   33   32 ar   
    51   45   32 1    
    52   46   33 1    
@<TRIPOS>SUBSTRUCTURE
     1 4A21367     1 GROUP   
@<TRIPOS>SET

