#    Name: 3ngq_1PS_1_INTS_M
#    Modification time : Tue Mar 25 01:33:24 2014

@<TRIPOS>MOLECULE
3ngq_1PS_1_INTS_M
   17     0     6     0     0
SMALL
NO_CHARGES


@<TRIPOS>ATOM
      1 CA         -4.6980   52.8605   14.6800 C.3       2 GLC5        0.0000 
      2 CA         -6.6730   52.2800   14.9510 C.3       6 GLL5        0.0000 
      3 CA         -2.7230   53.4410   14.4090 C.3       4 GLP5        0.0000 
      4 CA         -3.8990   51.3630   18.2175 C.3       2 GLC5        0.0000 
      5 CA         -4.9040   50.2550   16.9550 C.3       6 GLL5        0.0000 
      6 CA         -2.8940   52.4710   19.4800 C.3       4 GLP5        0.0000 
      7 CA         -6.6140   48.2185   18.4720 C.3       2 GLC5        0.0000 
      8 CA         -5.0200   49.6010   18.3370 C.3       6 GLL5        0.0000 
      9 CA         -8.2080   46.8360   18.6070 C.3       4 GLP5        0.0000 
     10 CA         -4.2995   50.8050   19.4655 C.3       2 GLC5        0.0000 
     11 CA         -3.5790   52.0090   20.5940 C.3       4 GLP5        0.0000 
     12 NZ         -4.3080   46.5215   16.4635 N.4       1 LYC4        0.0000 
     13 NZ         -4.3140   47.1950   17.7820 N.4       5 LYL4        0.0000 
     14 NZ         -4.3020   45.8480   15.1450 N.4       3 LYP4        0.0000 
     15 CA         -7.2520   53.5280   18.8550 C.3       2 GLC5        0.0000 
     16 CA         -7.6320   52.0480   17.0790 C.3       6 GLL5        0.0000 
     17 CA         -6.5690   54.3760   20.6870 C.3       4 GLP5        0.0000 
@<TRIPOS>BOND
@<TRIPOS>SUBSTRUCTURE
     1 LYC4       12 GROUP        1 X    LYC  0     ROOT LYC X 4
     2 GLC5        1 GROUP        1 X    GLC  0     **** GLC X 6
     3 LYP4       14 GROUP        1 Y    LYP  0     ROOT LYP Y 11
     4 GLP5        3 GROUP        1 Y    GLP  0     **** GLP Y 13
     5 LYL4       13 GROUP        1 Z    LYL  0     ROOT LYL Z 18
     6 GLL5        2 GROUP        1 Z    GLL  0     **** GLL Z 20
@<TRIPOS>SET

