#    Name: 3ngq_1PS_1_ligand
#    Modification time : Tue Mar 25 01:33:24 2014

@<TRIPOS>MOLECULE
3ngq_1PS_1_ligand
   24    24     1     0     0
SMALL
NO_CHARGES


@<TRIPOS>ATOM
      1 N1         -6.8570   51.5580   16.0820 N.pl3     1 1PS556      0.0000 
      2 C1         -7.6320   52.0480   17.0790 C.ar      1 1PS556      0.0000 
      3 C2         -8.2380   53.3120   16.9670 C.ar      1 1PS556      0.0000 
      4 C3         -6.6730   52.2800   14.9510 C.ar      1 1PS556      0.0000 
      5 C4         -7.2580   53.5470   14.7880 C.ar      1 1PS556      0.0000 
      6 C5         -8.0540   54.0770   15.8080 C.ar      1 1PS556      0.0000 
      7 C6         -6.2370   50.2280   16.2130 C.3       1 1PS556      0.0000 
      8 C7         -4.9040   50.2550   16.9550 C.3       1 1PS556      0.0000 
      9 C8         -5.0200   49.6010   18.3370 C.3       1 1PS556      0.0000 
     10 S1         -3.9090   48.3620   18.5900 S.o2      1 1PS556      0.0000 
     11 O1         -2.5630   48.7940   18.1610 O.co2     1 1PS556      0.0000 
     12 O2         -4.3140   47.1950   17.7820 O.co2     1 1PS556      0.0000 
     13 O3         -3.8420   47.9880   20.0170 O.co2     1 1PS556      0.0000 
     14 H          -7.7946   51.5009   17.9460 H         1 1PS556      0.0000 
     15 H          -8.8135   53.6712   17.7341 H         1 1PS556      0.0000 
     16 H          -6.0891   51.9073   14.1727 H         1 1PS556      0.0000 
     17 H          -7.1008   54.0757   13.9277 H         1 1PS556      0.0000 
     18 H          -8.4856   54.9875   15.7128 H         1 1PS556      0.0000 
     19 H          -6.0665   49.7853   15.2143 H         1 1PS556      0.0000 
     20 H          -6.9163   49.5404   16.7498 H         1 1PS556      0.0000 
     21 H          -4.5792   51.2891   17.0768 H         1 1PS556      0.0000 
     22 H          -4.1542   49.7207   16.3702 H         1 1PS556      0.0000 
     23 H          -5.9955   49.1472   18.4779 H         1 1PS556      0.0000 
     24 H          -4.8370   50.3190   19.1297 H         1 1PS556      0.0000 
@<TRIPOS>BOND
     1    2    1 ar   
     2    4    1 ar   
     3    7    1 1    
     4    3    2 ar   
     5   14    2 1    
     6    6    3 ar   
     7   15    3 1    
     8    5    4 ar   
     9   16    4 1    
    10    6    5 ar   
    11   17    5 1    
    12   18    6 1    
    13    8    7 1    
    14   19    7 1    
    15   20    7 1    
    16    9    8 1    
    17   21    8 1    
    18   22    8 1    
    19   10    9 1    
    20   23    9 1    
    21   24    9 1    
    22   11   10 ar   
    23   12   10 ar   
    24   13   10 ar   
@<TRIPOS>SUBSTRUCTURE
     1 1PS556      1 GROUP   
@<TRIPOS>SET

