#    Name: 1ee1_DND_1_INTS_M
#    Modification time : Mon Mar 24 23:36:45 2014

@<TRIPOS>MOLECULE
1ee1_DND_1_INTS_M
   88     0    12     0     0
SMALL
NO_CHARGES


@<TRIPOS>ATOM
      1 NZ         19.1695   57.6870   35.7635 N.4       3 LYC4        0.0000 
      2 NZ         19.4870   56.3800   35.7330 N.4      11 LYL4        0.0000 
      3 NZ         18.8520   58.9940   35.7940 N.4       7 LYP4        0.0000 
      4 N          19.1695   57.6870   35.7635 N.am      2 SEC2        0.0000 
      5 N          19.4870   56.3800   35.7330 N.am     10 SEL2        0.0000 
      6 N          18.8520   58.9940   35.7940 N.am      6 SEP2        0.0000 
      7 CA         16.0605   57.0740   37.9205 C.3       4 GLC5        0.0000 
      8 CA         17.6980   55.8670   38.0170 C.3      12 GLL5        0.0000 
      9 CA         14.4230   58.2810   37.8240 C.3       8 GLP5        0.0000 
     10 CA         19.7765   53.4020   39.4375 C.3       4 GLC5        0.0000 
     11 CA         19.5450   55.2390   39.8940 C.3      12 GLL5        0.0000 
     12 CA         20.0080   51.5650   38.9810 C.3       8 GLP5        0.0000 
     13 O          21.8760   54.3390   40.6105 O.2       1 ALC1        0.0000 
     14 O          20.9280   55.3420   40.3070 O.2       9 ALL1        0.0000 
     15 O          22.8240   53.3360   40.9140 O.2       5 ALP1        0.0000 
     16 O          20.5180   54.2715   42.6980 O.2       1 ALC1        0.0000 
     17 O          19.1480   55.0730   42.4960 O.2       9 ALL1        0.0000 
     18 O          21.8880   53.4700   42.9000 O.2       5 ALP1        0.0000 
     19 CA         17.5490   58.7510   40.4320 C.3       4 GLC5        0.0000 
     20 CA         18.4370   56.9980   40.9320 C.3      12 GLL5        0.0000 
     21 CA         16.6610   60.5040   39.9320 C.3       8 GLP5        0.0000 
     22 CA         13.0370   56.6450   41.5220 C.3       4 GLC5        0.0000 
     23 CA         14.9790   57.4930   42.0240 C.3      12 GLL5        0.0000 
     24 CA         11.0950   55.7970   41.0200 C.3       8 GLP5        0.0000 
     25 CA         13.9265   59.6945   44.3265 C.3       4 GLC5        0.0000 
     26 CA         15.1470   58.1690   43.2140 C.3      12 GLL5        0.0000 
     27 CA         12.7060   61.2200   45.4390 C.3       8 GLP5        0.0000 
     28 NZ         13.9885   55.5615   33.8640 N.4       3 LYC4        0.0000 
     29 NZ         15.3420   55.3870   33.9140 N.4      11 LYL4        0.0000 
     30 NZ         11.6220   54.9890   34.1950 N.4       7 LYP4        0.0000 
     31 N          13.9885   55.5615   33.8640 N.am      2 SEC2        0.0000 
     32 N          15.3420   55.3870   33.9140 N.am     10 SEL2        0.0000 
     33 N          12.6350   55.7360   33.8140 N.am      6 SEP2        0.0000 
     34 NZ         17.5165   58.2185   35.5370 N.4       3 LYC4        0.0000 
     35 NZ         16.1810   57.4430   35.2800 N.4      11 LYL4        0.0000 
     36 N          15.0890   58.2410   35.4265 N.am      2 SEC2        0.0000 
     37 N          16.1810   57.4430   35.2800 N.am     10 SEL2        0.0000 
     38 N          13.9970   59.0390   35.5730 N.am      6 SEP2        0.0000 
     39 N          17.9870   58.2540   30.3980 N.am      2 SEC2        0.0000 
     40 N          17.0560   56.9660   30.3350 N.am     10 SEL2        0.0000 
     41 N          18.9180   59.5420   30.4610 N.am      6 SEP2        0.0000 
     42 CA         14.5030   55.6005   29.2255 C.3       4 GLC5        0.0000 
     43 CA         16.5530   55.1740   28.8020 C.3      12 GLL5        0.0000 
     44 CA         12.4530   56.0270   29.6490 C.3       8 GLP5        0.0000 
     45 O          14.9460   55.5225   27.4440 O.2       1 ALC1        0.0000 
     46 O          15.2860   54.6780   28.4030 O.2       9 ALL1        0.0000 
     47 O          14.6060   56.3670   26.4850 O.2       5 ALP1        0.0000 
     48 CA         17.6140   58.5225   29.3255 C.3       4 GLC5        0.0000 
     49 CA         17.0030   56.5850   28.9400 C.3      12 GLL5        0.0000 
     50 CA         18.2250   60.4600   29.7110 C.3       8 GLP5        0.0000 
     51 CA         18.2565   59.2795   28.5930 C.3       4 GLC5        0.0000 
     52 CA         18.2880   58.0990   27.4750 C.3      12 GLL5        0.0000 
     53 CA         16.3630   58.2195   26.3210 C.3       4 GLC5        0.0000 
     54 CA         14.4380   58.3400   25.1670 C.3       8 GLP5        0.0000 
     55 CA         18.4060   61.0600   27.0190 C.3       4 GLC5        0.0000 
     56 CA         17.8380   59.7720   25.9490 C.3      12 GLL5        0.0000 
     57 CA         18.9740   62.3480   28.0890 C.3       8 GLP5        0.0000 
     58 CA         17.8655   57.7050   25.4255 C.3       4 GLC5        0.0000 
     59 CA         17.8930   55.6380   24.9020 C.3       8 GLP5        0.0000 
     60 CA         16.1380   59.0560   25.5580 C.3       4 GLC5        0.0000 
     61 N          19.2295   60.8785   24.8220 N.am      2 SEC2        0.0000 
     62 N          19.1570   59.9270   25.7310 N.am     10 SEL2        0.0000 
     63 N          19.3020   61.8300   23.9130 N.am      6 SEP2        0.0000 
     64 CA         21.2910   58.9065   24.8200 C.3       4 GLC5        0.0000 
     65 CA         20.1090   59.2310   26.3610 C.3      12 GLL5        0.0000 
     66 CA         22.4730   58.5820   23.2790 C.3       8 GLP5        0.0000 
     67 CA         18.9550   54.0395   38.1050 C.3       4 GLC5        0.0000 
     68 CA         19.6260   52.0360   37.7370 C.3       8 GLP5        0.0000 
     69 CA         20.2853   56.9845   41.9640 C.3       4 GLC5        0.0000 
     70 CA         18.8820   55.6160   41.1800 C.3      12 GLL5        0.0000 
     71 CA         21.9110   57.6620   42.8720 C.3       8 GLP5        0.0000 
     72 CA         16.1085   58.9225   40.7995 C.3       4 GLC5        0.0000 
     73 CA         16.1330   57.1890   41.3100 C.3      12 GLL5        0.0000 
     74 CA         14.5200   57.2585   40.0250 C.3       4 GLC5        0.0000 
     75 CA         13.4840   57.1760   38.3830 C.3       8 GLP5        0.0000 
     76 CA         15.1370   55.8340   42.4560 C.3       4 GLC5        0.0000 
     77 CA         14.7180   54.3270   43.2450 C.3       8 GLP5        0.0000 
     78 CA         15.2528   56.3192   43.3500 C.3       4 GLC5        0.0000 
     79 CA         16.4280   58.4540   43.6960 C.3      12 GLL5        0.0000 
     80 CA         16.6831   59.3636   41.5830 C.3       4 GLC5        0.0000 
     81 CA         16.9541   57.0466   44.5770 C.3       4 GLC5        0.0000 
     82 CA         17.6230   58.1350   43.0130 C.3      12 GLL5        0.0000 
     83 CA         17.2030   55.8700   45.9200 C.3       8 GLP5        0.0000 
     84 CA         17.3355   55.7587   26.8865 C.3       4 GLC5        0.0000 
     85 CA         19.5030   59.9973   27.9503 C.3       4 GLC5        0.0000 
     86 CA         19.6250   58.2760   27.2520 C.3      12 GLL5        0.0000 
     87 CA         19.1390   61.2410   29.0940 C.3       8 GLP5        0.0000 
     88 CA         18.7129   57.1736   25.8821 C.3       4 GLC5        0.0000 
@<TRIPOS>BOND
@<TRIPOS>SUBSTRUCTURE
     1 ALC1       13 GROUP        1 X    ALC  0     ROOT ALC X 1
     2 SEC2        4 GROUP        1 X    SEC  0     **** SEC X 2
     3 LYC4        1 GROUP        1 X    LYC  0     **** LYC X 4
     4 GLC5        7 GROUP        1 X    GLC  0     **** GLC X 6
     5 ALP1       15 GROUP        1 Y    ALP  0     ROOT ALP Y 8
     6 SEP2        6 GROUP        1 Y    SEP  0     **** SEP Y 9
     7 LYP4        3 GROUP        1 Y    LYP  0     **** LYP Y 11
     8 GLP5        9 GROUP        1 Y    GLP  0     **** GLP Y 13
     9 ALL1       14 GROUP        1 Z    ALL  0     ROOT ALL Z 15
    10 SEL2        5 GROUP        1 Z    SEL  0     **** SEL Z 16
    11 LYL4        2 GROUP        1 Z    LYL  0     **** LYL Z 18
    12 GLL5        8 GROUP        1 Z    GLL  0     **** GLL Z 20
@<TRIPOS>SET

