#    Name: 1ee1_DND_1_ligand
#    Modification time : Mon Mar 24 23:36:45 2014

@<TRIPOS>MOLECULE
1ee1_DND_1_ligand
   68    72     1     0     0
SMALL
NO_CHARGES


@<TRIPOS>ATOM
      1 PN         18.7640   55.1050   35.8320 P.3       1 DND4000     0.0000 
      2 O11        19.5410   54.0130   35.1580 O.co2     1 DND4000     0.0000 
      3 O12        19.4870   56.3800   35.7330 O.co2     1 DND4000     0.0000 
      4 O3P        17.3060   55.1860   35.1310 O.3       1 DND4000     0.0000 
      5 O5D        18.2230   54.7320   37.3180 O.3       1 DND4000     0.0000 
      6 C5D        17.6980   55.8670   38.0170 C.3       1 DND4000     0.0000 
      7 C4D        18.8700   56.2190   38.9290 C.3       1 DND4000     0.0000 
      8 O4D        18.6490   57.4790   39.6000 O.3       1 DND4000     0.0000 
      9 C3D        19.5450   55.2390   39.8940 C.3       1 DND4000     0.0000 
     10 O3D        20.9280   55.3420   40.3070 O.3       1 DND4000     0.0000 
     11 C2D        18.8820   55.6160   41.1800 C.3       1 DND4000     0.0000 
     12 O2D        19.1480   55.0730   42.4960 O.3       1 DND4000     0.0000 
     13 C1D        18.4370   56.9980   40.9320 C.3       1 DND4000     0.0000 
     14 N1N        17.4050   57.5120   41.7930 N.pl3     1 DND4000     0.0000 
     15 C6N        16.1330   57.1890   41.3100 C.ar      1 DND4000     0.0000 
     16 C5N        14.9790   57.4930   42.0240 C.ar      1 DND4000     0.0000 
     17 C4N        15.1470   58.1690   43.2140 C.ar      1 DND4000     0.0000 
     18 C3N        16.4280   58.4540   43.6960 C.ar      1 DND4000     0.0000 
     19 C2N        17.6230   58.1350   43.0130 C.ar      1 DND4000     0.0000 
     20 C7N        16.4490   58.8560   45.1450 C.2       1 DND4000     0.0000 
     21 O7N        17.6000   58.9540   45.6810 O.co2     1 DND4000     0.0000 
     22 O8N        15.2990   58.7430   45.6650 O.co2     1 DND4000     0.0000 
     23 PA         16.4030   56.2950   34.4030 P.3       1 DND4000     0.0000 
     24 O13        15.3420   55.3870   33.9140 O.co2     1 DND4000     0.0000 
     25 O14        16.1810   57.4430   35.2800 O.co2     1 DND4000     0.0000 
     26 O5B        17.2550   56.7560   33.0850 O.3       1 DND4000     0.0000 
     27 C5B        17.7290   55.7090   32.2470 C.3       1 DND4000     0.0000 
     28 C4B        16.8300   55.6880   31.0220 C.3       1 DND4000     0.0000 
     29 O4B        17.0560   56.9660   30.3350 O.3       1 DND4000     0.0000 
     30 C3B        17.0080   54.5350   30.0910 C.3       1 DND4000     0.0000 
     31 O3B        16.4090   53.2760   30.1760 O.3       1 DND4000     0.0000 
     32 C2B        16.5530   55.1740   28.8020 C.3       1 DND4000     0.0000 
     33 O2B        15.2860   54.6780   28.4030 O.3       1 DND4000     0.0000 
     34 C1B        17.0030   56.5850   28.9400 C.3       1 DND4000     0.0000 
     35 N9A        18.2070   57.0710   28.3270 N.pl3     1 DND4000     0.0000 
     36 C4A        18.2880   58.0990   27.4750 C.ar      1 DND4000     0.0000 
     37 N3A        17.3960   58.8790   26.8410 N.ar      1 DND4000     0.0000 
     38 C2A        17.8380   59.7720   25.9490 C.ar      1 DND4000     0.0000 
     39 N1A        19.1570   59.9270   25.7310 N.ar      1 DND4000     0.0000 
     40 C6A        20.1090   59.2310   26.3610 C.ar      1 DND4000     0.0000 
     41 C5A        19.6250   58.2760   27.2520 C.ar      1 DND4000     0.0000 
     42 N7A        20.3800   57.4010   27.9430 N.2       1 DND4000     0.0000 
     43 C8A        19.4820   56.6630   28.5890 C.2       1 DND4000     0.0000 
     44 N6A        21.4020   59.5320   26.2760 N.pl3     1 DND4000     0.0000 
     45 H          16.8619   55.6180   38.6229 H         1 DND4000     0.0000 
     46 H          17.5136   56.6901   37.3715 H         1 DND4000     0.0000 
     47 H          19.7469   56.4931   38.1662 H         1 DND4000     0.0000 
     48 H          19.2378   54.2458   39.6954 H         1 DND4000     0.0000 
     49 H          17.7392   55.0634   40.9053 H         1 DND4000     0.0000 
     50 H          19.4593   57.5778   41.4999 H         1 DND4000     0.0000 
     51 H          16.0513   56.7085   40.3917 H         1 DND4000     0.0000 
     52 H          14.0681   57.2299   41.6839 H         1 DND4000     0.0000 
     53 H          14.3240   58.4713   43.7607 H         1 DND4000     0.0000 
     54 H          18.5083   58.3386   43.3753 H         1 DND4000     0.0000 
     55 H          17.6653   54.7388   32.7297 H         1 DND4000     0.0000 
     56 H          18.7482   55.8808   31.9153 H         1 DND4000     0.0000 
     57 H          15.7868   55.6980   31.3900 H         1 DND4000     0.0000 
     58 H          18.1252   54.4470   29.9142 H         1 DND4000     0.0000 
     59 H          17.3613   54.7031   28.0626 H         1 DND4000     0.0000 
     60 H          16.1381   57.2336   28.5190 H         1 DND4000     0.0000 
     61 H          17.1539   60.3585   25.4127 H         1 DND4000     0.0000 
     62 H          19.6937   55.9070   29.1900 H         1 DND4000     0.0000 
     63 H          22.0300   58.9114   26.7455 H         1 DND4000     0.0000 
     64 H          21.6293   60.3517   25.7503 H         1 DND4000     0.0000 
     65 H          21.2671   54.4013   40.3124 H         1 DND4000     0.0000 
     66 H          20.0417   54.6313   42.4178 H         1 DND4000     0.0000 
     67 H          15.6901   53.2841   29.4809 H         1 DND4000     0.0000 
     68 H          15.1997   54.9337   27.4401 H         1 DND4000     0.0000 
@<TRIPOS>BOND
     1    2    1 ar   
     2    3    1 ar   
     3    4    1 1    
     4    5    1 1    
     5   23    4 1    
     6    6    5 1    
     7    7    6 1    
     8   45    6 1    
     9   46    6 1    
    10    8    7 1    
    11    9    7 1    
    12   47    7 1    
    13   13    8 1    
    14   10    9 1    
    15   11    9 1    
    16   48    9 1    
    17   65   10 1    
    18   12   11 1    
    19   13   11 1    
    20   49   11 1    
    21   66   12 1    
    22   14   13 1    
    23   50   13 1    
    24   15   14 ar   
    25   19   14 ar   
    26   16   15 ar   
    27   51   15 1    
    28   17   16 ar   
    29   52   16 1    
    30   18   17 ar   
    31   53   17 1    
    32   19   18 ar   
    33   20   18 1    
    34   54   19 1    
    35   21   20 ar   
    36   22   20 ar   
    37   24   23 ar   
    38   25   23 ar   
    39   26   23 1    
    40   27   26 1    
    41   28   27 1    
    42   55   27 1    
    43   56   27 1    
    44   29   28 1    
    45   30   28 1    
    46   57   28 1    
    47   34   29 1    
    48   31   30 1    
    49   32   30 1    
    50   58   30 1    
    51   67   31 1    
    52   33   32 1    
    53   34   32 1    
    54   59   32 1    
    55   68   33 1    
    56   35   34 1    
    57   60   34 1    
    58   36   35 1    
    59   43   35 1    
    60   37   36 ar   
    61   41   36 ar   
    62   38   37 ar   
    63   39   38 ar   
    64   61   38 1    
    65   40   39 ar   
    66   41   40 ar   
    67   44   40 1    
    68   42   41 1    
    69   43   42 2    
    70   62   43 1    
    71   63   44 1    
    72   64   44 1    
@<TRIPOS>SUBSTRUCTURE
     1 DND4000     1 GROUP   
@<TRIPOS>SET

