#    Name: 1VTK_1_CAVITY_N1_6.mol2
#    Modification time : Mon Mar 10 14:18:11 2014

@<TRIPOS>MOLECULE
1VTK_1_CAVITY_N1_6.mol2
   48     0     6     0     0
SMALL
NO_CHARGES


@<TRIPOS>ATOM
      1 CA         40.9294   18.9715   29.8965 C.3       5 GLY6        0.0000 
      2 NZ         39.5743   19.5010   29.5312 N.2       3 LYS4        0.0000 
      3 CA         40.5730   17.6444   29.2950 C.3       5 GLY6        0.0000 
      4 OG         39.2180   18.1739   28.9297 O.2       1 SER1        0.0000 
      5 CA         40.2167   16.3173   28.6935 C.3       5 GLY6        0.0000 
      6 CZ         39.8603   14.9902   28.0919 C.ar      4 PHE5        0.0000 
      7 CZ         41.7489   17.9854   31.5865 C.ar      4 PHE5        0.0000 
      8 DU         40.3938   18.5149   31.2212 H         6 CUB7        0.0000 
      9 CA         39.0388   19.0444   30.8558 C.3       5 GLY6        0.0000 
     10 CA         41.3926   16.6583   30.9850 C.3       5 GLY6        0.0000 
     11 DU         40.0375   17.1878   30.6196 H         6 CUB7        0.0000 
     12 O          38.6824   17.7173   30.2543 O.2       2 ALA2        0.0000 
     13 CA         41.0362   15.3313   30.3834 C.3       5 GLY6        0.0000 
     14 CA         39.6811   15.8607   30.0181 C.3       5 GLY6        0.0000 
     15 OG         38.3261   16.3902   29.6528 O.2       1 SER1        0.0000 
     16 CA         39.3248   14.5336   29.4166 C.3       5 GLY6        0.0000 
     17 OG         37.9697   15.0631   29.0513 O.2       1 SER1        0.0000 
     18 CA         38.9684   13.2065   28.8150 C.3       5 GLY6        0.0000 
     19 CA         37.6134   13.7360   28.4497 C.3       5 GLY6        0.0000 
     20 NZ         40.2147   19.3854   33.1473 N.2       3 LYS4        0.0000 
     21 CZ         41.2134   17.5288   32.9111 C.ar      4 PHE5        0.0000 
     22 DU         39.8583   18.0583   32.5458 H         6 CUB7        0.0000 
     23 CA         38.5032   18.5877   32.1805 C.3       5 GLY6        0.0000 
     24 CA         40.8570   16.2017   32.3096 C.3       5 GLY6        0.0000 
     25 DU         39.5020   16.7312   31.9443 H         6 CUB7        0.0000 
     26 OG         38.1469   17.2606   31.5790 O.2       1 SER1        0.0000 
     27 CZ         39.1456   15.4041   31.3428 C.ar      4 PHE5        0.0000 
     28 CZ         37.7905   15.9336   30.9774 C.ar      4 PHE5        0.0000 
     29 CZ         38.7892   14.0770   30.7412 C.ar      4 PHE5        0.0000 
     30 CZ         37.4342   14.6065   30.3759 C.ar      4 PHE5        0.0000 
     31 N          38.4329   12.7499   30.1397 N.2       2 ALA2        0.0000 
     32 CZ         37.0778   13.2794   29.7744 C.ar      4 PHE5        0.0000 
     33 NZ         40.6778   17.0722   34.2358 N.2       3 LYS4        0.0000 
     34 O          39.3228   17.6017   33.8705 O.2       2 ALA2        0.0000 
     35 CZ         40.3215   15.7451   33.6343 C.ar      4 PHE5        0.0000 
     36 CZ         38.9664   16.2746   33.2689 C.ar      4 PHE5        0.0000 
     37 CA         39.9651   14.4180   33.0327 C.3       5 GLY6        0.0000 
     38 CZ         38.6101   14.9475   32.6674 C.ar      4 PHE5        0.0000 
     39 CA         39.6088   13.0909   32.4312 C.3       5 GLY6        0.0000 
     40 CZ         38.2537   13.6204   32.0659 C.ar      4 PHE5        0.0000 
     41 CZ         41.1410   14.7590   35.3242 C.ar      4 PHE5        0.0000 
     42 O          39.7859   15.2885   34.9589 O.2       2 ALA2        0.0000 
     43 CZ         38.4309   15.8180   34.5936 C.ar      4 PHE5        0.0000 
     44 CZ         40.7847   13.4319   34.7227 C.ar      4 PHE5        0.0000 
     45 CZ         39.4296   13.9614   34.3574 C.ar      4 PHE5        0.0000 
     46 CA         40.4283   12.1049   34.1212 C.3       5 GLY6        0.0000 
     47 CZ         39.0732   12.6343   33.7559 C.ar      4 PHE5        0.0000 
     48 CA         40.2491   12.9753   36.0474 C.3       5 GLY6        0.0000 
@<TRIPOS>BOND
@<TRIPOS>SUBSTRUCTURE
     1 SER1        4 GROUP   
     2 ALA2       12 GROUP   
     3 LYS4        2 GROUP   
     4 PHE5        6 GROUP   
     5 GLY6        1 GROUP   
     6 CUB7        8 GROUP   
@<TRIPOS>SET

