#    Name: 1vtk_TMP_1_INTS_M
#    Modification time : Tue Mar 25 08:17:45 2014

@<TRIPOS>MOLECULE
1vtk_TMP_1_INTS_M
   60     0    12     0     0
SMALL
NO_CHARGES


@<TRIPOS>ATOM
      1 NZ         38.0155   21.1495   35.9165 N.4       3 LYC4        0.0000 
      2 NZ         38.9940   20.4580   34.4300 N.4      11 LYL4        0.0000 
      3 NZ         37.0370   21.8410   37.4030 N.4       7 LYP4        0.0000 
      4 NZ         38.4245   19.0850   35.4875 N.4       3 LYC4        0.0000 
      5 NZ         37.8550   17.7120   36.5450 N.4       7 LYP4        0.0000 
      6 NZ         39.2150   22.8185   31.0745 N.4       3 LYC4        0.0000 
      7 NZ         39.3910   21.7200   32.4180 N.4      11 LYL4        0.0000 
      8 NZ         39.0390   23.9170   29.7310 N.4       7 LYP4        0.0000 
      9 NZ         41.2870   22.2445   32.1215 N.4       3 LYC4        0.0000 
     10 NZ         43.1830   22.7690   31.8250 N.4       7 LYP4        0.0000 
     11 NZ         42.2220   21.8815   32.8100 N.4       3 LYC4        0.0000 
     12 NZ         41.2610   20.9940   33.7950 N.4      11 LYL4        0.0000 
     13 N          42.3890   20.3210   34.2685 N.am      2 SEC2        0.0000 
     14 N          41.2610   20.9940   33.7950 N.am     10 SEL2        0.0000 
     15 N          43.5170   19.6480   34.7420 N.am      6 SEP2        0.0000 
     16 CA         42.6070   17.7505   32.3365 C.3       4 GLC5        0.0000 
     17 CA         41.0220   19.0210   31.5030 C.3      12 GLL5        0.0000 
     18 CA         44.1920   16.4800   33.1700 C.3       8 GLP5        0.0000 
     19 CA         37.7995   19.4495   31.1450 C.3       4 GLC5        0.0000 
     20 CA         38.9680   18.5020   30.1480 C.3      12 GLL5        0.0000 
     21 CA         36.6310   20.3970   32.1420 C.3       8 GLP5        0.0000 
     22 N          37.8385   18.1070   27.9640 N.am      2 SEC2        0.0000 
     23 N          38.7680   18.6640   28.7420 N.am     10 SEL2        0.0000 
     24 N          36.9090   17.5500   27.1860 N.am      6 SEP2        0.0000 
     25 O          39.3210   19.8320   28.0900 O.2       1 ALC1        0.0000 
     26 O          38.7680   18.6640   28.7420 O.2       9 ALL1        0.0000 
     27 O          39.8740   21.0000   27.4380 O.2       5 ALP1        0.0000 
     28 CA         37.0050   18.5805   30.9070 C.3       4 GLC5        0.0000 
     29 CA         38.2620   17.3070   30.7510 C.3      12 GLL5        0.0000 
     30 CA         35.7480   19.8540   31.0630 C.3       8 GLP5        0.0000 
     31 CA         40.8470   14.8425   30.9665 C.3       4 GLC5        0.0000 
     32 CA         39.2580   16.2160   30.4690 C.3      12 GLL5        0.0000 
     33 CA         42.4360   13.4690   31.4640 C.3       8 GLP5        0.0000 
     34 O          38.6575   11.3685   31.2440 O.2       1 ALC1        0.0000 
     35 O          38.8470   12.7630   31.7070 O.2       9 ALL1        0.0000 
     36 O          38.4680    9.9740   30.7810 O.2       5 ALP1        0.0000 
     37 N          39.0155   10.4715   33.2640 N.am      2 SEC2        0.0000 
     38 N          39.1530   11.8170   33.7120 N.am     10 SEL2        0.0000 
     39 N          38.8780    9.1260   32.8160 N.am      6 SEP2        0.0000 
     40 CA         41.8215   15.0100   34.6600 C.3       4 GLC5        0.0000 
     41 CA         39.9140   14.1750   34.9860 C.3      12 GLL5        0.0000 
     42 CA         43.7290   15.8450   34.3340 C.3       8 GLP5        0.0000 
     43 CA         39.9630   15.6395   36.2630 C.3       4 GLC5        0.0000 
     44 CA         40.0120   17.1040   37.5400 C.3       8 GLP5        0.0000 
     45 CA         38.7415   13.8740   36.7210 C.3       4 GLC5        0.0000 
     46 CA         37.5690   13.5730   38.4560 C.3       8 GLP5        0.0000 
     47 CA         37.6405   15.4755   33.0030 C.3       4 GLC5        0.0000 
     48 CA         39.5590   15.1990   32.6990 C.3      12 GLL5        0.0000 
     49 CA         35.7220   15.7520   33.3070 C.3       8 GLP5        0.0000 
     50 CA         42.2743   17.9400   29.9383 C.3       4 GLC5        0.0000 
     51 CA         40.4150   18.2030   30.4080 C.3      12 GLL5        0.0000 
     52 CA         43.8300   17.2680   28.9210 C.3       8 GLP5        0.0000 
     53 CA         41.8698   20.0625   30.3272 C.3       4 GLC5        0.0000 
     54 CA         43.0210   21.5130   29.6990 C.3       8 GLP5        0.0000 
     55 CA         37.1100   15.9612   31.3470 C.3       4 GLC5        0.0000 
     56 CA         35.4600   15.1610   32.0840 C.3       8 GLP5        0.0000 
     57 CA         37.8798   13.8565   34.2785 C.3       4 GLC5        0.0000 
     58 CA         39.5490   14.0790   33.5500 C.3      12 GLL5        0.0000 
     59 CA         36.0280   13.5860   34.2890 C.3       8 GLP5        0.0000 
     60 CA         41.0406   14.0660   32.4737 C.3       4 GLC5        0.0000 
@<TRIPOS>BOND
@<TRIPOS>SUBSTRUCTURE
     1 ALC1       25 GROUP        1 X    ALC  0     ROOT ALC X 1
     2 SEC2       13 GROUP        1 X    SEC  0     **** SEC X 2
     3 LYC4        1 GROUP        1 X    LYC  0     **** LYC X 4
     4 GLC5       16 GROUP        1 X    GLC  0     **** GLC X 6
     5 ALP1       27 GROUP        1 Y    ALP  0     ROOT ALP Y 8
     6 SEP2       15 GROUP        1 Y    SEP  0     **** SEP Y 9
     7 LYP4        3 GROUP        1 Y    LYP  0     **** LYP Y 11
     8 GLP5       18 GROUP        1 Y    GLP  0     **** GLP Y 13
     9 ALL1       26 GROUP        1 Z    ALL  0     ROOT ALL Z 15
    10 SEL2       14 GROUP        1 Z    SEL  0     **** SEL Z 16
    11 LYL4        2 GROUP        1 Z    LYL  0     **** LYL Z 18
    12 GLL5       17 GROUP        1 Z    GLL  0     **** GLL Z 20
@<TRIPOS>SET

