#    Name: 1vtk_TMP_1_ligand
#    Modification time : Tue Mar 25 08:17:45 2014

@<TRIPOS>MOLECULE
1vtk_TMP_1_ligand
   34    35     1     0     0
SMALL
NO_CHARGES


@<TRIPOS>ATOM
      1 P          39.9140   20.6570   33.3040 P.3       1 TMP500      0.0000 
      2 O1P        38.9940   20.4580   34.4300 O.co2     1 TMP500      0.0000 
      3 O2P        39.3910   21.7200   32.4180 O.co2     1 TMP500      0.0000 
      4 O3P        41.2610   20.9940   33.7950 O.co2     1 TMP500      0.0000 
      5 O5'        39.9960   19.2810   32.4700 O.3       1 TMP500      0.0000 
      6 C5'        41.0220   19.0210   31.5030 C.3       1 TMP500      0.0000 
      7 C4'        40.4150   18.2030   30.4080 C.3       1 TMP500      0.0000 
      8 O4'        40.5050   16.8270   30.7590 O.3       1 TMP500      0.0000 
      9 C3'        38.9680   18.5020   30.1480 C.3       1 TMP500      0.0000 
     10 O3'        38.7680   18.6640   28.7420 O.3       1 TMP500      0.0000 
     11 C2'        38.2620   17.3070   30.7510 C.3       1 TMP500      0.0000 
     12 C1'        39.2580   16.2160   30.4690 C.3       1 TMP500      0.0000 
     13 N1         39.1990   15.0570   31.3900 N.am      1 TMP500      0.0000 
     14 C2         38.8490   13.8510   30.8730 C.2       1 TMP500      0.0000 
     15 O2         38.5320   13.7250   29.6870 O.2       1 TMP500      0.0000 
     16 N3         38.8470   12.7630   31.7070 N.am      1 TMP500      0.0000 
     17 C4         39.1850   12.8390   33.0290 C.2       1 TMP500      0.0000 
     18 O4         39.1530   11.8170   33.7120 O.2       1 TMP500      0.0000 
     19 C5         39.5490   14.0790   33.5500 C.2       1 TMP500      0.0000 
     20 C5M        39.9140   14.1750   34.9860 C.3       1 TMP500      0.0000 
     21 C6         39.5590   15.1990   32.6990 C.2       1 TMP500      0.0000 
     22 H          41.8492   18.4632   31.9420 H         1 TMP500      0.0000 
     23 H          41.4102   19.9463   31.0774 H         1 TMP500      0.0000 
     24 H          40.9716   18.3774   29.4875 H         1 TMP500      0.0000 
     25 H          38.7107   19.3711   30.7143 H         1 TMP500      0.0000 
     26 H          37.3613   17.1233   30.2357 H         1 TMP500      0.0000 
     27 H          38.1501   17.4416   31.7902 H         1 TMP500      0.0000 
     28 H          39.2139   15.9203   29.4648 H         1 TMP500      0.0000 
     29 H          38.5716   11.8246   31.3083 H         1 TMP500      0.0000 
     30 H          39.8390   16.1121   33.0791 H         1 TMP500      0.0000 
     31 H          40.6990   13.5970   35.2091 H         1 TMP500      0.0000 
     32 H          40.1551   15.1100   35.2462 H         1 TMP500      0.0000 
     33 H          39.1619   13.8901   35.5802 H         1 TMP500      0.0000 
     34 H          39.5487   19.2058   28.4304 H         1 TMP500      0.0000 
@<TRIPOS>BOND
     1    2    1 ar   
     2    3    1 ar   
     3    4    1 ar   
     4    5    1 1    
     5    6    5 1    
     6    7    6 1    
     7   22    6 1    
     8   23    6 1    
     9    8    7 1    
    10    9    7 1    
    11   24    7 1    
    12   12    8 1    
    13   10    9 1    
    14   11    9 1    
    15   25    9 1    
    16   34   10 1    
    17   12   11 1    
    18   26   11 1    
    19   27   11 1    
    20   13   12 1    
    21   28   12 1    
    22   14   13 am   
    23   21   13 1    
    24   15   14 2    
    25   16   14 1    
    26   17   16 am   
    27   29   16 1    
    28   18   17 2    
    29   19   17 1    
    30   20   19 1    
    31   21   19 2    
    32   31   20 1    
    33   32   20 1    
    34   33   20 1    
    35   30   21 1    
@<TRIPOS>SUBSTRUCTURE
     1 TMP500      1 GROUP   
@<TRIPOS>SET

