#    Name: 4f9f_GDP_3_INTS_M
#    Modification time : Mon Mar 24 19:07:39 2014

@<TRIPOS>MOLECULE
4f9f_GDP_3_INTS_M
   57     0    12     0     0
SMALL
NO_CHARGES


@<TRIPOS>ATOM
      1 NZ        -53.2360  -39.6460    8.1805 N.4       3 LYC4        0.0000 
      2 NZ        -53.7330  -40.7670    8.9100 N.4      11 LYL4        0.0000 
      3 NZ        -53.0180  -37.4970    8.2350 N.4       7 LYP4        0.0000 
      4 NZ        -54.9915  -41.2840    8.1140 N.4       3 LYC4        0.0000 
      5 NZ        -56.2500  -41.8010    7.3180 N.4       7 LYP4        0.0000 
      6 N         -53.5090  -39.2290    9.2180 N.am      2 SEC2        0.0000 
      7 N         -53.7330  -40.7670    8.9100 N.am     10 SEL2        0.0000 
      8 N         -53.2850  -37.6910    9.5260 N.am      6 SEP2        0.0000 
      9 N         -53.2360  -39.6460    8.1805 N.am      2 SEC2        0.0000 
     10 N         -52.7390  -38.5250    7.4510 N.am      6 SEP2        0.0000 
     11 N         -54.9915  -41.2840    8.1140 N.am      2 SEC2        0.0000 
     12 N         -56.2500  -41.8010    7.3180 N.am      6 SEP2        0.0000 
     13 N         -53.7935  -38.8090   10.3785 N.am      2 SEC2        0.0000 
     14 N         -54.3020  -39.9270   11.2310 N.am     10 SEL2        0.0000 
     15 N         -55.2475  -45.4520   11.3830 N.am      2 SEC2        0.0000 
     16 N         -54.3530  -44.2010   11.2350 N.am     10 SEL2        0.0000 
     17 N         -56.1420  -46.7030   11.5310 N.am      6 SEP2        0.0000 
     18 N         -56.5210  -45.1765   11.4585 N.am      2 SEC2        0.0000 
     19 N         -56.9000  -43.6500   11.3860 N.am     10 SEL2        0.0000 
     20 N         -57.6280  -44.7380   12.1395 N.am      2 SEC2        0.0000 
     21 N         -58.3560  -45.8260   12.8930 N.am      6 SEP2        0.0000 
     22 N         -58.1510  -43.3510   12.1680 N.am      2 SEC2        0.0000 
     23 N         -59.4020  -43.0520   12.9500 N.am      6 SEP2        0.0000 
     24 CA        -54.6405  -40.8160   16.1125 C.3       4 GLC5        0.0000 
     25 CA        -56.0420  -41.7200   14.9680 C.3      12 GLL5        0.0000 
     26 CA        -53.2390  -39.9120   17.2570 C.3       8 GLP5        0.0000 
     27 O         -57.6935  -44.1295   16.8970 O.2       1 ALC1        0.0000 
     28 O         -56.6450  -43.6080   16.3490 O.2       9 ALL1        0.0000 
     29 O         -58.7420  -44.6510   17.4450 O.2       5 ALP1        0.0000 
     30 O         -58.1155  -43.3370   17.7520 O.2       1 ALC1        0.0000 
     31 O         -57.4890  -42.0230   18.0590 O.2       9 ALL1        0.0000 
     32 CA        -55.0270  -40.0610   16.9320 C.3       4 GLC5        0.0000 
     33 CA        -56.8150  -40.2100   16.6070 C.3      12 GLL5        0.0000 
     34 N         -60.9470  -37.4150   16.2435 N.am      2 SEC2        0.0000 
     35 N         -59.4580  -37.7680   15.9320 N.am     10 SEL2        0.0000 
     36 N         -62.4360  -37.0620   16.5550 N.am      6 SEP2        0.0000 
     37 CA        -58.2855  -35.6190   14.8010 C.3       4 GLC5        0.0000 
     38 CA        -58.5540  -36.9490   16.4980 C.3      12 GLL5        0.0000 
     39 CA        -58.0170  -34.2890   13.1040 C.3       8 GLP5        0.0000 
     40 CA        -59.0070  -36.9725   18.3440 C.3       4 GLC5        0.0000 
     41 CA        -59.4600  -36.9960   20.1900 C.3       8 GLP5        0.0000 
     42 CA        -60.5450  -37.6010   16.9190 C.3       4 GLC5        0.0000 
     43 CA        -62.5360  -38.2530   17.3400 C.3       8 GLP5        0.0000 
     44 N         -59.5860  -33.6590   17.8430 N.am      2 SEC2        0.0000 
     45 N         -59.4220  -34.7340   16.5640 N.am     10 SEL2        0.0000 
     46 N         -59.7500  -32.5840   19.1220 N.am      6 SEP2        0.0000 
     47 O         -56.8195  -33.9370   17.9585 O.2       1 ALC1        0.0000 
     48 O         -57.3600  -35.0550   17.4120 O.2       9 ALL1        0.0000 
     49 O         -56.2790  -32.8190   18.5050 O.2       5 ALP1        0.0000 
     50 O         -54.2400  -36.3165   18.2630 O.2       1 ALC1        0.0000 
     51 O         -55.2320  -35.3250   18.2980 O.2       9 ALL1        0.0000 
     52 O         -53.2480  -37.3080   18.2280 O.2       5 ALP1        0.0000 
     53 O         -55.7555  -34.0720   18.4015 O.2       1 ALC1        0.0000 
     54 CA        -57.8100  -38.4545   18.3610 C.3       4 GLC5        0.0000 
     55 CA        -57.3930  -37.7810   16.8430 C.3      12 GLL5        0.0000 
     56 CA        -58.2270  -39.1280   19.8790 C.3       8 GLP5        0.0000 
     57 CA        -57.7327  -39.9823   18.2797 C.3       4 GLC5        0.0000 
@<TRIPOS>BOND
@<TRIPOS>SUBSTRUCTURE
     1 ALC1       27 GROUP        1 X    ALC  0     ROOT ALC X 1
     2 SEC2        6 GROUP        1 X    SEC  0     **** SEC X 2
     3 LYC4        1 GROUP        1 X    LYC  0     **** LYC X 4
     4 GLC5       24 GROUP        1 X    GLC  0     **** GLC X 6
     5 ALP1       29 GROUP        1 Y    ALP  0     ROOT ALP Y 8
     6 SEP2        8 GROUP        1 Y    SEP  0     **** SEP Y 9
     7 LYP4        3 GROUP        1 Y    LYP  0     **** LYP Y 11
     8 GLP5       26 GROUP        1 Y    GLP  0     **** GLP Y 13
     9 ALL1       28 GROUP        1 Z    ALL  0     ROOT ALL Z 15
    10 SEL2        7 GROUP        1 Z    SEL  0     **** SEL Z 16
    11 LYL4        2 GROUP        1 Z    LYL  0     **** LYL Z 18
    12 GLL5       25 GROUP        1 Z    GLL  0     **** GLL Z 20
@<TRIPOS>SET

