#    Name: 4f9f_GDP_3_ligand
#    Modification time : Mon Mar 24 19:07:39 2014

@<TRIPOS>MOLECULE
4f9f_GDP_3_ligand
   40    42     1     0     0
SMALL
NO_CHARGES


@<TRIPOS>ATOM
      1 PB        -53.9390  -41.1060   10.3650 P.3       1 GDP600      0.0000 
      2 O1B       -53.7330  -40.7670    8.9100 O.co2     1 GDP600      0.0000 
      3 O2B       -52.8800  -42.0080   10.9490 O.co2     1 GDP600      0.0000 
      4 O3B       -54.3020  -39.9270   11.2310 O.co2     1 GDP600      0.0000 
      5 O3A       -55.2690  -42.0120   10.3640 O.3       1 GDP600      0.0000 
      6 PA        -55.4630  -43.1990   11.4330 P.3       1 GDP600      0.0000 
      7 O1A       -54.3530  -44.2010   11.2350 O.co2     1 GDP600      0.0000 
      8 O2A       -56.9000  -43.6500   11.3860 O.co2     1 GDP600      0.0000 
      9 O5'       -55.2200  -42.4530   12.8360 O.3       1 GDP600      0.0000 
     10 C5'       -56.2780  -41.7340   13.4640 C.3       1 GDP600      0.0000 
     11 C4'       -56.0420  -41.7200   14.9680 C.3       1 GDP600      0.0000 
     12 O4'       -56.0020  -40.3720   15.4430 O.3       1 GDP600      0.0000 
     13 C3'       -57.1570  -42.4360   15.7100 C.3       1 GDP600      0.0000 
     14 O3'       -56.6450  -43.6080   16.3490 O.3       1 GDP600      0.0000 
     15 C2'       -57.6620  -41.4630   16.7540 C.3       1 GDP600      0.0000 
     16 O2'       -57.4890  -42.0230   18.0590 O.3       1 GDP600      0.0000 
     17 C1'       -56.8150  -40.2100   16.6070 C.3       1 GDP600      0.0000 
     18 N9        -57.6920  -39.0230   16.4580 N.pl3     1 GDP600      0.0000 
     19 C8        -58.9230  -39.0150   15.9150 C.2       1 GDP600      0.0000 
     20 N7        -59.4580  -37.7680   15.9320 N.2       1 GDP600      0.0000 
     21 C5        -58.5540  -36.9490   16.4980 C.2       1 GDP600      0.0000 
     22 C6        -58.4760  -35.5070   16.8260 C.2       1 GDP600      0.0000 
     23 O6        -59.4220  -34.7340   16.5640 O.2       1 GDP600      0.0000 
     24 N1        -57.3600  -35.0550   17.4120 N.am      1 GDP600      0.0000 
     25 C2        -56.3250  -35.8630   17.7050 C.2       1 GDP600      0.0000 
     26 N2        -55.2320  -35.3250   18.2980 N.pl3     1 GDP600      0.0000 
     27 N3        -56.3270  -37.1930   17.4340 N.2       1 GDP600      0.0000 
     28 C4        -57.3930  -37.7810   16.8430 C.2       1 GDP600      0.0000 
     29 H         -57.2511  -42.1985   13.2805 H         1 GDP600      0.0000 
     30 H         -56.3248  -40.6964   13.1211 H         1 GDP600      0.0000 
     31 H         -55.1149  -42.2270   15.1789 H         1 GDP600      0.0000 
     32 H         -57.9418  -42.6471   15.0280 H         1 GDP600      0.0000 
     33 H         -58.6719  -41.2211   16.5388 H         1 GDP600      0.0000 
     34 H         -56.2116  -40.1106   17.4888 H         1 GDP600      0.0000 
     35 H         -59.3804  -39.8053   15.5519 H         1 GDP600      0.0000 
     36 H         -57.2870  -34.0259   17.6544 H         1 GDP600      0.0000 
     37 H         -55.2787  -34.3472   18.5022 H         1 GDP600      0.0000 
     38 H         -54.4754  -35.9534   18.4789 H         1 GDP600      0.0000 
     39 H         -57.2208  -43.7348   17.1567 H         1 GDP600      0.0000 
     40 H         -57.9032  -42.9317   18.0075 H         1 GDP600      0.0000 
@<TRIPOS>BOND
     1    2    1 ar   
     2    3    1 ar   
     3    4    1 ar   
     4    5    1 1    
     5    6    5 1    
     6    7    6 ar   
     7    8    6 ar   
     8    9    6 1    
     9   10    9 1    
    10   11   10 1    
    11   29   10 1    
    12   30   10 1    
    13   12   11 1    
    14   13   11 1    
    15   31   11 1    
    16   17   12 1    
    17   14   13 1    
    18   15   13 1    
    19   32   13 1    
    20   39   14 1    
    21   16   15 1    
    22   17   15 1    
    23   33   15 1    
    24   40   16 1    
    25   18   17 1    
    26   34   17 1    
    27   19   18 1    
    28   28   18 1    
    29   20   19 2    
    30   35   19 1    
    31   21   20 1    
    32   22   21 1    
    33   28   21 2    
    34   23   22 2    
    35   24   22 am   
    36   25   24 1    
    37   36   24 1    
    38   26   25 1    
    39   27   25 2    
    40   37   26 1    
    41   38   26 1    
    42   28   27 1    
@<TRIPOS>SUBSTRUCTURE
     1 GDP600      1 GROUP   
@<TRIPOS>SET

