#    Name: 1RPN_8_CAVITY_N1_ALL.mol2
#    Modification time : Tue Mar 11 06:17:28 2014

@<TRIPOS>MOLECULE
1RPN_8_CAVITY_N1_ALL.mol2
  127     0     6     0     0
SMALL
NO_CHARGES


@<TRIPOS>ATOM
      1 CA         88.5318   64.5598   34.8972 C.3       5 GLY6        0.0000 
      2 O          98.7972   72.6622   39.3941 O.2       1 ALA2        0.0000 
      3 O          98.7301   73.0019   37.9346 O.2       1 ALA2        0.0000 
      4 N         104.5305   67.1565   33.2244 N.2       1 ALA2        0.0000 
      5 N         103.5414   68.2439   33.5229 N.2       1 ALA2        0.0000 
      6 DU        105.4525   66.4087   31.4663 H         6 CUB7        0.0000 
      7 DU        104.4634   67.4961   31.7649 H         6 CUB7        0.0000 
      8 N         103.4743   68.5836   32.0634 N.2       1 ALA2        0.0000 
      9 CA        104.3963   67.8358   30.3054 C.3       5 GLY6        0.0000 
     10 CA        103.4072   68.9232   30.6039 C.3       5 GLY6        0.0000 
     11 OD1        99.7168   69.1719   40.0812 O.3       2 ASP3        0.0000 
     12 CA         98.7277   70.2593   40.3798 C.3       5 GLY6        0.0000 
     13 CA         97.7386   71.3468   40.6783 C.3       5 GLY6        0.0000 
     14 CZ        100.6388   68.4241   38.3232 C.ar      4 PHE5        0.0000 
     15 CA         99.6497   69.5115   38.6217 C.3       5 GLY6        0.0000 
     16 O          98.6606   70.5990   38.9203 O.2       1 ALA2        0.0000 
     17 CA         97.6715   71.6864   39.2188 C.3       5 GLY6        0.0000 
     18 CA         96.6824   72.7739   39.5173 C.3       5 GLY6        0.0000 
     19 O          95.2835   67.6718   38.3943 O.2       1 ALA2        0.0000 
     20 O          94.2944   68.7592   38.6928 O.2       1 ALA2        0.0000 
     21 CZ        101.1510   61.4867   35.1435 C.ar      4 PHE5        0.0000 
     22 O          94.2273   69.0989   37.2333 O.2       1 ALA2        0.0000 
     23 CA         93.2382   70.1863   37.5319 C.3       5 GLY6        0.0000 
     24 O          94.1602   69.4385   35.7738 O.2       1 ALA2        0.0000 
     25 O          93.1711   70.5260   36.0724 O.2       1 ALA2        0.0000 
     26 CA        100.4998   63.6184   40.2944 C.3       5 GLY6        0.0000 
     27 N          99.5107   64.7058   40.5930 N.2       1 ALA2        0.0000 
     28 CZ        100.4327   63.9580   38.8349 C.ar      4 PHE5        0.0000 
     29 N          99.4436   65.0455   39.1335 N.2       1 ALA2        0.0000 
     30 CZ        100.3656   64.2977   37.3754 C.ar      4 PHE5        0.0000 
     31 CZ         98.3874   66.4726   37.9725 C.ar      4 PHE5        0.0000 
     32 O          97.3983   67.5600   38.2711 O.2       1 ALA2        0.0000 
     33 O          96.4092   68.6475   38.5696 O.2       1 ALA2        0.0000 
     34 CZ        101.2876   63.5499   35.6174 C.ar      4 PHE5        0.0000 
     35 O          95.3530   70.0746   37.4086 O.2       1 ALA2        0.0000 
     36 CA         94.3639   71.1621   37.7072 C.3       5 GLY6        0.0000 
     37 CA         93.3748   72.2495   38.0057 C.3       5 GLY6        0.0000 
     38 N         102.2096   62.8021   33.8593 N.2       1 ALA2        0.0000 
     39 O          95.2859   70.4143   35.9491 O.2       1 ALA2        0.0000 
     40 O          94.2968   71.5017   36.2477 O.2       1 ALA2        0.0000 
     41 OD1        93.3077   72.5892   36.5462 O.3       2 ASP3        0.0000 
     42 O          94.2297   71.8414   34.7882 O.2       1 ALA2        0.0000 
     43 CZ         90.6466   64.4481   34.7739 C.ar      4 PHE5        0.0000 
     44 O          89.6575   65.5355   35.0725 O.2       1 ALA2        0.0000 
     45 O          88.6684   66.6230   35.3710 O.2       1 ALA2        0.0000 
     46 N          90.5795   64.7877   33.3144 N.2       1 ALA2        0.0000 
     47 CA         89.5904   65.8752   33.6130 C.3       5 GLY6        0.0000 
     48 O          88.6013   66.9626   33.9115 O.2       1 ALA2        0.0000 
     49 N         103.5390   65.5014   35.9680 N.2       1 ALA2        0.0000 
     50 CZ        102.5499   66.5889   36.2666 C.ar      4 PHE5        0.0000 
     51 CZ        101.5608   67.6763   36.5651 C.ar      4 PHE5        0.0000 
     52 N         100.5717   68.7638   36.8637 N.2       1 ALA2        0.0000 
     53 N          98.5935   70.9387   37.4608 N.2       1 ALA2        0.0000 
     54 N          97.6044   72.0261   37.7593 N.2       1 ALA2        0.0000 
     55 N          96.6153   73.1136   38.0579 N.2       1 ALA2        0.0000 
     56 N         103.4719   65.8411   34.5085 N.2       1 ALA2        0.0000 
     57 N         102.4828   66.9285   34.8071 N.2       1 ALA2        0.0000 
     58 N         101.4937   68.0160   35.1056 N.2       1 ALA2        0.0000 
     59 N          98.5264   71.2783   36.0013 N.2       1 ALA2        0.0000 
     60 NZ         97.5373   72.3658   36.2998 N.2       3 LYS4        0.0000 
     61 N          96.5482   73.4532   36.5984 N.2       1 ALA2        0.0000 
     62 N         104.3939   65.0933   32.7505 N.2       1 ALA2        0.0000 
     63 N         103.4048   66.1807   33.0491 N.2       1 ALA2        0.0000 
     64 N         102.4157   67.2682   33.3476 N.2       1 ALA2        0.0000 
     65 N         101.4266   68.3556   33.6461 N.2       1 ALA2        0.0000 
     66 N         104.3268   65.4329   31.2910 N.2       1 ALA2        0.0000 
     67 N         103.3377   66.5204   31.5896 N.2       1 ALA2        0.0000 
     68 N         102.3486   67.6078   31.8881 N.2       1 ALA2        0.0000 
     69 N         101.3595   68.6953   32.1866 N.2       1 ALA2        0.0000 
     70 O         104.2597   65.7726   29.8315 O.2       1 ALA2        0.0000 
     71 CA        103.2706   66.8600   30.1301 C.3       5 GLY6        0.0000 
     72 CA        102.2815   67.9475   30.4286 C.3       5 GLY6        0.0000 
     73 CA        104.1926   66.1122   28.3720 C.3       5 GLY6        0.0000 
     74 CA        103.2035   67.1997   28.6706 C.3       5 GLY6        0.0000 
     75 OD1       100.6364   65.6816   40.7683 O.3       2 ASP3        0.0000 
     76 CZ        101.5584   64.9338   39.0102 C.ar      4 PHE5        0.0000 
     77 CZ        100.5693   66.0212   39.3088 C.ar      4 PHE5        0.0000 
     78 OD1        99.5802   67.1087   39.6073 O.3       2 ASP3        0.0000 
     79 CA         98.5911   68.1961   39.9059 C.3       5 GLY6        0.0000 
     80 CA         97.6020   69.2836   40.2044 C.3       5 GLY6        0.0000 
     81 CZ        101.4913   65.2734   37.5508 C.ar      4 PHE5        0.0000 
     82 CZ        100.5022   66.3609   37.8493 C.ar      4 PHE5        0.0000 
     83 CZ         99.5131   67.4483   38.1478 C.ar      4 PHE5        0.0000 
     84 O          98.5240   68.5358   38.4464 O.2       1 ALA2        0.0000 
     85 O          97.5349   69.6232   38.7449 O.2       1 ALA2        0.0000 
     86 CA         96.5458   70.7107   39.0435 C.3       5 GLY6        0.0000 
     87 CA         95.5567   71.7981   39.3420 C.3       5 GLY6        0.0000 
     88 DU        102.4133   64.5257   35.7927 H         6 CUB7        0.0000 
     89 CZ        101.4242   65.6131   36.0913 C.ar      4 PHE5        0.0000 
     90 CZ        100.4351   66.7006   36.3898 C.ar      4 PHE5        0.0000 
     91 O          99.4460   67.7880   36.6883 O.2       1 ALA2        0.0000 
     92 O          98.4569   68.8755   36.9869 O.2       1 ALA2        0.0000 
     93 O          97.4678   69.9629   37.2854 O.2       1 ALA2        0.0000 
     94 O          96.4787   71.0504   37.5840 O.2       1 ALA2        0.0000 
     95 CA         95.4896   72.1378   37.8825 C.3       5 GLY6        0.0000 
     96 N         103.3353   63.7779   34.0347 N.2       1 ALA2        0.0000 
     97 N         102.3462   64.8653   34.3332 N.2       1 ALA2        0.0000 
     98 N         101.3571   65.9528   34.6318 N.2       1 ALA2        0.0000 
     99 O         100.3680   67.0402   34.9303 O.2       1 ALA2        0.0000 
    100 OD1        96.4116   71.3900   36.1245 O.3       2 ASP3        0.0000 
    101 NZ         95.4225   72.4775   36.4230 N.2       3 LYS4        0.0000 
    102 CA         94.4334   73.5649   36.7216 C.3       5 GLY6        0.0000 
    103 N         103.2682   64.1175   32.5752 N.2       1 ALA2        0.0000 
    104 O         100.3009   67.3799   33.4708 O.2       1 ALA2        0.0000 
    105 O          96.3445   71.7297   34.6650 O.2       1 ALA2        0.0000 
    106 NZ         95.3554   72.8171   34.9635 N.2       3 LYS4        0.0000 
    107 N         101.2229   66.6321   31.7128 N.2       1 ALA2        0.0000 
    108 CZ        102.1449   65.8843   29.9547 C.ar      4 PHE5        0.0000 
    109 O          93.1687   67.7835   38.5175 O.2       1 ALA2        0.0000 
    110 O          94.0907   67.0357   36.7594 O.2       1 ALA2        0.0000 
    111 O          93.1016   68.1231   37.0580 O.2       1 ALA2        0.0000 
    112 O          92.1125   69.2106   37.3565 O.2       1 ALA2        0.0000 
    113 O          94.0236   67.3753   35.2999 O.2       1 ALA2        0.0000 
    114 O          93.0345   68.4628   35.5985 O.2       1 ALA2        0.0000 
    115 O          92.0454   69.5502   35.8970 O.2       1 ALA2        0.0000 
    116 O          92.9674   68.8024   34.1390 O.2       1 ALA2        0.0000 
    117 O          91.9783   69.8899   34.4375 O.2       1 ALA2        0.0000 
    118 CZ         91.9759   67.1474   36.8826 C.ar      4 PHE5        0.0000 
    119 CZ         92.8979   66.3996   35.1246 C.ar      4 PHE5        0.0000 
    120 O          91.9088   67.4870   35.4232 O.2       1 ALA2        0.0000 
    121 CA         91.8417   67.8267   33.9637 C.3       5 GLY6        0.0000 
    122 NZ         90.8526   68.9141   34.2622 N.2       3 LYS4        0.0000 
    123 CZ         91.7723   65.4238   34.9493 C.ar      4 PHE5        0.0000 
    124 O          90.7832   66.5113   35.2478 O.2       1 ALA2        0.0000 
    125 CA         91.7052   65.7635   33.4898 C.3       5 GLY6        0.0000 
    126 CA         90.7161   66.8509   33.7883 C.3       5 GLY6        0.0000 
    127 O          89.7270   67.9384   34.0869 O.2       1 ALA2        0.0000 
@<TRIPOS>BOND
@<TRIPOS>SUBSTRUCTURE
     1 ALA2        2 GROUP   
     2 ASP3       11 GROUP   
     3 LYS4       60 GROUP   
     4 PHE5       14 GROUP   
     5 GLY6        1 GROUP   
     6 CUB7        6 GROUP   
@<TRIPOS>SET

