#    Name: 1rpn_GDP_8_INTS_M
#    Modification time : Tue Mar 25 01:05:22 2014

@<TRIPOS>MOLECULE
1rpn_GDP_8_INTS_M
   68     0    12     0     0
SMALL
NO_CHARGES


@<TRIPOS>ATOM
      1 NZ         94.3720   69.1380   33.8760 N.4       3 LYC4        0.0000 
      2 NZ         92.9990   68.9720   34.2270 N.4      11 LYL4        0.0000 
      3 NZ         96.7480   68.7890   34.2270 N.4       7 LYP4        0.0000 
      4 N          94.3720   69.1380   33.8760 N.am      2 SEC2        0.0000 
      5 N          92.9990   68.9720   34.2270 N.am     10 SEL2        0.0000 
      6 N          95.7450   69.3040   33.5250 N.am      6 SEP2        0.0000 
      7 N          92.9225   69.7200   33.1910 N.am      2 SEC2        0.0000 
      8 N          92.8460   70.4680   32.1550 N.am      6 SEP2        0.0000 
      9 NZ         90.4470   70.9830   34.8995 N.4       3 LYC4        0.0000 
     10 NZ         90.6090   69.6870   34.8950 N.4      11 LYL4        0.0000 
     11 NZ         91.0680   73.1640   34.2930 N.4       7 LYP4        0.0000 
     12 N          89.7170   69.3970   35.7990 N.am      2 SEC2        0.0000 
     13 N          90.6090   69.6870   34.8950 N.am     10 SEL2        0.0000 
     14 N          88.8250   69.1070   36.7030 N.am      6 SEP2        0.0000 
     15 N          90.4470   70.9830   34.8995 N.am      2 SEC2        0.0000 
     16 N          90.2850   72.2790   34.9040 N.am      6 SEP2        0.0000 
     17 N          90.3980   68.6295   36.4795 N.am      2 SEC2        0.0000 
     18 N          91.9710   68.1520   36.2560 N.am     10 SEL2        0.0000 
     19 N          93.5875   67.8260   39.8010 N.am      2 SEC2        0.0000 
     20 N          92.8280   68.1410   38.6430 N.am     10 SEL2        0.0000 
     21 N          94.3470   67.5110   40.9590 N.am      6 SEP2        0.0000 
     22 NZ         95.4010   67.7470   36.0575 N.4       3 LYC4        0.0000 
     23 NZ         94.3000   67.2950   36.7260 N.4      11 LYL4        0.0000 
     24 N          95.4010   67.7470   36.0575 N.am      2 SEC2        0.0000 
     25 N          94.3000   67.2950   36.7260 N.am     10 SEL2        0.0000 
     26 N          96.5020   68.1990   35.3890 N.am      6 SEP2        0.0000 
     27 N          95.1730   68.9445   36.1825 N.am      2 SEC2        0.0000 
     28 N          93.8440   69.6900   36.9760 N.am     10 SEL2        0.0000 
     29 CA         93.7865   73.3370   38.5340 C.3       4 GLC5        0.0000 
     30 CA         93.8190   72.0690   36.9870 C.3      12 GLL5        0.0000 
     31 CA         93.7540   74.6050   40.0810 C.3       8 GLP5        0.0000 
     32 O          95.0075   73.6040   33.7450 O.2       1 ALC1        0.0000 
     33 O          94.5720   73.5240   35.0530 O.2       9 ALL1        0.0000 
     34 O          95.4430   73.6840   32.4370 O.2       5 ALP1        0.0000 
     35 CA         97.1880   71.3375   34.3250 C.3       4 GLC5        0.0000 
     36 CA         95.9750   71.7020   36.1260 C.3      12 GLL5        0.0000 
     37 CA         98.4010   70.9730   32.5240 C.3       8 GLP5        0.0000 
     38 O          96.9405   73.3670   34.5255 O.2       1 ALC1        0.0000 
     39 O          96.9930   72.1280   35.2370 O.2       9 ALL1        0.0000 
     40 O          96.8880   74.6060   33.8140 O.2       5 ALP1        0.0000 
     41 CA         95.7345   71.6875   39.6295 C.3       4 GLC5        0.0000 
     42 CA         96.0930   72.3450   37.5110 C.3      12 GLL5        0.0000 
     43 CA         95.3760   71.0300   41.7480 C.3       8 GLP5        0.0000 
     44 CA         95.0330   74.2045   36.8980 C.3       4 GLC5        0.0000 
     45 CA         93.9730   76.0640   36.2850 C.3       8 GLP5        0.0000 
     46 CA         94.9235   73.4750   38.7960 C.3       4 GLC5        0.0000 
     47 N         100.0555   72.5200   39.9895 N.am      2 SEC2        0.0000 
     48 N          98.8050   71.8640   39.8780 N.am     10 SEL2        0.0000 
     49 N         101.3060   73.1760   40.1010 N.am      6 SEP2        0.0000 
     50 CA         98.7150   70.8325   41.5760 C.3       4 GLC5        0.0000 
     51 CA         98.4380   70.5500   39.6100 C.3      12 GLL5        0.0000 
     52 CA         98.9920   71.1150   43.5420 C.3       8 GLP5        0.0000 
     53 CA        100.5745   70.4605   39.0335 C.3       4 GLC5        0.0000 
     54 CA        102.7110   70.3710   38.4570 C.3       8 GLP5        0.0000 
     55 N         100.8200   68.5585   41.5230 N.am      2 SEC2        0.0000 
     56 N         100.0340   69.1510   40.7510 N.am     10 SEL2        0.0000 
     57 N         101.6060   67.9660   42.2950 N.am      6 SEP2        0.0000 
     58 O          96.7260   66.0035   39.0795 O.2       1 ALC1        0.0000 
     59 O          96.6600   67.1210   38.3420 O.2       9 ALL1        0.0000 
     60 O          96.7920   64.8860   39.8170 O.2       5 ALP1        0.0000 
     61 CA         93.2428   70.9115   39.0280 C.3       4 GLC5        0.0000 
     62 CA         93.0660   70.3750   40.9700 C.3       8 GLP5        0.0000 
     63 CA         91.5412   72.2675   37.1215 C.3       4 GLC5        0.0000 
     64 CA         93.0200   70.8270   37.1850 C.3      12 GLL5        0.0000 
     65 CA         89.6630   73.0870   37.1570 C.3       8 GLP5        0.0000 
     66 CA         94.0968   74.1162   36.3170 C.3       4 GLC5        0.0000 
     67 CA         96.6315   70.7802   40.4708 C.3       4 GLC5        0.0000 
     68 CA         97.3360   70.5110   38.7770 C.3      12 GLL5        0.0000 
@<TRIPOS>BOND
@<TRIPOS>SUBSTRUCTURE
     1 ALC1       32 GROUP        1 X    ALC  0     ROOT ALC X 1
     2 SEC2        4 GROUP        1 X    SEC  0     **** SEC X 2
     3 LYC4        1 GROUP        1 X    LYC  0     **** LYC X 4
     4 GLC5       29 GROUP        1 X    GLC  0     **** GLC X 6
     5 ALP1       34 GROUP        1 Y    ALP  0     ROOT ALP Y 8
     6 SEP2        6 GROUP        1 Y    SEP  0     **** SEP Y 9
     7 LYP4        3 GROUP        1 Y    LYP  0     **** LYP Y 11
     8 GLP5       31 GROUP        1 Y    GLP  0     **** GLP Y 13
     9 ALL1       33 GROUP        1 Z    ALL  0     ROOT ALL Z 15
    10 SEL2        5 GROUP        1 Z    SEL  0     **** SEL Z 16
    11 LYL4        2 GROUP        1 Z    LYL  0     **** LYL Z 18
    12 GLL5       30 GROUP        1 Z    GLL  0     **** GLL Z 20
@<TRIPOS>SET

