#    Name: 1rpn_GDP_8_ligand
#    Modification time : Tue Mar 25 01:05:22 2014

@<TRIPOS>MOLECULE
1rpn_GDP_8_ligand
   40    42     1     0     0
SMALL
NO_CHARGES


@<TRIPOS>ATOM
      1 PB         91.6250   68.5680   34.7180 P.3       1 GDP1604     0.0000 
      2 O1B        92.9990   68.9720   34.2270 O.co2     1 GDP1604     0.0000 
      3 O2B        90.6090   69.6870   34.8950 O.co2     1 GDP1604     0.0000 
      4 O3B        91.0880   67.2310   34.2170 O.co2     1 GDP1604     0.0000 
      5 O3A        91.9710   68.1520   36.2560 O.3       1 GDP1604     0.0000 
      6 PA         93.2720   68.2350   37.2280 P.3       1 GDP1604     0.0000 
      7 O1A        92.8280   68.1410   38.6430 O.co2     1 GDP1604     0.0000 
      8 O2A        94.3000   67.2950   36.7260 O.co2     1 GDP1604     0.0000 
      9 O5'        93.8440   69.6900   36.9760 O.3       1 GDP1604     0.0000 
     10 C5'        93.0200   70.8270   37.1850 C.3       1 GDP1604     0.0000 
     11 C4'        93.8190   72.0690   36.9870 C.3       1 GDP1604     0.0000 
     12 O4'        94.7760   72.3420   38.0570 O.3       1 GDP1604     0.0000 
     13 C3'        94.6220   72.2680   35.7110 C.3       1 GDP1604     0.0000 
     14 O3'        94.5720   73.5240   35.0530 O.3       1 GDP1604     0.0000 
     15 C2'        95.9750   71.7020   36.1260 C.3       1 GDP1604     0.0000 
     16 O2'        96.9930   72.1280   35.2370 O.3       1 GDP1604     0.0000 
     17 C1'        96.0930   72.3450   37.5110 C.3       1 GDP1604     0.0000 
     18 N9         97.0270   71.8300   38.5150 N.pl3     1 GDP1604     0.0000 
     19 C8         97.9430   72.5850   39.2200 C.2       1 GDP1604     0.0000 
     20 N7         98.8050   71.8640   39.8780 N.2       1 GDP1604     0.0000 
     21 C5         98.4380   70.5500   39.6100 C.2       1 GDP1604     0.0000 
     22 C6         99.0200   69.3320   40.0380 C.2       1 GDP1604     0.0000 
     23 O6        100.0340   69.1510   40.7510 O.2       1 GDP1604     0.0000 
     24 N1         98.3210   68.2390   39.5380 N.am      1 GDP1604     0.0000 
     25 C2         97.2140   68.3010   38.7200 C.2       1 GDP1604     0.0000 
     26 N2         96.6600   67.1210   38.3420 N.pl3     1 GDP1604     0.0000 
     27 N3         96.6800   69.4290   38.3000 N.2       1 GDP1604     0.0000 
     28 C4         97.3360   70.5110   38.7770 C.2       1 GDP1604     0.0000 
     29 H          92.6023   70.8382   38.2033 H         1 GDP1604     0.0000 
     30 H          92.1711   70.8416   36.4846 H         1 GDP1604     0.0000 
     31 H          93.0986   72.9575   37.0119 H         1 GDP1604     0.0000 
     32 H          94.2067   71.4411   35.0215 H         1 GDP1604     0.0000 
     33 H          95.8728   70.6688   36.2487 H         1 GDP1604     0.0000 
     34 H          96.3393   73.4333   37.3205 H         1 GDP1604     0.0000 
     35 H          97.9128   73.5847   39.2006 H         1 GDP1604     0.0000 
     36 H          98.6771   67.2688   39.8150 H         1 GDP1604     0.0000 
     37 H          96.7753   66.3573   38.9772 H         1 GDP1604     0.0000 
     38 H          96.1854   67.1196   37.4618 H         1 GDP1604     0.0000 
     39 H          94.8863   73.3407   34.1215 H         1 GDP1604     0.0000 
     40 H          96.6154   72.9319   34.7775 H         1 GDP1604     0.0000 
@<TRIPOS>BOND
     1    2    1 ar   
     2    3    1 ar   
     3    4    1 ar   
     4    5    1 1    
     5    6    5 1    
     6    7    6 ar   
     7    8    6 ar   
     8    9    6 1    
     9   10    9 1    
    10   11   10 1    
    11   29   10 1    
    12   30   10 1    
    13   12   11 1    
    14   13   11 1    
    15   31   11 1    
    16   17   12 1    
    17   14   13 1    
    18   15   13 1    
    19   32   13 1    
    20   39   14 1    
    21   16   15 1    
    22   17   15 1    
    23   33   15 1    
    24   40   16 1    
    25   18   17 1    
    26   34   17 1    
    27   19   18 1    
    28   28   18 1    
    29   20   19 2    
    30   35   19 1    
    31   21   20 1    
    32   22   21 1    
    33   28   21 2    
    34   23   22 2    
    35   24   22 am   
    36   25   24 1    
    37   36   24 1    
    38   26   25 1    
    39   27   25 2    
    40   37   26 1    
    41   38   26 1    
    42   28   27 1    
@<TRIPOS>SUBSTRUCTURE
     1 GDP1604     1 GROUP   
@<TRIPOS>SET

