#    Name: 4idv_13V_4_INTS_M
#    Modification time : Tue Mar 25 03:53:05 2014

@<TRIPOS>MOLECULE
4idv_13V_4_INTS_M
   95     0     9     0     0
SMALL
NO_CHARGES


@<TRIPOS>ATOM
      1 O         -14.1355  -28.2330   45.5380 O.2       1 ALC1        0.0000 
      2 O         -13.0850  -27.2710   45.1400 O.2       7 ALL1        0.0000 
      3 O         -15.1860  -29.1950   45.9360 O.2       4 ALP1        0.0000 
      4 CA        -13.7625  -27.3300   43.1200 C.3       3 GLC5        0.0000 
      5 CA        -13.4810  -26.0650   44.6760 C.3       9 GLL5        0.0000 
      6 CA        -14.0440  -28.5950   41.5640 C.3       6 GLP5        0.0000 
      7 CA        -12.9745  -25.3500   46.1180 C.3       3 GLC5        0.0000 
      8 CA        -12.4680  -24.6350   47.5600 C.3       6 GLP5        0.0000 
      9 N         -16.1200  -26.2635   45.2040 N.am      2 SEC2        0.0000 
     10 N         -14.7680  -25.8610   44.5370 N.am      8 SEL2        0.0000 
     11 N         -17.4720  -26.6660   45.8710 N.am      5 SEP2        0.0000 
     12 CA        -16.3465  -25.4630   43.0795 C.3       3 GLC5        0.0000 
     13 CA        -15.0870  -24.6350   44.0660 C.3       9 GLL5        0.0000 
     14 CA        -17.6060  -26.2910   42.0930 C.3       6 GLP5        0.0000 
     15 CA        -16.5855  -25.2480   45.4920 C.3       3 GLC5        0.0000 
     16 CA        -18.0840  -25.8610   46.9180 C.3       6 GLP5        0.0000 
     17 CA        -14.1395  -21.2285   40.6255 C.3       3 GLC5        0.0000 
     18 CA        -14.3370  -21.3900   42.2670 C.3       9 GLL5        0.0000 
     19 CA        -13.9420  -21.0670   38.9840 C.3       6 GLP5        0.0000 
     20 CA        -13.3580  -20.3850   41.1520 C.3       3 GLC5        0.0000 
     21 CA        -14.2080  -19.9610   42.8750 C.3       9 GLL5        0.0000 
     22 CA        -12.5080  -20.8090   39.4290 C.3       6 GLP5        0.0000 
     23 CA        -15.6710  -19.8225   44.2005 C.3       3 GLC5        0.0000 
     24 CA        -17.1340  -19.6840   45.5260 C.3       6 GLP5        0.0000 
     25 CA        -13.3875  -18.9530   44.4455 C.3       3 GLC5        0.0000 
     26 CA        -12.5670  -17.9450   46.0160 C.3       6 GLP5        0.0000 
     27 CA        -12.6820  -19.3985   40.8230 C.3       3 GLC5        0.0000 
     28 CA        -12.8560  -17.9880   42.2170 C.3       9 GLL5        0.0000 
     29 CA        -12.7115  -17.9665   44.1165 C.3       3 GLC5        0.0000 
     30 CA        -12.6120  -24.2880   45.7450 C.3       3 GLC5        0.0000 
     31 CA        -12.7560  -23.9410   43.9300 C.3       9 GLL5        0.0000 
     32 CA        -11.9210  -21.3355   41.3210 C.3       3 GLC5        0.0000 
     33 CA        -11.3340  -21.8620   43.2130 C.3       9 GLL5        0.0000 
     34 CA        -10.1710  -23.1075   41.7915 C.3       3 GLC5        0.0000 
     35 CA         -9.0080  -24.3530   40.3700 C.3       6 GLP5        0.0000 
     36 CA        -11.0070  -24.6910   45.9715 C.3       3 GLC5        0.0000 
     37 CA         -9.5460  -24.7470   44.3830 C.3       9 GLL5        0.0000 
     38 CA         -6.2740  -30.9805   44.1945 C.3       3 GLC5        0.0000 
     39 CA         -6.1540  -29.4380   44.9210 C.3       9 GLL5        0.0000 
     40 CA         -6.3940  -32.5230   43.4680 C.3       6 GLP5        0.0000 
     41 CA         -6.6410  -30.4885   48.3115 C.3       3 GLC5        0.0000 
     42 CA         -7.1380  -28.8940   47.1100 C.3       9 GLL5        0.0000 
     43 CA         -6.1440  -32.0830   49.5130 C.3       6 GLP5        0.0000 
     44 CA         -8.4970  -28.6290   48.3790 C.3       3 GLC5        0.0000 
     45 CA         -9.8560  -28.3640   49.6480 C.3       6 GLP5        0.0000 
     46 N          -4.2370  -27.1335   47.2445 N.am      2 SEC2        0.0000 
     47 N          -5.0780  -28.0330   46.3730 N.am      8 SEL2        0.0000 
     48 N          -3.3960  -26.2340   48.1160 N.am      5 SEP2        0.0000 
     49 O          -4.0230  -27.9530   45.3240 O.2       1 ALC1        0.0000 
     50 O          -5.0780  -28.0330   46.3730 O.2       7 ALL1        0.0000 
     51 O          -2.9680  -27.8730   44.2750 O.2       4 ALP1        0.0000 
     52 CA        -13.8585  -23.6960   45.7703 C.3       3 GLC5        0.0000 
     53 CA        -14.1550  -23.6270   43.7070 C.3       9 GLL5        0.0000 
     54 CA        -13.0960  -23.2610   47.6540 C.3       6 GLP5        0.0000 
     55 CA        -11.6725  -24.4590   42.0580 C.3       3 GLC5        0.0000 
     56 CA        -11.2310  -25.3800   40.3080 C.3       6 GLP5        0.0000 
     57 CA         -9.3613  -23.7123   42.0618 C.3       3 GLC5        0.0000 
     58 CA        -10.1560  -23.5820   43.9220 C.3       9 GLL5        0.0000 
     59 CA        -11.4537  -22.5951   45.4824 C.3       3 GLC5        0.0000 
     60 CA        -12.1280  -22.1500   47.2790 C.3       6 GLP5        0.0000 
     61 CA         -9.3673  -23.1188   45.6753 C.3       3 GLC5        0.0000 
     62 CA         -9.0200  -23.1660   47.5970 C.3       6 GLP5        0.0000 
     63 CA         -8.5237  -21.1762   42.0330 C.3       3 GLC5        0.0000 
     64 CA         -9.2730  -22.5610   43.5850 C.3       9 GLL5        0.0000 
     65 CA         -8.4620  -19.7400   40.4380 C.3       6 GLP5        0.0000 
     66 CA         -8.3145  -23.8020   42.1340 C.3       3 GLC5        0.0000 
     67 CA         -7.8980  -22.6640   43.6710 C.3       9 GLL5        0.0000 
     68 CA         -8.3205  -23.2085   45.7475 C.3       3 GLC5        0.0000 
     69 CA         -6.2225  -23.2215   45.2440 C.3       3 GLC5        0.0000 
     70 CA         -7.3440  -23.8380   44.1250 C.3       9 GLL5        0.0000 
     71 CA         -4.8240  -23.1920   46.5900 C.3       6 GLP5        0.0000 
     72 CA         -6.5455  -25.4772   43.1532 C.3       3 GLC5        0.0000 
     73 CA         -5.3440  -26.5870   42.0060 C.3       6 GLP5        0.0000 
     74 CA         -8.9280  -24.5875   42.3997 C.3       3 GLC5        0.0000 
     75 CA         -8.1500  -24.8970   44.4760 C.3       9 GLL5        0.0000 
     76 CA         -9.2020  -26.6525   43.8858 C.3       3 GLC5        0.0000 
     77 CA         -9.5560  -28.4830   43.3420 C.3       6 GLP5        0.0000 
     78 CA         -8.9340  -23.9940   46.0132 C.3       3 GLC5        0.0000 
     79 CA         -6.3970  -25.0585   45.9232 C.3       3 GLC5        0.0000 
     80 CA         -4.9520  -24.6230   47.1340 C.3       6 GLP5        0.0000 
     81 CA         -6.3125  -26.5983   43.5900 C.3       3 GLC5        0.0000 
     82 CA         -7.5340  -26.0910   44.9490 C.3       9 GLL5        0.0000 
     83 CA         -8.4185  -27.5463   44.2580 C.3       3 GLC5        0.0000 
     84 CA         -8.1810  -25.6947   46.8045 C.3       3 GLC5        0.0000 
     85 CA         -9.0810  -24.7800   48.4350 C.3       6 GLP5        0.0000 
     86 CA         -5.8197  -26.1868   46.4017 C.3       3 GLC5        0.0000 
     87 CA         -7.0280  -27.1280   45.3990 C.3       9 GLL5        0.0000 
     88 CA         -5.7973  -27.7462   43.7182 C.3       3 GLC5        0.0000 
     89 CA         -6.3470  -28.3730   45.9400 C.3       9 GLL5        0.0000 
     90 CA         -4.1158  -29.1313   45.6402 C.3       3 GLC5        0.0000 
     91 CA         -1.9810  -29.3570   45.8500 C.3       6 GLP5        0.0000 
     92 CA         -5.9207  -28.4793   48.2845 C.3       3 GLC5        0.0000 
     93 CA         -5.0990  -28.3250   50.0440 C.3       6 GLP5        0.0000 
     94 CA         -8.3111  -29.0339   45.6096 C.3       3 GLC5        0.0000 
     95 CA         -9.9280  -29.1680   44.9490 C.3       6 GLP5        0.0000 
@<TRIPOS>BOND
@<TRIPOS>SUBSTRUCTURE
     1 ALC1        1 GROUP        1 X    ALC  0     ROOT ALC X 1
     2 SEC2        9 GROUP        1 X    SEC  0     **** SEC X 2
     3 GLC5        4 GROUP        1 X    GLC  0     **** GLC X 6
     4 ALP1        3 GROUP        1 Y    ALP  0     ROOT ALP Y 8
     5 SEP2       11 GROUP        1 Y    SEP  0     **** SEP Y 9
     6 GLP5        6 GROUP        1 Y    GLP  0     **** GLP Y 13
     7 ALL1        2 GROUP        1 Z    ALL  0     ROOT ALL Z 15
     8 SEL2       10 GROUP        1 Z    SEL  0     **** SEL Z 16
     9 GLL5        5 GROUP        1 Z    GLL  0     **** GLL Z 20
@<TRIPOS>SET

