#    Name: 4idv_13V_4_ligand
#    Modification time : Tue Mar 25 03:53:05 2014

@<TRIPOS>MOLECULE
4idv_13V_4_ligand
   49    51     1     0     0
SMALL
NO_CHARGES


@<TRIPOS>ATOM
      1 N3        -13.0850  -27.2710   45.1400 N.pl3     1 13V701      0.0000 
      2 C15       -13.4810  -26.0650   44.6760 C.ar      1 13V701      0.0000 
      3 N2        -12.5180  -25.2020   44.3960 N.ar      1 13V701      0.0000 
      4 N4        -14.7680  -25.8610   44.5370 N.ar      1 13V701      0.0000 
      5 C16       -15.0870  -24.6350   44.0660 C.ar      1 13V701      0.0000 
      6 C17       -14.1550  -23.6270   43.7070 C.ar      1 13V701      0.0000 
      7 O2        -14.5920  -22.3360   43.2870 O.3       1 13V701      0.0000 
      8 C18       -14.3370  -21.3900   42.2670 C.3       1 13V701      0.0000 
      9 C19       -14.2080  -19.9610   42.8750 C.3       1 13V701      0.0000 
     10 O3        -13.8510  -18.9400   41.9500 O.3       1 13V701      0.0000 
     11 C20       -12.8560  -17.9880   42.2170 C.3       1 13V701      0.0000 
     12 C14       -12.7560  -23.9410   43.9300 C.ar      1 13V701      0.0000 
     13 C11       -11.4720  -23.1350   43.6860 C.2       1 13V701      0.0000 
     14 C10       -11.3340  -21.8620   43.2130 C.2       1 13V701      0.0000 
     15 N1        -10.0460  -21.5460   43.1680 N.pl3     1 13V701      0.0000 
     16 C12       -10.1560  -23.5820   43.9220 C.ar      1 13V701      0.0000 
     17 C9         -9.2730  -22.5610   43.5850 C.ar      1 13V701      0.0000 
     18 C8         -7.8980  -22.6640   43.6710 C.ar      1 13V701      0.0000 
     19 C7         -7.3440  -23.8380   44.1250 C.ar      1 13V701      0.0000 
     20 C13        -9.5460  -24.7470   44.3830 C.ar      1 13V701      0.0000 
     21 C6         -8.1500  -24.8970   44.4760 C.ar      1 13V701      0.0000 
     22 C5         -7.5340  -26.0910   44.9490 C.1       1 13V701      0.0000 
     23 C4         -7.0280  -27.1280   45.3990 C.1       1 13V701      0.0000 
     24 C1         -6.3470  -28.3730   45.9400 C.3       1 13V701      0.0000 
     25 C3         -6.1540  -29.4380   44.9210 C.3       1 13V701      0.0000 
     26 C2         -7.1380  -28.8940   47.1100 C.3       1 13V701      0.0000 
     27 O1         -5.0780  -28.0330   46.3730 O.3       1 13V701      0.0000 
     28 H         -12.1969  -27.5972   44.8161 H         1 13V701      0.0000 
     29 H         -13.7153  -27.7302   45.7660 H         1 13V701      0.0000 
     30 H         -16.1164  -24.3786   43.9447 H         1 13V701      0.0000 
     31 H         -15.1431  -21.3457   41.5236 H         1 13V701      0.0000 
     32 H         -13.4006  -21.5914   41.7314 H         1 13V701      0.0000 
     33 H         -13.4683  -20.0393   43.7084 H         1 13V701      0.0000 
     34 H         -15.1830  -19.7424   43.3744 H         1 13V701      0.0000 
     35 H         -12.0792  -21.2916   42.9545 H         1 13V701      0.0000 
     36 H          -9.6903  -20.6711   42.8652 H         1 13V701      0.0000 
     37 H          -7.3017  -21.8750   43.3996 H         1 13V701      0.0000 
     38 H          -6.3152  -23.9262   44.2034 H         1 13V701      0.0000 
     39 H         -10.1493  -25.5509   44.6750 H         1 13V701      0.0000 
     40 H         -11.9675  -18.4159   42.3827 H         1 13V701      0.0000 
     41 H         -12.7372  -17.3513   41.4551 H         1 13V701      0.0000 
     42 H         -13.0730  -17.4406   43.0253 H         1 13V701      0.0000 
     43 H          -5.5860  -29.1251   44.1598 H         1 13V701      0.0000 
     44 H          -5.7077  -30.2452   45.3073 H         1 13V701      0.0000 
     45 H          -7.0237  -29.7419   44.5321 H         1 13V701      0.0000 
     46 H          -6.7243  -29.7159   47.5015 H         1 13V701      0.0000 
     47 H          -7.2017  -28.2192   47.8453 H         1 13V701      0.0000 
     48 H          -8.0735  -29.1325   46.8492 H         1 13V701      0.0000 
     49 H          -4.5088  -28.0583   45.5512 H         1 13V701      0.0000 
@<TRIPOS>BOND
     1    2    1 1    
     2   28    1 1    
     3   29    1 1    
     4    3    2 ar   
     5    4    2 ar   
     6   12    3 ar   
     7    5    4 ar   
     8    6    5 ar   
     9   30    5 1    
    10    7    6 1    
    11   12    6 ar   
    12    8    7 1    
    13    9    8 1    
    14   31    8 1    
    15   32    8 1    
    16   10    9 1    
    17   33    9 1    
    18   34    9 1    
    19   11   10 1    
    20   40   11 1    
    21   41   11 1    
    22   42   11 1    
    23   13   12 1    
    24   14   13 2    
    25   16   13 1    
    26   15   14 1    
    27   35   14 1    
    28   17   15 1    
    29   36   15 1    
    30   17   16 ar   
    31   20   16 ar   
    32   18   17 ar   
    33   19   18 ar   
    34   37   18 1    
    35   21   19 ar   
    36   38   19 1    
    37   21   20 ar   
    38   39   20 1    
    39   22   21 1    
    40   23   22 3    
    41   24   23 1    
    42   25   24 1    
    43   26   24 1    
    44   27   24 1    
    45   43   25 1    
    46   44   25 1    
    47   45   25 1    
    48   46   26 1    
    49   47   26 1    
    50   48   26 1    
    51   49   27 1    
@<TRIPOS>SUBSTRUCTURE
     1 13V701      1 GROUP   
@<TRIPOS>SET

