#    Name: 3a73_PJ2_1_INTS_M
#    Modification time : Tue Mar 25 11:35:59 2014

@<TRIPOS>MOLECULE
3a73_PJ2_1_INTS_M
   59     0     3     0     0
SMALL
NO_CHARGES


@<TRIPOS>ATOM
      1 CA          7.9050   27.9080  -32.9615 C.3       1 GLC5        0.0000 
      2 CA          7.4760   29.6210  -34.1930 C.3       3 GLL5        0.0000 
      3 CA          8.3340   26.1950  -31.7300 C.3       2 GLP5        0.0000 
      4 CA          7.8330   27.2320  -34.1760 C.3       1 GLC5        0.0000 
      5 CA          7.7130   29.0280  -35.4080 C.3       3 GLL5        0.0000 
      6 CA          7.9530   25.4360  -32.9440 C.3       2 GLP5        0.0000 
      7 CA         12.1255   30.0420  -39.1460 C.3       1 GLC5        0.0000 
      8 CA         11.0250   28.8730  -37.7750 C.3       3 GLL5        0.0000 
      9 CA         13.2260   31.2110  -40.5170 C.3       2 GLP5        0.0000 
     10 CA         13.0435   28.7230  -37.6915 C.3       1 GLC5        0.0000 
     11 CA         15.0620   28.5730  -37.6080 C.3       2 GLP5        0.0000 
     12 CA         12.2940   27.7935  -36.1620 C.3       1 GLC5        0.0000 
     13 CA         10.2770   28.3170  -36.8360 C.3       3 GLL5        0.0000 
     14 CA         14.3110   27.2700  -35.4880 C.3       2 GLP5        0.0000 
     15 CA          8.8560   28.6540  -38.0835 C.3       1 GLC5        0.0000 
     16 CA          8.5350   29.6630  -36.2530 C.3       3 GLL5        0.0000 
     17 CA          9.1770   27.6450  -39.9140 C.3       2 GLP5        0.0000 
     18 CA         13.6145   33.0300  -37.1680 C.3       1 GLC5        0.0000 
     19 CA         11.7670   32.8080  -36.4120 C.3       3 GLL5        0.0000 
     20 CA         15.4620   33.2520  -37.9240 C.3       2 GLP5        0.0000 
     21 CA         12.7995   34.4180  -32.6565 C.3       1 GLC5        0.0000 
     22 CA         11.3510   35.6990  -33.1930 C.3       3 GLL5        0.0000 
     23 CA         14.2480   33.1370  -32.1200 C.3       2 GLP5        0.0000 
     24 CA         10.2680   30.8370  -31.8975 C.3       1 GLC5        0.0000 
     25 CA          8.2520   30.4990  -32.1320 C.3       3 GLL5        0.0000 
     26 CA         12.2840   31.1750  -31.6630 C.3       2 GLP5        0.0000 
     27 CA          8.2930   28.3470  -31.9310 C.3       1 GLC5        0.0000 
     28 CA         13.7490   35.1740  -33.3850 C.3       1 GLC5        0.0000 
     29 CA         12.1850   36.1630  -34.3950 C.3       3 GLL5        0.0000 
     30 CA         15.3130   34.1850  -32.3750 C.3       2 GLP5        0.0000 
     31 CA         13.6025   35.8425  -37.1375 C.3       1 GLC5        0.0000 
     32 CA         12.6080   35.0820  -35.4040 C.3       3 GLL5        0.0000 
     33 CA         14.5970   36.6030  -38.8710 C.3       2 GLP5        0.0000 
     34 CA         11.0520   36.1790  -35.7050 C.3       1 GLC5        0.0000 
     35 CA          9.4960   37.2760  -36.0060 C.3       2 GLP5        0.0000 
     36 CA         12.6113   36.4702  -30.1955 C.3       1 GLC5        0.0000 
     37 CA         11.7660   36.2240  -31.8120 C.3       3 GLL5        0.0000 
     38 CA         13.8620   36.9820  -29.1590 C.3       2 GLP5        0.0000 
     39 CA         12.4292   34.5443  -31.0775 C.3       1 GLC5        0.0000 
     40 CA         13.4980   33.1300  -30.9230 C.3       2 GLP5        0.0000 
     41 CA          9.6258   32.6035  -36.8922 C.3       1 GLC5        0.0000 
     42 CA         10.7620   30.5270  -36.3360 C.3       3 GLL5        0.0000 
     43 CA          8.3880   34.0410  -37.6980 C.3       2 GLP5        0.0000 
     44 CA         11.9333   31.1560  -34.4558 C.3       1 GLC5        0.0000 
     45 CA         10.9650   31.8050  -35.8370 C.3       3 GLL5        0.0000 
     46 CA         13.0030   31.1460  -32.8250 C.3       2 GLP5        0.0000 
     47 CA         10.2095   34.2152  -36.3925 C.3       1 GLC5        0.0000 
     48 CA         11.4830   34.1490  -35.7100 C.3       3 GLL5        0.0000 
     49 CA          8.7940   34.9520  -36.7240 C.3       2 GLP5        0.0000 
     50 CA         10.6320   36.6035  -34.9000 C.3       1 GLC5        0.0000 
     51 CA          6.9721   32.4989  -32.2939 C.3       1 GLC5        0.0000 
     52 CA          8.0010   30.7840  -33.6410 C.3       3 GLL5        0.0000 
     53 CA          6.0060   33.9150  -32.5760 C.3       2 GLP5        0.0000 
     54 CA         13.0512   33.2031  -34.3987 C.3       1 GLC5        0.0000 
     55 CA         13.9860   32.1260  -33.0650 C.3       2 GLP5        0.0000 
     56 CA         13.8798   34.2472  -36.1400 C.3       1 GLC5        0.0000 
     57 CA         15.7140   33.8790  -36.7230 C.3       2 GLP5        0.0000 
     58 CA         10.8643   28.0449  -37.6404 C.3       1 GLC5        0.0000 
     59 CA         11.2280   26.8190  -38.5760 C.3       2 GLP5        0.0000 
@<TRIPOS>BOND
@<TRIPOS>SUBSTRUCTURE
     1 GLC5        1 GROUP        1 X    GLC  0     ROOT GLC X 6
     2 GLP5        3 GROUP        1 Y    GLP  0     ROOT GLP Y 13
     3 GLL5        2 GROUP        1 Z    GLL  0     ROOT GLL Z 20
@<TRIPOS>SET

