#    Name: 3a73_PJ2_1_ligand
#    Modification time : Tue Mar 25 11:35:59 2014

@<TRIPOS>MOLECULE
3a73_PJ2_1_ligand
   53    53     1     0     0
SMALL
NO_CHARGES


@<TRIPOS>ATOM
      1 CAA        10.9550   35.6930  -30.6520 C.3       1 PJ21011     0.0000 
      2 OAB         6.9010   29.5290  -30.4160 O.co2     1 PJ21011     0.0000 
      3 OAC        12.0120   30.9370  -38.1290 O.2       1 PJ21011     0.0000 
      4 OAD         7.1560   31.0710  -28.8860 O.co2     1 PJ21011     0.0000 
      5 OAE        11.0070   33.8290  -34.4750 O.3       1 PJ21011     0.0000 
      6 CAF         7.4760   29.6210  -34.1930 C.2       1 PJ21011     0.0000 
      7 CAG         7.7130   29.0280  -35.4080 C.2       1 PJ21011     0.0000 
      8 CAH        11.0250   28.8730  -37.7750 C.2       1 PJ21011     0.0000 
      9 CAI        10.2770   28.3170  -36.8360 C.2       1 PJ21011     0.0000 
     10 CAJ        10.9650   31.8050  -35.8370 C.2       1 PJ21011     0.0000 
     11 CAK        11.7660   36.2240  -31.8120 C.3       1 PJ21011     0.0000 
     12 CAL         8.0010   30.7840  -33.6410 C.3       1 PJ21011     0.0000 
     13 CAM         8.5350   29.6630  -36.2530 C.3       1 PJ21011     0.0000 
     14 CAN        11.7670   32.8080  -36.4120 C.3       1 PJ21011     0.0000 
     15 CAO        11.3510   35.6990  -33.1930 C.3       1 PJ21011     0.0000 
     16 CAP         8.2520   30.4990  -32.1320 C.3       1 PJ21011     0.0000 
     17 CAQ        12.1850   36.1630  -34.3950 C.3       1 PJ21011     0.0000 
     18 CAR         7.7500   31.5240  -31.1370 C.3       1 PJ21011     0.0000 
     19 CAS        12.6080   35.0820  -35.4040 C.3       1 PJ21011     0.0000 
     20 CAT         7.2030   30.6480  -30.0500 C.2       1 PJ21011     0.0000 
     21 CAU        11.3300   30.1390  -37.4930 C.2       1 PJ21011     0.0000 
     22 CAV        10.7620   30.5270  -36.3360 C.2       1 PJ21011     0.0000 
     23 CAW        11.4830   34.1490  -35.7100 C.3       1 PJ21011     0.0000 
     24 CAX         9.9380   29.3660  -35.8720 C.3       1 PJ21011     0.0000 
     25 H           6.7524   29.0939  -33.5449 H         1 PJ21011     0.0000 
     26 H           7.2716   28.1366  -35.6433 H         1 PJ21011     0.0000 
     27 H          11.3286   28.4025  -38.6016 H         1 PJ21011     0.0000 
     28 H           9.9755   27.4291  -36.7323 H         1 PJ21011     0.0000 
     29 H          10.4652   32.0612  -34.9241 H         1 PJ21011     0.0000 
     30 H          12.8357   35.9794  -31.6525 H         1 PJ21011     0.0000 
     31 H          11.7028   37.3309  -31.8259 H         1 PJ21011     0.0000 
     32 H           7.3210   31.6315  -33.6900 H         1 PJ21011     0.0000 
     33 H           8.9591   31.0715  -34.0682 H         1 PJ21011     0.0000 
     34 H           8.4132   30.7650  -36.2396 H         1 PJ21011     0.0000 
     35 H           8.4047   29.3524  -37.3094 H         1 PJ21011     0.0000 
     36 H          11.5603   32.9511  -37.4784 H         1 PJ21011     0.0000 
     37 H          12.8379   32.6050  -36.3003 H         1 PJ21011     0.0000 
     38 H          10.2869   35.9787  -33.3723 H         1 PJ21011     0.0000 
     39 H          11.3610   34.5846  -33.1651 H         1 PJ21011     0.0000 
     40 H           9.3508   30.3586  -31.9928 H         1 PJ21011     0.0000 
     41 H           7.8006   29.5055  -31.8961 H         1 PJ21011     0.0000 
     42 H          13.1015   36.6692  -34.0163 H         1 PJ21011     0.0000 
     43 H          11.6151   36.9492  -34.9395 H         1 PJ21011     0.0000 
     44 H           6.9770   32.0983  -31.5726 H         1 PJ21011     0.0000 
     45 H           8.5595   32.0995  -30.7754 H         1 PJ21011     0.0000 
     46 H          13.4535   34.5288  -34.9833 H         1 PJ21011     0.0000 
     47 H          12.9471   35.5774  -36.3190 H         1 PJ21011     0.0000 
     48 H          10.7199   34.6778  -36.2710 H         1 PJ21011     0.0000 
     49 H          10.0675   29.1151  -34.9345 H         1 PJ21011     0.0000 
     50 H          11.0171   34.6975  -30.5803 H         1 PJ21011     0.0000 
     51 H          11.2648   36.0696  -29.7790 H         1 PJ21011     0.0000 
     52 H           9.9854   35.9205  -30.7418 H         1 PJ21011     0.0000 
     53 H          10.2826   34.5108  -34.3723 H         1 PJ21011     0.0000 
@<TRIPOS>BOND
     1   11    1 1    
     2   50    1 1    
     3   51    1 1    
     4   52    1 1    
     5   20    2 ar   
     6   21    3 2    
     7   20    4 ar   
     8   23    5 1    
     9   53    5 1    
    10    7    6 2    
    11   12    6 1    
    12   25    6 1    
    13   13    7 1    
    14   26    7 1    
    15    9    8 2    
    16   21    8 1    
    17   27    8 1    
    18   24    9 1    
    19   28    9 1    
    20   14   10 1    
    21   22   10 2    
    22   29   10 1    
    23   15   11 1    
    24   30   11 1    
    25   31   11 1    
    26   16   12 1    
    27   32   12 1    
    28   33   12 1    
    29   24   13 1    
    30   34   13 1    
    31   35   13 1    
    32   23   14 1    
    33   36   14 1    
    34   37   14 1    
    35   17   15 1    
    36   38   15 1    
    37   39   15 1    
    38   18   16 1    
    39   40   16 1    
    40   41   16 1    
    41   19   17 1    
    42   42   17 1    
    43   43   17 1    
    44   20   18 1    
    45   44   18 1    
    46   45   18 1    
    47   23   19 1    
    48   46   19 1    
    49   47   19 1    
    50   22   21 1    
    51   24   22 1    
    52   48   23 1    
    53   49   24 1    
@<TRIPOS>SUBSTRUCTURE
     1 PJ21011     1 GROUP   
@<TRIPOS>SET

