#    Name: 3d7k_D7K_2_INTS_M
#    Modification time : Mon Mar 24 22:50:36 2014

@<TRIPOS>MOLECULE
3d7k_D7K_2_INTS_M
   96     0     9     0     0
SMALL
NO_CHARGES


@<TRIPOS>ATOM
      1 N         -68.0420   22.1705   -7.4055 N.am      2 SEC2        0.0000 
      2 N         -69.1720   21.3390   -7.5810 N.am      8 SEL2        0.0000 
      3 N         -66.9120   23.0020   -7.2300 N.am      5 SEP2        0.0000 
      4 N         -66.4360   20.0125   -6.8935 N.am      2 SEC2        0.0000 
      5 N         -67.6260   19.3930   -7.2400 N.am      8 SEL2        0.0000 
      6 N         -65.2460   20.6320   -6.5470 N.am      5 SEP2        0.0000 
      7 N         -66.6245   18.6340   -7.0835 N.am      2 SEC2        0.0000 
      8 N         -65.6230   17.8750   -6.9270 N.am      5 SEP2        0.0000 
      9 N         -71.5685   17.6040  -11.1290 N.am      2 SEC2        0.0000 
     10 N         -71.5170   18.7090  -10.1820 N.am      8 SEL2        0.0000 
     11 N         -71.6200   16.4990  -12.0760 N.am      5 SEP2        0.0000 
     12 N         -70.5975   18.5640  -11.3030 N.am      2 SEC2        0.0000 
     13 N         -69.6780   18.4190  -12.4240 N.am      5 SEP2        0.0000 
     14 N         -72.0015   21.8450   -9.1800 N.am      2 SEC2        0.0000 
     15 N         -71.8440   20.5090   -8.4550 N.am      8 SEL2        0.0000 
     16 N         -72.1590   23.1810   -9.9050 N.am      5 SEP2        0.0000 
     17 N         -72.5310   20.8105   -7.2705 N.am      2 SEC2        0.0000 
     18 N         -73.2180   21.1120   -6.0860 N.am      5 SEP2        0.0000 
     19 N         -72.4595   16.8295   -8.6815 N.am      2 SEC2        0.0000 
     20 N         -72.3080   18.0980   -7.8240 N.am      8 SEL2        0.0000 
     21 N         -72.6110   15.5610   -9.5390 N.am      5 SEP2        0.0000 
     22 N         -73.5830   18.2415   -7.0485 N.am      2 SEC2        0.0000 
     23 N         -74.8580   18.3850   -6.2730 N.am      5 SEP2        0.0000 
     24 CA        -68.4210   17.1495   -4.4125 C.3       3 GLC5        0.0000 
     25 CA        -69.6800   18.4410   -5.0560 C.3       9 GLL5        0.0000 
     26 CA        -67.1620   15.8580   -3.7690 C.3       6 GLP5        0.0000 
     27 CA        -69.0150   19.7230   -4.0440 C.3       3 GLC5        0.0000 
     28 CA        -68.3500   21.0050   -3.0320 C.3       6 GLP5        0.0000 
     29 CA        -71.2505   20.0465   -3.5420 C.3       3 GLC5        0.0000 
     30 CA        -70.9290   18.3220   -4.1880 C.3       9 GLL5        0.0000 
     31 CA        -71.5720   21.7710   -2.8960 C.3       6 GLP5        0.0000 
     32 CA        -68.5180   19.4220    0.1550 C.3       3 GLC5        0.0000 
     33 CA        -69.7160   18.4140   -1.3930 C.3       9 GLL5        0.0000 
     34 CA        -67.3200   20.4300    1.7030 C.3       6 GLP5        0.0000 
     35 CA        -69.0330   19.7095   -2.2125 C.3       3 GLC5        0.0000 
     36 CA        -73.1305   15.8415   -4.7365 C.3       3 GLC5        0.0000 
     37 CA        -71.4890   15.7000   -3.6200 C.3       9 GLL5        0.0000 
     38 CA        -74.7720   15.9830   -5.8530 C.3       6 GLP5        0.0000 
     39 CA        -71.2265   16.0010    1.4200 C.3       3 GLC5        0.0000 
     40 CA        -70.0990   15.4790    0.0550 C.3       9 GLL5        0.0000 
     41 CA        -72.3540   16.5230    2.7850 C.3       6 GLP5        0.0000 
     42 CA        -71.9110   16.5335   -0.3505 C.3       3 GLC5        0.0000 
     43 CA        -73.7230   17.5880   -0.7560 C.3       6 GLP5        0.0000 
     44 CA        -67.5895   18.3890    1.3140 C.3       3 GLC5        0.0000 
     45 CA        -67.8590   16.3480    0.9250 C.3       9 GLL5        0.0000 
     46 O         -67.7025   12.5660   -1.9340 O.2       1 ALC1        0.0000 
     47 O         -68.5150   13.4920   -1.2480 O.2       7 ALL1        0.0000 
     48 O         -66.8900   11.6400   -2.6200 O.2       4 ALP1        0.0000 
     49 N         -65.6555   14.2575   -1.7165 N.am      2 SEC2        0.0000 
     50 N         -66.4700   14.4420   -0.4160 N.am      8 SEL2        0.0000 
     51 N         -64.8410   14.0730   -3.0170 N.am      5 SEP2        0.0000 
     52 CA        -63.7565   13.5185    1.4665 C.3       3 GLC5        0.0000 
     53 CA        -64.3030   15.3150    0.4640 C.3       9 GLL5        0.0000 
     54 CA        -63.2100   11.7220    2.4690 C.3       6 GLP5        0.0000 
     55 CA        -64.4675   14.8625    2.5920 C.3       3 GLC5        0.0000 
     56 CA        -64.6320   14.4100    4.7200 C.3       6 GLP5        0.0000 
     57 CA        -64.2525   13.5985   -0.8220 C.3       3 GLC5        0.0000 
     58 CA        -64.2020   11.8820   -2.1080 C.3       6 GLP5        0.0000 
     59 CA        -63.7500   17.1220   -0.1585 C.3       3 GLC5        0.0000 
     60 CA        -63.1970   18.9290   -0.7810 C.3       6 GLP5        0.0000 
     61 N         -73.7035   14.8515    1.5005 N.am      2 SEC2        0.0000 
     62 N         -73.0060   14.4060    0.5310 N.am      8 SEL2        0.0000 
     63 N         -74.4010   15.2970    2.4700 N.am      5 SEP2        0.0000 
     64 CA        -75.5945   12.7745    0.3565 C.3       3 GLC5        0.0000 
     65 CA        -74.8090   11.5240   -1.0060 C.3       9 GLL5        0.0000 
     66 CA        -76.3800   14.0250    1.7190 C.3       6 GLP5        0.0000 
     67 CA        -73.8005    9.8070   -1.7340 C.3       3 GLC5        0.0000 
     68 CA        -72.7920    8.0900   -2.4620 C.3       6 GLP5        0.0000 
     69 O         -70.8305   11.7285   -0.2700 O.2       1 ALC1        0.0000 
     70 O         -70.9580   12.9800   -0.7070 O.2       7 ALL1        0.0000 
     71 O         -70.7030   10.4770    0.1670 O.2       4 ALP1        0.0000 
     72 CA        -70.7133   16.8087   -5.9045 C.3       3 GLC5        0.0000 
     73 CA        -71.1220   15.2360   -7.1870 C.3       6 GLP5        0.0000 
     74 CA        -72.3028   17.6610   -2.2280 C.3       3 GLC5        0.0000 
     75 CA        -71.1422   15.8295   -5.3015 C.3       3 GLC5        0.0000 
     76 CA        -70.8360   17.1460   -3.2120 C.3       9 GLL5        0.0000 
     77 CA        -71.8727   17.6850   -1.2157 C.3       3 GLC5        0.0000 
     78 CA        -70.3290   17.1500   -1.9580 C.3       9 GLL5        0.0000 
     79 CA        -68.6556   16.8195   -2.8790 C.3       3 GLC5        0.0000 
     80 CA        -69.9030   14.5800   -4.0657 C.3       3 GLC5        0.0000 
     81 CA        -70.8570   14.8440   -2.2090 C.3       9 GLL5        0.0000 
     82 CA        -68.6330   13.8880   -5.2170 C.3       6 GLP5        0.0000 
     83 CA        -72.4480   16.4300   -1.8353 C.3       3 GLC5        0.0000 
     84 CA        -67.6887   15.3960   -1.9752 C.3       3 GLC5        0.0000 
     85 CA        -68.5760   15.4220    0.1550 C.3       9 GLL5        0.0000 
     86 CA        -68.4608   14.7903    1.8767 C.3       3 GLC5        0.0000 
     87 CA        -68.6950   14.4080    3.7550 C.3       6 GLP5        0.0000 
     88 CA        -65.3835   15.8078   -1.6235 C.3       3 GLC5        0.0000 
     89 CA        -65.7970   15.3640    0.3380 C.3       9 GLL5        0.0000 
     90 CA        -65.7170   16.2760   -3.6480 C.3       6 GLP5        0.0000 
     91 CA        -74.0258   14.1928   -5.0747 C.3       3 GLC5        0.0000 
     92 CA        -73.1670   12.7920   -3.7260 C.3       9 GLL5        0.0000 
     93 CA        -69.9336   12.8388   -4.6010 C.3       3 GLC5        0.0000 
     94 CA        -71.0790   11.2000   -4.6960 C.3       9 GLL5        0.0000 
     95 CA        -72.0394    9.8421   -3.3731 C.3       3 GLC5        0.0000 
     96 CA        -70.8660   11.9740   -3.5290 C.3       9 GLL5        0.0000 
@<TRIPOS>BOND
@<TRIPOS>SUBSTRUCTURE
     1 ALC1       46 GROUP        1 X    ALC  0     ROOT ALC X 1
     2 SEC2        1 GROUP        1 X    SEC  0     **** SEC X 2
     3 GLC5       24 GROUP        1 X    GLC  0     **** GLC X 6
     4 ALP1       48 GROUP        1 Y    ALP  0     ROOT ALP Y 8
     5 SEP2        3 GROUP        1 Y    SEP  0     **** SEP Y 9
     6 GLP5       26 GROUP        1 Y    GLP  0     **** GLP Y 13
     7 ALL1       47 GROUP        1 Z    ALL  0     ROOT ALL Z 15
     8 SEL2        2 GROUP        1 Z    SEL  0     **** SEL Z 16
     9 GLL5       25 GROUP        1 Z    GLL  0     **** GLL Z 20
@<TRIPOS>SET

