#    Name: 3d7k_D7K_2_ligand
#    Modification time : Mon Mar 24 22:50:37 2014

@<TRIPOS>MOLECULE
3d7k_D7K_2_ligand
   63    65     1     0     0
SMALL
NO_CHARGES


@<TRIPOS>ATOM
      1 PA        -69.0780   19.8470   -7.3140 P.3       1 D7K572      0.0000 
      2 O1A       -69.1720   21.3390   -7.5810 O.co2     1 D7K572      0.0000 
      3 O2A       -67.6260   19.3930   -7.2400 O.co2     1 D7K572      0.0000 
      4 O1B       -71.5170   18.7090  -10.1820 O.co2     1 D7K572      0.0000 
      5 PB        -71.5400   19.0810   -8.6970 P.3       1 D7K572      0.0000 
      6 O2B       -71.8440   20.5090   -8.4550 O.co2     1 D7K572      0.0000 
      7 O3B       -72.3080   18.0980   -7.8240 O.co2     1 D7K572      0.0000 
      8 O3A       -69.9490   19.0150   -8.3480 O.3       1 D7K572      0.0000 
      9 O01       -69.8610   19.5760   -5.9120 O.3       1 D7K572      0.0000 
     10 C01       -69.6800   18.4410   -5.0560 C.3       1 D7K572      0.0000 
     11 C05       -70.9290   18.3220   -4.1880 C.3       1 D7K572      0.0000 
     12 C04       -70.8360   17.1460   -3.2120 C.2       1 D7K572      0.0000 
     13 C03       -70.3290   17.1500   -1.9580 C.2       1 D7K572      0.0000 
     14 CM4       -69.7160   18.4140   -1.3930 C.3       1 D7K572      0.0000 
     15 S1        -71.4890   15.7000   -3.6200 S.3       1 D7K572      0.0000 
     16 C02       -70.8570   14.8440   -2.2090 C.2       1 D7K572      0.0000 
     17 N3        -70.4420   15.9350   -1.3130 N.pl3     1 D7K572      0.0000 
     18 C7        -70.0990   15.4790    0.0550 C.3       1 D7K572      0.0000 
     19 C5        -68.5760   15.4220    0.1550 C.ar      1 D7K572      0.0000 
     20 C6        -67.8590   16.3480    0.9250 C.ar      1 D7K572      0.0000 
     21 C4        -67.8550   14.4460   -0.5180 C.ar      1 D7K572      0.0000 
     22 N4        -68.5150   13.4920   -1.2480 N.pl3     1 D7K572      0.0000 
     23 N3        -66.4700   14.4420   -0.4160 N.ar      1 D7K572      0.0000 
     24 C2        -65.7970   15.3640    0.3380 C.ar      1 D7K572      0.0000 
     25 N1        -66.4930   16.2870    1.0210 N.ar      1 D7K572      0.0000 
     26 CM2       -64.3030   15.3150    0.4640 C.3       1 D7K572      0.0000 
     27 O12       -73.0060   14.4060    0.5310 O.co2     1 D7K572      0.0000 
     28 P8        -73.2860   13.8080   -0.8190 P.3       1 D7K572      0.0000 
     29 O11       -74.3870   14.4160   -1.7140 O.co2     1 D7K572      0.0000 
     30 O9        -73.6820   12.2320   -0.4780 O.3       1 D7K572      0.0000 
     31 C10       -74.8090   11.5240   -1.0060 C.3       1 D7K572      0.0000 
     32 C7        -71.7110   13.6370   -1.7380 C.3       1 D7K572      0.0000 
     33 O7        -70.9580   12.9800   -0.7070 O.3       1 D7K572      0.0000 
     34 C2        -71.9130   12.7840   -3.0190 C.ar      1 D7K572      0.0000 
     35 C3        -73.1670   12.7920   -3.7260 C.ar      1 D7K572      0.0000 
     36 C4        -73.3920   12.0130   -4.8670 C.ar      1 D7K572      0.0000 
     37 C5        -72.3360   11.2290   -5.3830 C.ar      1 D7K572      0.0000 
     38 C6        -71.0790   11.2000   -4.6960 C.ar      1 D7K572      0.0000 
     39 C1        -70.8660   11.9740   -3.5290 C.ar      1 D7K572      0.0000 
     40 H         -68.8231   18.5615   -4.3999 H         1 D7K572      0.0000 
     41 H         -69.5731   17.5203   -5.6219 H         1 D7K572      0.0000 
     42 H         -71.8027   18.1841   -4.8304 H         1 D7K572      0.0000 
     43 H         -71.0631   19.2467   -3.6205 H         1 D7K572      0.0000 
     44 H         -70.4980   14.4917    0.2393 H         1 D7K572      0.0000 
     45 H         -70.4714   16.1746    0.7936 H         1 D7K572      0.0000 
     46 H         -68.3850   17.0895    1.4273 H         1 D7K572      0.0000 
     47 H         -67.9405   12.8221   -1.7181 H         1 D7K572      0.0000 
     48 H         -69.5133   13.5494   -1.2465 H         1 D7K572      0.0000 
     49 H         -73.9215   13.4034   -3.3632 H         1 D7K572      0.0000 
     50 H         -74.3009   12.0074   -5.3226 H         1 D7K572      0.0000 
     51 H         -72.4577   10.6882   -6.2318 H         1 D7K572      0.0000 
     52 H         -70.3266   10.6077   -5.0603 H         1 D7K572      0.0000 
     53 H         -69.9644   11.9497   -3.0569 H         1 D7K572      0.0000 
     54 H         -69.3804   18.2794   -0.4607 H         1 D7K572      0.0000 
     55 H         -68.9408   18.7279   -1.9411 H         1 D7K572      0.0000 
     56 H         -70.3758   19.1648   -1.3615 H         1 D7K572      0.0000 
     57 H         -63.8523   15.4036   -0.4243 H         1 D7K572      0.0000 
     58 H         -63.9549   16.0514    1.0441 H         1 D7K572      0.0000 
     59 H         -63.9922   14.4536    0.8658 H         1 D7K572      0.0000 
     60 H         -74.7779   11.4677   -2.0039 H         1 D7K572      0.0000 
     61 H         -74.8537   10.5865   -0.6608 H         1 D7K572      0.0000 
     62 H         -75.6724   11.9668   -0.7641 H         1 D7K572      0.0000 
     63 H         -71.3600   12.0672   -0.6349 H         1 D7K572      0.0000 
@<TRIPOS>BOND
     1    2    1 ar   
     2    3    1 ar   
     3    8    1 1    
     4    9    1 1    
     5    5    4 ar   
     6    6    5 ar   
     7    7    5 ar   
     8    8    5 1    
     9   10    9 1    
    10   11   10 1    
    11   40   10 1    
    12   41   10 1    
    13   12   11 1    
    14   42   11 1    
    15   43   11 1    
    16   13   12 2    
    17   15   12 1    
    18   14   13 1    
    19   17   13 1    
    20   54   14 1    
    21   55   14 1    
    22   56   14 1    
    23   16   15 1    
    24   17   16 2    
    25   32   16 1    
    26   18   17 1    
    27   19   18 1    
    28   44   18 1    
    29   45   18 1    
    30   20   19 ar   
    31   21   19 ar   
    32   25   20 ar   
    33   46   20 1    
    34   22   21 1    
    35   23   21 ar   
    36   47   22 1    
    37   48   22 1    
    38   24   23 ar   
    39   25   24 ar   
    40   26   24 1    
    41   57   26 1    
    42   58   26 1    
    43   59   26 1    
    44   28   27 ar   
    45   29   28 ar   
    46   30   28 1    
    47   32   28 1    
    48   31   30 1    
    49   60   31 1    
    50   61   31 1    
    51   62   31 1    
    52   33   32 1    
    53   34   32 1    
    54   63   33 1    
    55   35   34 ar   
    56   39   34 ar   
    57   36   35 ar   
    58   49   35 1    
    59   37   36 ar   
    60   50   36 1    
    61   38   37 ar   
    62   51   37 1    
    63   39   38 ar   
    64   52   38 1    
    65   53   39 1    
@<TRIPOS>SUBSTRUCTURE
     1 D7K572      1 GROUP   
@<TRIPOS>SET

