#    Name: 1ida_0PO_1_INTS_M
#    Modification time : Tue Mar 25 06:55:57 2014

@<TRIPOS>MOLECULE
1ida_0PO_1_INTS_M
  106     0     9     0     0
SMALL
NO_CHARGES


@<TRIPOS>ATOM
      1 N          52.6120   25.9135   10.0080 N.am      2 SEC2        0.0000 
      2 N          51.3430   25.7060    9.4470 N.am      8 SEL2        0.0000 
      3 N          53.8810   26.1210   10.5690 N.am      5 SEP2        0.0000 
      4 CA         47.2240   28.8995    8.5800 C.3       3 GLC5        0.0000 
      5 CA         47.3710   27.3240    9.7940 C.3       9 GLL5        0.0000 
      6 CA         47.0770   30.4750    7.3660 C.3       6 GLP5        0.0000 
      7 CA         46.4035   23.0220    7.3470 C.3       3 GLC5        0.0000 
      8 CA         45.5720   24.4010    8.5860 C.3       9 GLL5        0.0000 
      9 CA         47.2350   21.6430    6.1080 C.3       6 GLP5        0.0000 
     10 O          49.2865   22.8095    8.4605 O.2       1 ALC1        0.0000 
     11 O          50.3850   23.9520    8.3540 O.2       7 ALL1        0.0000 
     12 O          48.1880   21.6670    8.5670 O.2       4 ALP1        0.0000 
     13 CA         53.2140   24.4605    8.1635 C.3       3 GLC5        0.0000 
     14 CA         51.6110   23.2770    7.9600 C.3       9 GLL5        0.0000 
     15 CA         54.8170   25.6440    8.3670 C.3       6 GLP5        0.0000 
     16 CA         54.1145   19.5825    8.9830 C.3       3 GLC5        0.0000 
     17 CA         53.1100   21.2670    8.0860 C.3       9 GLL5        0.0000 
     18 CA         55.1190   17.8980    9.8800 C.3       6 GLP5        0.0000 
     19 CA         54.3615   20.2575    7.2200 C.3       3 GLC5        0.0000 
     20 CA         55.6130   19.2480    6.3540 C.3       6 GLP5        0.0000 
     21 CA         53.1295   22.2660   11.9895 C.3       3 GLC5        0.0000 
     22 CA         52.1190   22.2390   10.1900 C.3       9 GLL5        0.0000 
     23 CA         54.1400   22.2930   13.7890 C.3       6 GLP5        0.0000 
     24 CA         51.3140   21.1045   11.5945 C.3       3 GLC5        0.0000 
     25 CA         50.5090   19.9700   12.9990 C.3       6 GLP5        0.0000 
     26 O          52.6470   25.5815    6.2515 O.2       1 ALC1        0.0000 
     27 O          52.0990   24.1560    5.7720 O.2       7 ALL1        0.0000 
     28 O          53.1950   27.0070    6.7310 O.2       4 ALP1        0.0000 
     29 N          55.5325   25.2005    4.3405 N.am      2 SEC2        0.0000 
     30 N          54.3140   25.0130    3.9610 N.am      8 SEL2        0.0000 
     31 N          56.7510   25.3880    4.7200 N.am      5 SEP2        0.0000 
     32 O          53.9980   25.9570    3.0770 O.2       1 ALC1        0.0000 
     33 O          54.3140   25.0130    3.9610 O.2       7 ALL1        0.0000 
     34 O          53.6820   26.9010    2.1930 O.2       4 ALP1        0.0000 
     35 CA         49.7530   27.1760    2.8265 C.3       3 GLC5        0.0000 
     36 CA         50.0830   25.6760    4.4390 C.3       9 GLL5        0.0000 
     37 CA         49.4230   28.6760    1.2140 C.3       6 GLP5        0.0000 
     38 CA         50.8140   28.4620    5.1860 C.3       3 GLC5        0.0000 
     39 CA         49.8930   26.7020    5.3640 C.3       9 GLL5        0.0000 
     40 CA         51.7350   30.2220    5.0080 C.3       6 GLP5        0.0000 
     41 CA         48.0280   24.4970    2.1340 C.3       3 GLC5        0.0000 
     42 CA         48.9840   24.8750    4.1350 C.3       9 GLL5        0.0000 
     43 CA         47.0720   24.1190    0.1330 C.3       6 GLP5        0.0000 
     44 CA         46.9265   24.1970    2.8635 C.3       3 GLC5        0.0000 
     45 CA         47.7280   25.0780    4.7250 C.3       9 GLL5        0.0000 
     46 CA         46.1250   23.3160    1.0020 C.3       6 GLP5        0.0000 
     47 CA         54.4565   24.2190    0.5530 C.3       3 GLC5        0.0000 
     48 CA         53.5850   23.4420    2.3560 C.3       9 GLL5        0.0000 
     49 CA         55.3280   24.9960   -1.2500 C.3       6 GLP5        0.0000 
     50 CA         50.8630   19.4060    0.9280 C.3       3 GLC5        0.0000 
     51 CA         52.8120   20.0880    0.9100 C.3       9 GLL5        0.0000 
     52 CA         48.9140   18.7240    0.9460 C.3       6 GLP5        0.0000 
     53 CA         56.7600   21.1555    2.4840 C.3       3 GLC5        0.0000 
     54 CA         54.5560   21.1930    2.8130 C.3       9 GLL5        0.0000 
     55 CA         58.9640   21.1180    2.1550 C.3       6 GLP5        0.0000 
     56 CA         54.0075   14.8010    0.3955 C.3       3 GLC5        0.0000 
     57 CA         54.1660   16.3480   -1.0320 C.3       9 GLL5        0.0000 
     58 CA         53.8490   13.2540    1.8230 C.3       6 GLP5        0.0000 
     59 CA         51.5250   17.3990    2.9055 C.3       3 GLC5        0.0000 
     60 CA         53.1650   17.5350    1.5340 C.3       9 GLL5        0.0000 
     61 CA         49.8850   17.2630    4.2770 C.3       6 GLP5        0.0000 
     62 CA         55.0045   17.4310    2.1755 C.3       3 GLC5        0.0000 
     63 CA         56.8440   17.3270    2.8170 C.3       6 GLP5        0.0000 
     64 CA         51.6050   24.2755   -4.7610 C.3       3 GLC5        0.0000 
     65 CA         51.2960   23.7250   -2.9430 C.3       9 GLL5        0.0000 
     66 CA         51.9140   24.8260   -6.5790 C.3       6 GLP5        0.0000 
     67 CA         50.0945   22.3230   -4.0225 C.3       3 GLC5        0.0000 
     68 CA         48.8930   20.9210   -5.1020 C.3       6 GLP5        0.0000 
     69 CA         48.9385   25.7680   -1.6880 C.3       3 GLC5        0.0000 
     70 CA         50.3780   24.6280   -0.8370 C.3       9 GLL5        0.0000 
     71 CA         47.4990   26.9080   -2.5390 C.3       6 GLP5        0.0000 
     72 CA         50.5645   26.5800   -0.8065 C.3       3 GLC5        0.0000 
     73 CA         50.7510   28.5320   -0.7760 C.3       6 GLP5        0.0000 
     74 CA         49.2160   21.6985   -3.4365 C.3       3 GLC5        0.0000 
     75 CA         49.5390   22.4760   -1.7710 C.3       9 GLL5        0.0000 
     76 CA         43.7843   26.8720    7.5565 C.3       3 GLC5        0.0000 
     77 CA         43.9390   26.0770    9.1660 C.3       9 GLL5        0.0000 
     78 CA         43.1110   27.2470    5.7740 C.3       6 GLP5        0.0000 
     79 CA         44.3885   25.3270    6.9670 C.3       3 GLC5        0.0000 
     80 CA         44.2400   24.8150    8.7260 C.3       9 GLL5        0.0000 
     81 CA         43.8710   26.0460    5.2780 C.3       6 GLP5        0.0000 
     82 CA         52.1608   19.7182    7.9918 C.3       3 GLC5        0.0000 
     83 CA         51.9010   21.9640    8.6910 C.3       9 GLL5        0.0000 
     84 CA         51.8160   17.8210    7.5950 C.3       6 GLP5        0.0000 
     85 CA         54.0743   23.0033    8.2933 C.3       3 GLC5        0.0000 
     86 CA         55.6430   24.3910    8.1980 C.3       6 GLP5        0.0000 
     87 CA         47.1190   28.2093    6.0665 C.3       3 GLC5        0.0000 
     88 CA         47.5730   26.0640    5.6970 C.3       9 GLL5        0.0000 
     89 CA         46.1280   29.9310    6.2990 C.3       6 GLP5        0.0000 
     90 CA         45.7608   25.8085    5.2445 C.3       3 GLC5        0.0000 
     91 CA         47.5998   23.5816    5.5857 C.3       3 GLC5        0.0000 
     92 CA         54.9677   19.8623    4.6340 C.3       3 GLC5        0.0000 
     93 CA         54.0890   19.7600    3.0150 C.3       9 GLL5        0.0000 
     94 CA         55.5509   18.8341    2.6949 C.3       3 GLC5        0.0000 
     95 CA         52.5872   14.9085    0.7945 C.3       3 GLC5        0.0000 
     96 CA         52.7850   16.2890   -0.7470 C.3       9 GLL5        0.0000 
     97 CA         52.7500   14.1080    2.4610 C.3       6 GLP5        0.0000 
     98 CA         53.6420   13.6815    0.0555 C.3       3 GLC5        0.0000 
     99 CA         52.7490   14.0460   -1.5650 C.3       9 GLL5        0.0000 
    100 CA         50.7973   18.1050    0.8508 C.3       3 GLC5        0.0000 
    101 CA         52.1960   17.4370   -0.0230 C.3       9 GLL5        0.0000 
    102 CA         52.7152   15.7970    1.6082 C.3       3 GLC5        0.0000 
    103 CA         52.4690   25.0669   -1.3177 C.3       3 GLC5        0.0000 
    104 CA         54.2330   26.0460   -1.0910 C.3       6 GLP5        0.0000 
    105 CA         48.5640   23.6782   -0.6760 C.3       3 GLC5        0.0000 
    106 CA         50.7680   23.3700   -1.5610 C.3       9 GLL5        0.0000 
@<TRIPOS>BOND
@<TRIPOS>SUBSTRUCTURE
     1 ALC1       10 GROUP        1 X    ALC  0     ROOT ALC X 1
     2 SEC2        1 GROUP        1 X    SEC  0     **** SEC X 2
     3 GLC5        4 GROUP        1 X    GLC  0     **** GLC X 6
     4 ALP1       12 GROUP        1 Y    ALP  0     ROOT ALP Y 8
     5 SEP2        3 GROUP        1 Y    SEP  0     **** SEP Y 9
     6 GLP5        6 GROUP        1 Y    GLP  0     **** GLP Y 13
     7 ALL1       11 GROUP        1 Z    ALL  0     ROOT ALL Z 15
     8 SEL2        2 GROUP        1 Z    SEL  0     **** SEL Z 16
     9 GLL5        5 GROUP        1 Z    GLL  0     **** GLL Z 20
@<TRIPOS>SET

