#    Name: 1ida_0PO_1_ligand
#    Modification time : Tue Mar 25 06:55:57 2014

@<TRIPOS>MOLECULE
1ida_0PO_1_ligand
  105   109     1     0     0
SMALL
NO_CHARGES


@<TRIPOS>ATOM
      1 C          50.3060   25.1110    9.0520 C.2       1 0PO100      0.0000 
      2 O1         51.3430   25.7060    9.4470 O.2       1 0PO100      0.0000 
      3 N1         47.8780   24.8580    8.9010 N.ar      1 0PO100      0.0000 
      4 C2         48.9630   25.5910    9.2450 C.ar      1 0PO100      0.0000 
      5 C3         48.6900   26.8800    9.6820 C.ar      1 0PO100      0.0000 
      6 C4         47.3710   27.3240    9.7940 C.ar      1 0PO100      0.0000 
      7 C5         44.9760   26.9170    9.5120 C.ar      1 0PO100      0.0000 
      8 C6         43.9390   26.0770    9.1660 C.ar      1 0PO100      0.0000 
      9 C7         44.2400   24.8150    8.7260 C.ar      1 0PO100      0.0000 
     10 C8         45.5720   24.4010    8.5860 C.ar      1 0PO100      0.0000 
     11 C9         46.3170   26.4950    9.4140 C.ar      1 0PO100      0.0000 
     12 C10        46.5990   25.2460    8.9670 C.ar      1 0PO100      0.0000 
     13 N          50.3850   23.9520    8.3540 N.am      1 0PO100      0.0000 
     14 CA         51.6110   23.2770    7.9600 C.3       1 0PO100      0.0000 
     15 C1         51.5490   23.1620    6.4610 C.2       1 0PO100      0.0000 
     16 O          50.9440   22.2480    5.9090 O.2       1 0PO100      0.0000 
     17 CB         51.9010   21.9640    8.6910 C.3       1 0PO100      0.0000 
     18 CG1        53.1100   21.2670    8.0860 C.3       1 0PO100      0.0000 
     19 CG2        52.1190   22.2390   10.1900 C.3       1 0PO100      0.0000 
     20 N2         52.0990   24.1560    5.7720 N.am      1 0PO100      0.0000 
     21 CA1        52.0770   24.1240    4.3100 C.3       1 0PO100      0.0000 
     22 CC         53.4760   23.8610    3.8000 C.3       1 0PO100      0.0000 
     23 OXT        54.3140   25.0130    3.9610 O.3       1 0PO100      0.0000 
     24 CB1        51.4160   25.4160    3.7840 C.3       1 0PO100      0.0000 
     25 CG         50.0830   25.6760    4.4390 C.ar      1 0PO100      0.0000 
     26 CD1        49.8930   26.7020    5.3640 C.ar      1 0PO100      0.0000 
     27 CD2        48.9840   24.8750    4.1350 C.ar      1 0PO100      0.0000 
     28 CE1        48.6470   26.9110    5.9710 C.ar      1 0PO100      0.0000 
     29 CE2        47.7280   25.0780    4.7250 C.ar      1 0PO100      0.0000 
     30 CZ         47.5730   26.0640    5.6970 C.ar      1 0PO100      0.0000 
     31 CM         53.5850   23.4420    2.3560 C.3       1 0PO100      0.0000 
     32 N11        53.4340   22.0090    2.2870 N.4       1 0PO100      0.0000 
     33 C21        52.9690   21.5890    0.9340 C.3       1 0PO100      0.0000 
     34 C31        52.8120   20.0880    0.9100 C.3       1 0PO100      0.0000 
     35 C41        53.8300   19.2190    1.6500 C.3       1 0PO100      0.0000 
     36 C51        54.0890   19.7600    3.0150 C.3       1 0PO100      0.0000 
     37 C61        54.5560   21.1930    2.8130 C.3       1 0PO100      0.0000 
     38 CD         51.6990   22.2850    0.4860 C.2       1 0PO100      0.0000 
     39 O2         50.7620   22.3690    1.3240 O.2       1 0PO100      0.0000 
     40 N12        54.8030   15.2850   -1.5790 N.ar      1 0PO100      0.0000 
     41 C22        54.1660   16.3480   -1.0320 C.ar      1 0PO100      0.0000 
     42 C32        52.7850   16.2890   -0.7470 C.ar      1 0PO100      0.0000 
     43 C42        52.0640   15.1290   -0.9970 C.ar      1 0PO100      0.0000 
     44 C52        52.7490   14.0460   -1.5650 C.ar      1 0PO100      0.0000 
     45 C62        54.1210   14.1720   -1.8590 C.ar      1 0PO100      0.0000 
     46 CE         52.1960   17.4370   -0.0230 C.3       1 0PO100      0.0000 
     47 S          53.1650   17.5350    1.5340 S.3       1 0PO100      0.0000 
     48 N3         51.7940   22.7030   -0.8470 N.am      1 0PO100      0.0000 
     49 C1'        50.7680   23.3700   -1.5610 C.3       1 0PO100      0.0000 
     50 C2'        51.2960   23.7250   -2.9430 C.3       1 0PO100      0.0000 
     51 C3'        50.3780   24.6280   -0.8370 C.3       1 0PO100      0.0000 
     52 C4'        49.5390   22.4760   -1.7710 C.3       1 0PO100      0.0000 
     53 H          49.4634   27.5161    9.9262 H         1 0PO100      0.0000 
     54 H          47.1777   28.2661   10.1582 H         1 0PO100      0.0000 
     55 H          44.7805   27.8750    9.8505 H         1 0PO100      0.0000 
     56 H          42.9684   26.3926    9.2376 H         1 0PO100      0.0000 
     57 H          43.4836   24.1477    8.4901 H         1 0PO100      0.0000 
     58 H          45.7762   23.4717    8.2009 H         1 0PO100      0.0000 
     59 H          49.4886   23.4614    8.0487 H         1 0PO100      0.0000 
     60 H          52.4608   23.9763    8.1760 H         1 0PO100      0.0000 
     61 H          51.0365   21.3195    8.5894 H         1 0PO100      0.0000 
     62 H          52.5513   24.9683    6.2069 H         1 0PO100      0.0000 
     63 H          51.4359   23.2815    3.9991 H         1 0PO100      0.0000 
     64 H          53.9109   23.0375    4.4077 H         1 0PO100      0.0000 
     65 H          51.2865   25.3226    2.7013 H         1 0PO100      0.0000 
     66 H          52.0937   26.2539    3.9745 H         1 0PO100      0.0000 
     67 H          50.6840   27.3218    5.6088 H         1 0PO100      0.0000 
     68 H          49.0949   24.1005    3.4488 H         1 0PO100      0.0000 
     69 H          48.5263   27.6976    6.6246 H         1 0PO100      0.0000 
     70 H          46.9311   24.5020    4.4398 H         1 0PO100      0.0000 
     71 H          46.6924   26.1651    6.1985 H         1 0PO100      0.0000 
     72 H          54.5572   23.7560    1.9747 H         1 0PO100      0.0000 
     73 H          52.8059   23.9496    1.7863 H         1 0PO100      0.0000 
     74 H          52.5273   21.7582    2.9767 H         1 0PO100      0.0000 
     75 H          53.7657   21.8389    0.2075 H         1 0PO100      0.0000 
     76 H          52.7811   19.7458   -0.1647 H         1 0PO100      0.0000 
     77 H          51.7858   19.8265    1.2992 H         1 0PO100      0.0000 
     78 H          54.7172   19.1499    1.0379 H         1 0PO100      0.0000 
     79 H          54.8651   19.1993    3.5005 H         1 0PO100      0.0000 
     80 H          53.1868   19.7598    3.5968 H         1 0PO100      0.0000 
     81 H          54.8977   21.5897    3.7676 H         1 0PO100      0.0000 
     82 H          55.3882   21.1963    2.1110 H         1 0PO100      0.0000 
     83 H          54.6743   17.2226   -0.8118 H         1 0PO100      0.0000 
     84 H          51.0794   15.0617   -0.7793 H         1 0PO100      0.0000 
     85 H          52.2615   13.1733   -1.7648 H         1 0PO100      0.0000 
     86 H          54.5910   13.3510   -2.3103 H         1 0PO100      0.0000 
     87 H          51.2311   17.2866    0.3477 H         1 0PO100      0.0000 
     88 H          52.3861   18.3757   -0.4397 H         1 0PO100      0.0000 
     89 H          52.6951   22.5097   -1.3646 H         1 0PO100      0.0000 
     90 H          53.9323   21.8331    8.1434 H         1 0PO100      0.0000 
     91 H          53.3139   20.4059    8.5518 H         1 0PO100      0.0000 
     92 H          52.9694   21.0514    7.1197 H         1 0PO100      0.0000 
     93 H          52.3089   21.3988   10.6979 H         1 0PO100      0.0000 
     94 H          52.8900   22.8565   10.3460 H         1 0PO100      0.0000 
     95 H          51.3159   22.6607   10.6109 H         1 0PO100      0.0000 
     96 H          52.0960   24.3228   -2.8926 H         1 0PO100      0.0000 
     97 H          51.5698   22.9116   -3.4562 H         1 0PO100      0.0000 
     98 H          50.6088   24.2006   -3.4922 H         1 0PO100      0.0000 
     99 H          51.1506   25.2555   -0.7401 H         1 0PO100      0.0000 
    100 H          49.6556   25.1247   -1.3181 H         1 0PO100      0.0000 
    101 H          50.0387   24.4365    0.0840 H         1 0PO100      0.0000 
    102 H          49.7634   21.6526   -2.2922 H         1 0PO100      0.0000 
    103 H          49.1459   22.1749   -0.9022 H         1 0PO100      0.0000 
    104 H          48.8151   22.9513   -2.2712 H         1 0PO100      0.0000 
    105 H          53.9857   25.6688    3.2812 H         1 0PO100      0.0000 
@<TRIPOS>BOND
     1    2    1 2    
     2    4    1 1    
     3   13    1 am   
     4    4    3 ar   
     5   12    3 ar   
     6    5    4 ar   
     7    6    5 ar   
     8   53    5 1    
     9   11    6 ar   
    10   54    6 1    
    11    8    7 ar   
    12   11    7 ar   
    13   55    7 1    
    14    9    8 ar   
    15   56    8 1    
    16   10    9 ar   
    17   57    9 1    
    18   12   10 ar   
    19   58   10 1    
    20   12   11 ar   
    21   14   13 1    
    22   59   13 1    
    23   15   14 1    
    24   17   14 1    
    25   60   14 1    
    26   16   15 2    
    27   20   15 am   
    28   18   17 1    
    29   19   17 1    
    30   61   17 1    
    31   90   18 1    
    32   91   18 1    
    33   92   18 1    
    34   93   19 1    
    35   94   19 1    
    36   95   19 1    
    37   21   20 1    
    38   62   20 1    
    39   22   21 1    
    40   24   21 1    
    41   63   21 1    
    42   23   22 1    
    43   31   22 1    
    44   64   22 1    
    45  105   23 1    
    46   25   24 1    
    47   65   24 1    
    48   66   24 1    
    49   26   25 ar   
    50   27   25 ar   
    51   28   26 ar   
    52   67   26 1    
    53   29   27 ar   
    54   68   27 1    
    55   30   28 ar   
    56   69   28 1    
    57   30   29 ar   
    58   70   29 1    
    59   71   30 1    
    60   32   31 1    
    61   72   31 1    
    62   73   31 1    
    63   33   32 1    
    64   37   32 1    
    65   74   32 1    
    66   34   33 1    
    67   38   33 1    
    68   75   33 1    
    69   35   34 1    
    70   76   34 1    
    71   77   34 1    
    72   36   35 1    
    73   47   35 1    
    74   78   35 1    
    75   37   36 1    
    76   79   36 1    
    77   80   36 1    
    78   81   37 1    
    79   82   37 1    
    80   39   38 2    
    81   48   38 am   
    82   41   40 ar   
    83   45   40 ar   
    84   42   41 ar   
    85   83   41 1    
    86   43   42 ar   
    87   46   42 1    
    88   44   43 ar   
    89   84   43 1    
    90   45   44 ar   
    91   85   44 1    
    92   86   45 1    
    93   47   46 1    
    94   87   46 1    
    95   88   46 1    
    96   49   48 1    
    97   89   48 1    
    98   50   49 1    
    99   51   49 1    
   100   52   49 1    
   101   96   50 1    
   102   97   50 1    
   103   98   50 1    
   104   99   51 1    
   105  100   51 1    
   106  101   51 1    
   107  102   52 1    
   108  103   52 1    
   109  104   52 1    
@<TRIPOS>SUBSTRUCTURE
     1 0PO100      1 GROUP   
@<TRIPOS>SET

