#    Name: 3FUI_1_CAVITY_N1_6.mol2
#    Modification time : Mon Mar 10 17:20:16 2014

@<TRIPOS>MOLECULE
3FUI_1_CAVITY_N1_6.mol2
   23     0     6     0     0
SMALL
NO_CHARGES


@<TRIPOS>ATOM
      1 CZ          9.3015   -8.1446   -3.4622 C.ar      4 PHE5        0.0000 
      2 CZ          6.8962   -8.0606    2.4291 C.ar      4 PHE5        0.0000 
      3 OG          5.4346   -3.6698    1.3878 O.2       1 SER1        0.0000 
      4 OG          7.6628   -9.0554   -0.6810 O.2       1 SER1        0.0000 
      5 OG          6.0814   -4.8655   -0.2406 O.2       1 SER1        0.0000 
      6 N           5.5543   -3.4689   -0.0938 N.2       2 ALA2        0.0000 
      7 CZ          7.7826   -8.8545   -2.1626 C.ar      4 PHE5        0.0000 
      8 CZ          5.4970   -8.5696    2.2470 C.ar      4 PHE5        0.0000 
      9 OG          4.9699   -7.1730    2.3938 O.2       1 SER1        0.0000 
     10 OG          4.4428   -5.7763    2.5406 O.2       1 SER1        0.0000 
     11 OG          5.6168   -8.3687    0.7654 O.2       1 SER1        0.0000 
     12 OG          5.0896   -6.9720    0.9122 O.2       1 SER1        0.0000 
     13 OG          4.5625   -5.5754    1.0590 O.2       1 SER1        0.0000 
     14 N           4.0354   -4.1788    1.2058 N.2       2 ALA2        0.0000 
     15 O           5.7365   -8.1678   -0.7163 O.2       2 ALA2        0.0000 
     16 OG          5.2094   -6.7711   -0.5695 O.2       1 SER1        0.0000 
     17 N           4.6822   -5.3745   -0.4227 N.2       2 ALA2        0.0000 
     18 CZ          5.8562   -7.9668   -2.1979 C.ar      4 PHE5        0.0000 
     19 DU          3.5707   -7.6819    2.2117 H         6 CUB7        0.0000 
     20 NZ          3.0436   -6.2853    2.3585 N.2       3 LYS4        0.0000 
     21 O           4.2176   -8.8776    0.5833 O.2       2 ALA2        0.0000 
     22 CA          3.6904   -7.4810    0.7301 C.3       5 GLY6        0.0000 
     23 N           3.1633   -6.0844    0.8769 N.2       2 ALA2        0.0000 
@<TRIPOS>BOND
@<TRIPOS>SUBSTRUCTURE
     1 SER1        3 GROUP   
     2 ALA2        6 GROUP   
     3 LYS4       20 GROUP   
     4 PHE5        1 GROUP   
     5 GLY6       22 GROUP   
     6 CUB7       19 GROUP   
@<TRIPOS>SET

