#    Name: 3FUI_1_CAVITY_N1_ALL.mol2
#    Modification time : Mon Mar 10 17:20:16 2014

@<TRIPOS>MOLECULE
3FUI_1_CAVITY_N1_ALL.mol2
  138     0     7     0     0
SMALL
NO_CHARGES


@<TRIPOS>ATOM
      1 CA         14.8411  -11.2094   -0.3930 C.3       6 GLY6        0.0000 
      2 CA         14.3140   -9.8128   -0.2462 C.3       6 GLY6        0.0000 
      3 DU         14.9608  -11.0085   -1.8747 H         7 CUB7        0.0000 
      4 N          14.4337   -9.6119   -1.7279 N.2       2 ALA2        0.0000 
      5 O          13.3222  -11.9193    0.9065 O.2       2 ALA2        0.0000 
      6 CA         12.7950  -10.5227    1.0533 C.3       6 GLY6        0.0000 
      7 DU         13.4419  -11.7184   -0.5751 H         7 CUB7        0.0000 
      8 CA         12.9147  -10.3218   -0.4283 C.3       6 GLY6        0.0000 
      9 DU         13.5616  -11.5175   -2.0568 H         7 CUB7        0.0000 
     10 N          13.0345  -10.1208   -1.9100 N.2       2 ALA2        0.0000 
     11 CZ         12.5073   -8.7242   -1.7632 C.ar      5 PHE5        0.0000 
     12 O          13.6813  -11.3166   -3.5384 O.2       2 ALA2        0.0000 
     13 O          13.1542   -9.9199   -3.3916 O.2       2 ALA2        0.0000 
     14 O          12.6271   -8.5233   -3.2448 O.2       2 ALA2        0.0000 
     15 OG         11.9229  -12.4283    0.7245 O.2       1 SER1        0.0000 
     16 OG         11.3958  -11.0317    0.8713 O.2       1 SER1        0.0000 
     17 DU         12.0427  -12.2274   -0.7572 H         7 CUB7        0.0000 
     18 DU         11.5155  -10.8307   -0.6104 H         7 CUB7        0.0000 
     19 CZ         10.9884   -9.4341   -0.4636 C.ar      5 PHE5        0.0000 
     20 DU         12.1624  -12.0264   -2.2388 H         7 CUB7        0.0000 
     21 DU         11.6353  -10.6298   -2.0921 H         7 CUB7        0.0000 
     22 CZ         11.1081   -9.2332   -1.9453 C.ar      5 PHE5        0.0000 
     23 N          12.2821  -11.8255   -3.7205 N.2       2 ALA2        0.0000 
     24 N          11.7550  -10.4289   -3.5737 N.2       2 ALA2        0.0000 
     25 CZ         11.2278   -9.0323   -3.4269 C.ar      5 PHE5        0.0000 
     26 CZ         10.7007   -7.6356   -3.2801 C.ar      5 PHE5        0.0000 
     27 CA         11.3476   -8.8313   -4.9086 C.3       6 GLY6        0.0000 
     28 OG          9.3497  -10.3449    2.3176 O.2       1 SER1        0.0000 
     29 CZ          8.8226   -8.9483    2.4644 C.ar      5 PHE5        0.0000 
     30 OG         10.5237  -12.9373    0.5424 O.2       1 SER1        0.0000 
     31 OG          9.9966  -11.5406    0.6892 O.2       1 SER1        0.0000 
     32 OG          9.4695  -10.1440    0.8360 O.2       1 SER1        0.0000 
     33 OG          8.9423   -8.7474    0.9828 O.2       1 SER1        0.0000 
     34 CA         10.6435  -12.7363   -0.9393 C.3       6 GLY6        0.0000 
     35 CA         10.1163  -11.3397   -0.7925 C.3       6 GLY6        0.0000 
     36 CZ          9.5892   -9.9431   -0.6457 C.ar      5 PHE5        0.0000 
     37 CA         10.7632  -12.5354   -2.4209 C.3       6 GLY6        0.0000 
     38 CA         10.2360  -11.1388   -2.2741 C.3       6 GLY6        0.0000 
     39 CZ          9.7089   -9.7422   -2.1273 C.ar      5 PHE5        0.0000 
     40 N          10.3558  -10.9379   -3.7558 N.2       2 ALA2        0.0000 
     41 CA          9.8286   -9.5412   -3.6090 C.3       6 GLY6        0.0000 
     42 CZ          9.3015   -8.1446   -3.4622 C.ar      5 PHE5        0.0000 
     43 NZ          8.1185  -12.8533    6.4337 N.2       4 LYS4        0.0000 
     44 CA          7.0642  -10.0600    6.7273 C.3       6 GLY6        0.0000 
     45 NZ          8.7653  -14.0490    4.8053 N.2       4 LYS4        0.0000 
     46 OG          8.2382  -12.6523    4.9521 O.2       1 SER1        0.0000 
     47 OG          7.7111  -11.2557    5.0988 O.2       1 SER1        0.0000 
     48 CZ          7.1839   -9.8591    5.2456 C.ar      5 PHE5        0.0000 
     49 NZ          8.8851  -13.8481    3.3236 N.2       4 LYS4        0.0000 
     50 OG          8.3579  -12.4514    3.4704 O.2       1 SER1        0.0000 
     51 OG          7.8308  -11.0548    3.6172 O.2       1 SER1        0.0000 
     52 CZ          7.3037   -9.6582    3.7640 C.ar      5 PHE5        0.0000 
     53 OG          9.0048  -13.6471    1.8420 O.2       1 SER1        0.0000 
     54 OG          8.4777  -12.2505    1.9887 O.2       1 SER1        0.0000 
     55 OG          7.9505  -10.8539    2.1355 O.2       1 SER1        0.0000 
     56 OG          7.4234   -9.4572    2.2823 O.2       1 SER1        0.0000 
     57 CZ          6.8962   -8.0606    2.4291 C.ar      5 PHE5        0.0000 
     58 CA          8.5974  -12.0496    0.5071 C.3       6 GLY6        0.0000 
     59 DU          8.0702  -10.6530    0.6539 H         7 CUB7        0.0000 
     60 OG          7.5431   -9.2563    0.8007 O.2       1 SER1        0.0000 
     61 OG          5.4346   -3.6698    1.3878 O.2       1 SER1        0.0000 
     62 CA          8.7171  -11.8487   -0.9746 C.3       6 GLY6        0.0000 
     63 CA          8.1900  -10.4520   -0.8278 C.3       6 GLY6        0.0000 
     64 OG          7.6628   -9.0554   -0.6810 O.2       1 SER1        0.0000 
     65 OG          6.0814   -4.8655   -0.2406 O.2       1 SER1        0.0000 
     66 N           5.5543   -3.4689   -0.0938 N.2       2 ALA2        0.0000 
     67 CA          8.3097  -10.2511   -2.3094 C.3       6 GLY6        0.0000 
     68 CZ          7.7826   -8.8545   -2.1626 C.ar      5 PHE5        0.0000 
     69 CA          7.2464  -14.7589    6.1048 C.3       6 GLY6        0.0000 
     70 NZ          6.7193  -13.3622    6.2516 N.2       4 LYS4        0.0000 
     71 NZ          6.1921  -11.9656    6.3984 N.2       4 LYS4        0.0000 
     72 NZ          5.6650  -10.5690    6.5452 N.2       4 LYS4        0.0000 
     73 CA          5.1379   -9.1723    6.6920 C.3       6 GLY6        0.0000 
     74 NZ          7.3661  -14.5579    4.6232 N.2       4 LYS4        0.0000 
     75 DU          6.8390  -13.1613    4.7700 H         7 CUB7        0.0000 
     76 DU          6.3119  -11.7647    4.9168 H         7 CUB7        0.0000 
     77 CZ          5.7847  -10.3681    5.0636 C.ar      5 PHE5        0.0000 
     78 CZ          5.2576   -8.9714    5.2103 C.ar      5 PHE5        0.0000 
     79 NZ          7.4858  -14.3570    3.1415 N.2       4 LYS4        0.0000 
     80 CA          6.9587  -12.9604    3.2883 C.3       6 GLY6        0.0000 
     81 DU          6.4316  -11.5638    3.4351 H         7 CUB7        0.0000 
     82 DU          5.9044  -10.1671    3.5819 H         7 CUB7        0.0000 
     83 CA          6.5513  -11.3629    1.9535 C.3       6 GLY6        0.0000 
     84 DU          6.0242   -9.9662    2.1002 H         7 CUB7        0.0000 
     85 CZ          5.4970   -8.5696    2.2470 C.ar      5 PHE5        0.0000 
     86 OG          4.9699   -7.1730    2.3938 O.2       1 SER1        0.0000 
     87 OG          4.4428   -5.7763    2.5406 O.2       1 SER1        0.0000 
     88 CA          6.6710  -11.1619    0.4718 C.3       6 GLY6        0.0000 
     89 DU          6.1439   -9.7653    0.6186 H         7 CUB7        0.0000 
     90 OG          5.6168   -8.3687    0.7654 O.2       1 SER1        0.0000 
     91 OG          5.0896   -6.9720    0.9122 O.2       1 SER1        0.0000 
     92 OG          4.5625   -5.5754    1.0590 O.2       1 SER1        0.0000 
     93 N           4.0354   -4.1788    1.2058 N.2       2 ALA2        0.0000 
     94 CA          6.2636   -9.5644   -0.8631 C.3       6 GLY6        0.0000 
     95 O           5.7365   -8.1678   -0.7163 O.2       2 ALA2        0.0000 
     96 OG          5.2094   -6.7711   -0.5695 O.2       1 SER1        0.0000 
     97 N           4.6822   -5.3745   -0.4227 N.2       2 ALA2        0.0000 
     98 CA          6.3834   -9.3635   -2.3447 C.3       6 GLY6        0.0000 
     99 CZ          5.8562   -7.9668   -2.1979 C.ar      5 PHE5        0.0000 
    100 O           4.1461  -11.2789    7.8448 O.2       2 ALA2        0.0000 
    101 CA          5.8472  -15.2678    5.9227 C.3       6 GLY6        0.0000 
    102 O           5.3200  -13.8712    6.0695 O.2       2 ALA2        0.0000 
    103 O           4.7929  -12.4746    6.2163 O.2       2 ALA2        0.0000 
    104 NZ          4.2658  -11.0779    6.3631 N.2       4 LYS4        0.0000 
    105 NZ          3.7386   -9.6813    6.5099 N.2       4 LYS4        0.0000 
    106 OD1         5.9669  -15.0669    4.4411 O.3       3 ASP3        0.0000 
    107 OD1         5.4398  -13.6703    4.5879 O.3       3 ASP3        0.0000 
    108 DU          4.9126  -12.2737    4.7347 H         7 CUB7        0.0000 
    109 DU          4.3855  -10.8770    4.8815 H         7 CUB7        0.0000 
    110 O           3.8584   -9.4804    5.0283 O.2       2 ALA2        0.0000 
    111 OD1         5.0324  -12.0727    3.2530 O.3       3 ASP3        0.0000 
    112 DU          4.5052  -10.6761    3.3998 H         7 CUB7        0.0000 
    113 DU          3.9781   -9.2795    3.5466 H         7 CUB7        0.0000 
    114 N           3.4510   -7.8828    3.6934 N.2       2 ALA2        0.0000 
    115 OD1         5.1521  -11.8718    1.7714 O.3       3 ASP3        0.0000 
    116 O           4.6250  -10.4752    1.9182 O.2       2 ALA2        0.0000 
    117 DU          4.0978   -9.0786    2.0650 H         7 CUB7        0.0000 
    118 DU          3.5707   -7.6819    2.2117 H         7 CUB7        0.0000 
    119 NZ          3.0436   -6.2853    2.3585 N.2       4 LYS4        0.0000 
    120 O           4.7447  -10.2743    0.4365 O.2       2 ALA2        0.0000 
    121 O           4.2176   -8.8776    0.5833 O.2       2 ALA2        0.0000 
    122 CA          3.6904   -7.4810    0.7301 C.3       6 GLY6        0.0000 
    123 N           3.1633   -6.0844    0.8769 N.2       2 ALA2        0.0000 
    124 DU          3.9208  -14.3802    5.8875 H         7 CUB7        0.0000 
    125 O           3.3937  -12.9835    6.0342 O.2       2 ALA2        0.0000 
    126 O           2.8666  -11.5869    6.1810 O.2       2 ALA2        0.0000 
    127 NZ          2.3394  -10.1903    6.3278 N.2       4 LYS4        0.0000 
    128 OD1         4.0406  -14.1793    4.4058 O.3       3 ASP3        0.0000 
    129 O           3.5134  -12.7826    4.5526 O.2       2 ALA2        0.0000 
    130 O           2.9863  -11.3860    4.6994 O.2       2 ALA2        0.0000 
    131 O           2.4592   -9.9894    4.8462 O.2       2 ALA2        0.0000 
    132 OD1         3.6332  -12.5817    3.0709 O.3       3 ASP3        0.0000 
    133 CA          3.1060  -11.1851    3.2177 C.3       6 GLY6        0.0000 
    134 CA          2.5789   -9.7884    3.3645 C.3       6 GLY6        0.0000 
    135 CA          2.0517   -8.3918    3.5113 C.3       6 GLY6        0.0000 
    136 O           3.2257  -10.9842    1.7361 O.2       2 ALA2        0.0000 
    137 O           2.6986   -9.5875    1.8829 O.2       2 ALA2        0.0000 
    138 NZ          2.1715   -8.1909    2.0297 N.2       4 LYS4        0.0000 
@<TRIPOS>BOND
@<TRIPOS>SUBSTRUCTURE
     1 SER1       15 GROUP   
     2 ALA2        4 GROUP   
     3 ASP3      106 GROUP   
     4 LYS4       43 GROUP   
     5 PHE5       11 GROUP   
     6 GLY6        1 GROUP   
     7 CUB7        3 GROUP   
@<TRIPOS>SET

