#    Name: 3fui_812_1_INTS_M
#    Modification time : Tue Mar 25 06:30:32 2014

@<TRIPOS>MOLECULE
3fui_812_1_INTS_M
   64     0     6     0     0
SMALL
NO_CHARGES


@<TRIPOS>ATOM
      1 CA          3.9530   -0.8655   -1.1185 C.3       2 GLC5        0.0000 
      2 CA          4.8220   -2.2950   -1.0420 C.3       6 GLL5        0.0000 
      3 CA          3.0840    0.5640   -1.1950 C.3       4 GLP5        0.0000 
      4 CA          7.0510   -4.5275   -2.1450 C.3       2 GLC5        0.0000 
      5 CA          6.9640   -3.3400   -0.7850 C.3       6 GLL5        0.0000 
      6 CA          7.1380   -5.7150   -3.5050 C.3       4 GLP5        0.0000 
      7 CA          8.4475   -3.9710    0.0135 C.3       2 GLC5        0.0000 
      8 CA          9.9310   -4.6020    0.8120 C.3       4 GLP5        0.0000 
      9 CA          7.1790   -3.0105   -3.6120 C.3       2 GLC5        0.0000 
     10 CA          6.9990   -2.4690   -2.0290 C.3       6 GLL5        0.0000 
     11 CA          7.3590   -3.5520   -5.1950 C.3       4 GLP5        0.0000 
     12 CA          7.5210    0.2030   -1.9470 C.3       2 GLC5        0.0000 
     13 CA          8.3120   -1.7020   -2.2240 C.3       6 GLL5        0.0000 
     14 CA          6.7300    2.1080   -1.6700 C.3       4 GLP5        0.0000 
     15 CA          8.4020   -2.9055   -3.4305 C.3       2 GLC5        0.0000 
     16 CA          8.4920   -4.1090   -4.6370 C.3       4 GLP5        0.0000 
     17 CA          9.1215   -3.1520   -0.7060 C.3       2 GLC5        0.0000 
     18 CA         13.6175   -1.3265   -2.7680 C.3       2 GLC5        0.0000 
     19 CA         12.3510   -0.7670   -1.1790 C.3       6 GLL5        0.0000 
     20 CA         14.8840   -1.8860   -4.3570 C.3       4 GLP5        0.0000 
     21 O          14.6745   -0.8535   -0.5395 O.2       1 ALC1        0.0000 
     22 O          13.9100   -0.2820    0.5850 O.2       5 ALL1        0.0000 
     23 O          15.4390   -1.4250   -1.6640 O.2       3 ALP1        0.0000 
     24 CA         14.3800    2.2725    2.4055 C.3       2 GLC5        0.0000 
     25 CA         14.2820    0.2420    1.8950 C.3       6 GLL5        0.0000 
     26 CA         14.4780    4.3030    2.9160 C.3       4 GLP5        0.0000 
     27 CA         12.9590   -0.6605    3.2670 C.3       2 GLC5        0.0000 
     28 CA         11.6360   -1.5630    4.6390 C.3       4 GLP5        0.0000 
     29 CA         14.8465    1.0175    0.1110 C.3       2 GLC5        0.0000 
     30 CA         15.4110    1.7930   -1.6730 C.3       4 GLP5        0.0000 
     31 CA         17.4110   -2.5400    5.5435 C.3       2 GLC5        0.0000 
     32 CA         15.6360   -2.8400    4.6190 C.3       6 GLL5        0.0000 
     33 CA         19.1860   -2.2400    6.4680 C.3       4 GLP5        0.0000 
     34 CA          5.5642   -4.0555   -2.4075 C.3       2 GLC5        0.0000 
     35 CA          5.4830   -3.5610   -0.5080 C.3       6 GLL5        0.0000 
     36 CA          5.9760   -5.1830   -4.0400 C.3       4 GLP5        0.0000 
     37 CA          8.7600    0.8672   -0.2062 C.3       2 GLC5        0.0000 
     38 CA          9.9770   -0.6380   -0.7700 C.3       6 GLL5        0.0000 
     39 CA          7.4180    2.1790   -0.3040 C.3       4 GLP5        0.0000 
     40 CA         11.0522    1.2115   -1.2468 C.3       2 GLC5        0.0000 
     41 CA         11.5940    3.1860   -1.2870 C.3       4 GLP5        0.0000 
     42 CA         12.0385    1.3020   -0.8993 C.3       2 GLC5        0.0000 
     43 CA         13.9470    0.6055   -1.0923 C.3       2 GLC5        0.0000 
     44 CA         12.6150   -0.3970    0.1560 C.3       6 GLL5        0.0000 
     45 CA         12.7086   -2.5171   -0.8053 C.3       2 GLC5        0.0000 
     46 CA         13.2610   -4.4220   -0.9830 C.3       4 GLP5        0.0000 
     47 CA         11.2382    1.4955   -0.2537 C.3       2 GLC5        0.0000 
     48 CA         11.5380   -0.1390    1.0060 C.3       6 GLL5        0.0000 
     49 CA         17.0195   -0.5350    5.0170 C.3       2 GLC5        0.0000 
     50 CA         15.1470   -0.5440    4.1590 C.3       6 GLL5        0.0000 
     51 CA         18.6760   -0.0340    5.4350 C.3       4 GLP5        0.0000 
     52 CA         16.1003    1.0629    2.8704 C.3       2 GLC5        0.0000 
     53 CA         17.3670    2.5530    2.4740 C.3       4 GLP5        0.0000 
     54 CA         13.8384   -0.2819    5.0359 C.3       2 GLC5        0.0000 
     55 CA         14.7580   -0.8630    2.8540 C.3       6 GLL5        0.0000 
     56 CA         12.4110    0.5520    5.7990 C.3       4 GLP5        0.0000 
     57 CA         16.6845   -2.6250    1.6630 C.3       2 GLC5        0.0000 
     58 CA         15.2540   -3.1770    3.3250 C.3       6 GLL5        0.0000 
     59 CA         18.3300   -2.5610    0.4440 C.3       4 GLP5        0.0000 
     60 CA         14.7055   -3.7520    1.4375 C.3       2 GLC5        0.0000 
     61 CA         14.8240   -2.2010    2.4390 C.3       6 GLL5        0.0000 
     62 CA         14.3720   -4.8150   -0.0070 C.3       4 GLP5        0.0000 
     63 CA         14.0759   -3.7443    4.9675 C.3       2 GLC5        0.0000 
     64 CA         12.7210   -4.8080    5.8580 C.3       4 GLP5        0.0000 
@<TRIPOS>BOND
@<TRIPOS>SUBSTRUCTURE
     1 ALC1       21 GROUP        1 X    ALC  0     ROOT ALC X 1
     2 GLC5        1 GROUP        1 X    GLC  0     **** GLC X 6
     3 ALP1       23 GROUP        1 Y    ALP  0     ROOT ALP Y 8
     4 GLP5        3 GROUP        1 Y    GLP  0     **** GLP Y 13
     5 ALL1       22 GROUP        1 Z    ALL  0     ROOT ALL Z 15
     6 GLL5        2 GROUP        1 Z    GLL  0     **** GLL Z 20
@<TRIPOS>SET

