#    Name: 3fui_812_1_ligand
#    Modification time : Tue Mar 25 06:30:33 2014

@<TRIPOS>MOLECULE
3fui_812_1_ligand
   42    44     1     0     0
SMALL
NO_CHARGES


@<TRIPOS>ATOM
      1 C1S         4.8220   -2.2950   -1.0420 C.3       1 812710      0.0000 
      2 N1T         5.7930   -1.6680   -1.9290 N.4       1 812710      0.0000 
      3 C1R         5.4830   -3.5610   -0.5080 C.3       1 812710      0.0000 
      4 C1Q         6.9640   -3.3400   -0.7850 C.3       1 812710      0.0000 
      5 C1P         6.9990   -2.4690   -2.0290 C.3       1 812710      0.0000 
      6 C1O         8.3120   -1.7020   -2.2240 C.3       1 812710      0.0000 
      7 O1N         8.6590   -0.7850   -1.1960 O.3       1 812710      0.0000 
      8 C1K         9.9770   -0.6380   -0.7700 C.ar      1 812710      0.0000 
      9 C1J        11.0440   -0.8880   -1.6430 C.ar      1 812710      0.0000 
     10 C1I        12.3510   -0.7670   -1.1790 C.ar      1 812710      0.0000 
     11 C1H        12.6150   -0.3970    0.1560 C.ar      1 812710      0.0000 
     12 C1M        11.5380   -0.1390    1.0060 C.ar      1 812710      0.0000 
     13 C1L        10.2270   -0.2510    0.5530 C.ar      1 812710      0.0000 
     14 N1         13.9100   -0.2820    0.5850 N.pl3     1 812710      0.0000 
     15 C1G        14.2820    0.2420    1.8950 C.3       1 812710      0.0000 
     16 C1C        14.7580   -0.8630    2.8540 C.ar      1 812710      0.0000 
     17 C1D        15.1470   -0.5440    4.1590 C.ar      1 812710      0.0000 
     18 C1E        15.5790   -1.5280    5.0390 C.ar      1 812710      0.0000 
     19 C1F        15.6360   -2.8400    4.6190 C.ar      1 812710      0.0000 
     20 C1A        15.2540   -3.1770    3.3250 C.ar      1 812710      0.0000 
     21 C1B        14.8240   -2.2010    2.4390 C.ar      1 812710      0.0000 
     22 H           3.9254   -2.5730   -1.5742 H         1 812710      0.0000 
     23 H           4.5806   -1.6546   -0.2078 H         1 812710      0.0000 
     24 H           5.1361   -4.4042   -1.0505 H         1 812710      0.0000 
     25 H           5.3189   -3.6390    0.5373 H         1 812710      0.0000 
     26 H           7.4366   -4.2743   -0.9830 H         1 812710      0.0000 
     27 H           7.4099   -2.8225    0.0328 H         1 812710      0.0000 
     28 H           6.8745   -3.1693   -2.8850 H         1 812710      0.0000 
     29 H           8.2417   -1.1870   -3.2205 H         1 812710      0.0000 
     30 H           9.1182   -2.4713   -2.3707 H         1 812710      0.0000 
     31 H          10.8601   -1.1569   -2.6122 H         1 812710      0.0000 
     32 H          13.1428   -0.9488   -1.8144 H         1 812710      0.0000 
     33 H          11.7189    0.1389    1.9850 H         1 812710      0.0000 
     34 H           9.4429   -0.0516    1.1829 H         1 812710      0.0000 
     35 H          14.7022   -0.5758   -0.0328 H         1 812710      0.0000 
     36 H          13.4295    0.7544    2.3700 H         1 812710      0.0000 
     37 H          15.0939    0.9821    1.8063 H         1 812710      0.0000 
     38 H          15.1109    0.4422    4.4700 H         1 812710      0.0000 
     39 H          15.8535   -1.2749    5.9965 H         1 812710      0.0000 
     40 H          15.9621   -3.5774    5.2623 H         1 812710      0.0000 
     41 H          15.2916   -4.1643    3.0228 H         1 812710      0.0000 
     42 H          14.5534   -2.4496    1.4814 H         1 812710      0.0000 
@<TRIPOS>BOND
     1    2    1 1    
     2    3    1 1    
     3   22    1 1    
     4   23    1 1    
     5    5    2 1    
     6    4    3 1    
     7   24    3 1    
     8   25    3 1    
     9    5    4 1    
    10   26    4 1    
    11   27    4 1    
    12    6    5 1    
    13   28    5 1    
    14    7    6 1    
    15   29    6 1    
    16   30    6 1    
    17    8    7 1    
    18    9    8 ar   
    19   13    8 ar   
    20   10    9 ar   
    21   31    9 1    
    22   11   10 ar   
    23   32   10 1    
    24   12   11 ar   
    25   14   11 1    
    26   13   12 ar   
    27   33   12 1    
    28   34   13 1    
    29   15   14 1    
    30   35   14 1    
    31   16   15 1    
    32   36   15 1    
    33   37   15 1    
    34   17   16 ar   
    35   21   16 ar   
    36   18   17 ar   
    37   38   17 1    
    38   19   18 ar   
    39   39   18 1    
    40   20   19 ar   
    41   40   19 1    
    42   21   20 ar   
    43   41   20 1    
    44   42   21 1    
@<TRIPOS>SUBSTRUCTURE
     1 812710      1 GROUP   
@<TRIPOS>SET

