#    Name: 3qkl_SMR_1_INTS_M
#    Modification time : Mon Apr  7 19:37:25 2014

@<TRIPOS>MOLECULE
3qkl_SMR_1_INTS_M
   88     0    12     0     0
SMALL
NO_CHARGES


@<TRIPOS>ATOM
      1 CA         -4.9045   -1.2725   22.1160 C.3       4 GLC5        0.0000 
      2 CA         -5.6490   -1.9180   20.0990 C.3      12 GLL5        0.0000 
      3 CA         -4.1600   -0.6270   24.1330 C.3       8 GLP5        0.0000 
      4 CA         -3.7145   -1.4930   19.9290 C.3       4 GLC5        0.0000 
      5 CA         -1.7800   -1.0680   19.7590 C.3       8 GLP5        0.0000 
      6 CA         -6.4370   -1.5680   15.2025 C.3       4 GLC5        0.0000 
      7 CA         -4.8340   -1.9690   16.5330 C.3      12 GLL5        0.0000 
      8 CA         -8.0400   -1.1670   13.8720 C.3       8 GLP5        0.0000 
      9 CA         -7.1230   -5.5415   14.9355 C.3       4 GLC5        0.0000 
     10 CA         -6.1240   -4.1970   16.3720 C.3      12 GLL5        0.0000 
     11 CA         -8.1220   -6.8860   13.4990 C.3       8 GLP5        0.0000 
     12 CA         -4.7080   -5.0950   17.3615 C.3       4 GLC5        0.0000 
     13 CA         -3.2920   -5.9930   18.3510 C.3       8 GLP5        0.0000 
     14 CA         -5.9325   -6.1850   16.5370 C.3       4 GLC5        0.0000 
     15 CA         -5.7410   -8.1730   16.7020 C.3       8 GLP5        0.0000 
     16 CA         -0.5810   -0.8325   15.8775 C.3       4 GLC5        0.0000 
     17 CA         -2.5020   -1.6930   15.7320 C.3      12 GLL5        0.0000 
     18 CA          1.3400    0.0280   16.0230 C.3       8 GLP5        0.0000 
     19 O          -0.3610   -3.7020   14.1125 O.2       1 ALC1        0.0000 
     20 O          -1.5980   -3.8520   14.7850 O.2       9 ALL1        0.0000 
     21 O           0.8760   -3.5520   13.4400 O.2       5 ALP1        0.0000 
     22 N          -0.9570   -6.0610   14.6995 N.am      2 SEC2        0.0000 
     23 N          -2.1160   -5.1280   14.6240 N.am     10 SEL2        0.0000 
     24 N           0.2020   -6.9940   14.7750 N.am      6 SEP2        0.0000 
     25 O          -7.3345    2.6470   18.5700 O.2       1 ALC1        0.0000 
     26 O          -8.0240    1.8840   17.8270 O.2       9 ALL1        0.0000 
     27 O          -6.6450    3.4100   19.3130 O.2       5 ALP1        0.0000 
     28 CA        -12.6160    5.7610   18.1610 C.3       4 GLC5        0.0000 
     29 CA        -10.9560    4.8280   18.5770 C.3      12 GLL5        0.0000 
     30 CA        -14.2760    6.6940   17.7450 C.3       8 GLP5        0.0000 
     31 CA        -12.7280    2.3680   13.7490 C.3       4 GLC5        0.0000 
     32 CA        -11.3260    2.0280   15.2460 C.3      12 GLL5        0.0000 
     33 CA        -14.1300    2.7080   12.2520 C.3       8 GLP5        0.0000 
     34 CA         -9.4210    2.2365   14.2040 C.3       4 GLC5        0.0000 
     35 CA         -7.5160    2.4450   13.1620 C.3       8 GLP5        0.0000 
     36 CA        -10.9105    3.5510   14.2025 C.3       4 GLC5        0.0000 
     37 CA        -10.4950    5.0740   13.1590 C.3       8 GLP5        0.0000 
     38 CA         -9.2390    8.0400   15.1740 C.3       4 GLC5        0.0000 
     39 CA         -9.3030    8.8780   17.0950 C.3      12 GLL5        0.0000 
     40 CA         -9.1750    7.2020   13.2530 C.3       8 GLP5        0.0000 
     41 CA        -12.2695    7.5345   17.0635 C.3       4 GLC5        0.0000 
     42 CA        -10.3710    7.9320   17.6980 C.3      12 GLL5        0.0000 
     43 CA        -14.1680    7.1370   16.4290 C.3       8 GLP5        0.0000 
     44 N         -14.4870    4.0035   16.3025 N.am      2 SEC2        0.0000 
     45 N         -13.3110    3.3220   16.9940 N.am     10 SEL2        0.0000 
     46 N         -15.6630    4.6850   15.6110 N.am      6 SEP2        0.0000 
     47 OD1        -7.0905    1.5310   19.3155 O.co2     3 ASC3        0.0000 
     48 OD1        -7.5360   -0.3480   19.3180 O.co2    11 ASL3        0.0000 
     49 OD1        -6.6450    3.4100   19.3130 O.co2     7 ASP3        0.0000 
     50 OD1        -6.4185    0.6895   19.5185 O.co2     3 ASC3        0.0000 
     51 OD1        -5.3010    1.7270   19.7190 O.co2     7 ASP3        0.0000 
     52 O          -6.4185    0.6895   19.5185 O.2       1 ALC1        0.0000 
     53 O          -7.5360   -0.3480   19.3180 O.2       9 ALL1        0.0000 
     54 O          -5.3010    1.7270   19.7190 O.2       5 ALP1        0.0000 
     55 CA         -6.1405   -3.9965   20.8365 C.3       4 GLC5        0.0000 
     56 CA         -6.1470   -2.9440   19.0350 C.3      12 GLL5        0.0000 
     57 CA         -6.3830   -5.5620   22.1060 C.3       8 GLP5        0.0000 
     58 CA         -4.2775   -3.3870   19.1650 C.3       4 GLC5        0.0000 
     59 CA         -2.6570   -4.3430   18.7630 C.3       8 GLP5        0.0000 
     60 CA         -3.7535   -3.4988   17.5513 C.3       4 GLC5        0.0000 
     61 CA         -7.7205   -1.8726   15.6565 C.3       4 GLC5        0.0000 
     62 CA         -7.3510   -3.3450   16.8090 C.3      12 GLL5        0.0000 
     63 CA         -3.0805   -0.2157   14.7282 C.3       4 GLC5        0.0000 
     64 CA         -3.6760   -1.1620   16.3210 C.3      12 GLL5        0.0000 
     65 CA         -3.0720    0.9960   13.4300 C.3       8 GLP5        0.0000 
     66 CA         -2.8730   -2.8853   17.3948 C.3       4 GLC5        0.0000 
     67 CA         -2.4345   -1.2477   17.8927 C.3       4 GLC5        0.0000 
     68 CA         -3.0865   -3.6467   13.5970 C.3       4 GLC5        0.0000 
     69 CA         -2.5620   -3.0650   15.3660 C.3      12 GLL5        0.0000 
     70 CA         -3.0490   -3.8270   11.7320 C.3       8 GLP5        0.0000 
     71 CA         -2.8905   -3.9047   17.1125 C.3       4 GLC5        0.0000 
     72 CA         -5.6327   -3.3856   14.3377 C.3       4 GLC5        0.0000 
     73 CA         -3.6860   -3.8680   15.5580 C.3      12 GLL5        0.0000 
     74 CA         -6.6750   -2.9530   12.7670 C.3       8 GLP5        0.0000 
     75 CA        -13.8362    0.6800   16.8410 C.3       4 GLC5        0.0000 
     76 CA        -11.5710    0.7980   16.1050 C.3      12 GLL5        0.0000 
     77 CA        -15.8140    0.5120   16.9280 C.3       8 GLP5        0.0000 
     78 CA         -9.6717   -1.1040   14.9223 C.3       4 GLC5        0.0000 
     79 CA        -11.4040   -1.6210   16.3610 C.3      12 GLL5        0.0000 
     80 CA        -11.8063   -3.3258   16.1260 C.3       4 GLC5        0.0000 
     81 CA        -11.9220   -5.0730   15.2470 C.3       8 GLP5        0.0000 
     82 CA        -13.1161   -1.8507   15.8159 C.3       4 GLC5        0.0000 
     83 CA        -11.9770   -1.5360   17.6490 C.3      12 GLL5        0.0000 
     84 CA        -14.5920   -2.4130   14.8210 C.3       8 GLP5        0.0000 
     85 CA        -14.1830   -0.0373   17.8353 C.3       4 GLC5        0.0000 
     86 CA        -12.9430   -0.2650   19.5720 C.3      12 GLL5        0.0000 
     87 CA        -11.8438    0.2606   13.7471 C.3       4 GLC5        0.0000 
     88 CA        -12.3310   -0.5770   11.9490 C.3       8 GLP5        0.0000 
@<TRIPOS>BOND
@<TRIPOS>SUBSTRUCTURE
     1 ALC1       19 GROUP        1 X    ALC  0     ROOT ALC X 1
     2 SEC2       22 GROUP        1 X    SEC  0     **** SEC X 2
     3 ASC3       47 GROUP        1 X    ASC  0     **** ASC X 3
     4 GLC5        1 GROUP        1 X    GLC  0     **** GLC X 6
     5 ALP1       21 GROUP        1 Y    ALP  0     ROOT ALP Y 8
     6 SEP2       24 GROUP        1 Y    SEP  0     **** SEP Y 9
     7 ASP3       49 GROUP        1 Y    ASP  0     **** ASP Y 10
     8 GLP5        3 GROUP        1 Y    GLP  0     **** GLP Y 13
     9 ALL1       20 GROUP        1 Z    ALL  0     ROOT ALL Z 15
    10 SEL2       23 GROUP        1 Z    SEL  0     **** SEL Z 16
    11 ASL3       48 GROUP        1 Z    ASL  0     **** ASL Z 17
    12 GLL5        2 GROUP        1 Z    GLL  0     **** GLL Z 20
@<TRIPOS>SET

