#    Name: 3qkl_SMR_1_ligand
#    Modification time : Mon Apr  7 19:37:25 2014

@<TRIPOS>MOLECULE
3qkl_SMR_1_ligand
   80    84     1     0     0
SMALL
NO_CHARGES


@<TRIPOS>ATOM
      1 C1         -6.8730   -2.2620   17.8320 C.3       1 SMR1        0.0000 
      2 C2         -6.1470   -2.9440   19.0350 C.3       1 SMR1        0.0000 
      3 C3         -5.6490   -1.9180   20.0990 C.3       1 SMR1        0.0000 
      4 C4         -6.8070   -0.9570   20.4900 C.3       1 SMR1        0.0000 
      5 C5         -8.0290   -1.3610   18.3140 C.3       1 SMR1        0.0000 
      6 O6         -5.9520   -1.3970   17.1260 O.3       1 SMR1        0.0000 
      7 C7         -4.8340   -1.9690   16.5330 C.ar      1 SMR1        0.0000 
      8 C8         -4.8660   -3.3400   16.1460 C.ar      1 SMR1        0.0000 
      9 C9         -6.1240   -4.1970   16.3720 C.3       1 SMR1        0.0000 
     10 C10        -7.3510   -3.3450   16.8090 C.3       1 SMR1        0.0000 
     11 C11        -3.6760   -1.1620   16.3210 C.ar      1 SMR1        0.0000 
     12 C12        -2.5020   -1.6930   15.7320 C.ar      1 SMR1        0.0000 
     13 C13        -2.5620   -3.0650   15.3660 C.ar      1 SMR1        0.0000 
     14 C14        -3.6860   -3.8680   15.5580 C.ar      1 SMR1        0.0000 
     15 N15        -1.5980   -3.8520   14.7850 N.pl3     1 SMR1        0.0000 
     16 N16        -2.1160   -5.1280   14.6240 N.2       1 SMR1        0.0000 
     17 C17        -3.3720   -5.1780   15.0690 C.2       1 SMR1        0.0000 
     18 C18        -8.6080    0.5890   19.7720 C.3       1 SMR1        0.0000 
     19 C19        -9.1600    1.4730   18.6220 C.3       1 SMR1        0.0000 
     20 C20        -9.9630    2.6730   19.2040 C.3       1 SMR1        0.0000 
     21 O21        -8.0240    1.8840   17.8270 O.3       1 SMR1        0.0000 
     22 N22       -10.9950    3.3480   18.3300 N.pl3     1 SMR1        0.0000 
     23 C23       -10.9560    4.8280   18.5770 C.3       1 SMR1        0.0000 
     24 C24        -9.7970    5.5800   17.8760 C.3       1 SMR1        0.0000 
     25 C25       -12.1460    0.8980   17.4030 C.ar      1 SMR1        0.0000 
     26 C26       -11.5710    0.7980   16.1050 C.ar      1 SMR1        0.0000 
     27 C27       -11.2030   -0.4610   15.5840 C.ar      1 SMR1        0.0000 
     28 C28       -11.4040   -1.6210   16.3610 C.ar      1 SMR1        0.0000 
     29 C29       -11.9770   -1.5360   17.6490 C.ar      1 SMR1        0.0000 
     30 C30       -12.3450   -0.2800   18.1770 C.ar      1 SMR1        0.0000 
     31 C31       -12.9430   -0.2650   19.5720 C.3       1 SMR1        0.0000 
     32 C32       -11.3260    2.0280   15.2460 C.3       1 SMR1        0.0000 
     33 O33       -10.3090    6.6490   17.0650 O.3       1 SMR1        0.0000 
     34 C34        -9.3030    8.8780   17.0950 C.3       1 SMR1        0.0000 
     35 C35       -10.3710    7.9320   17.6980 C.3       1 SMR1        0.0000 
     36 S36       -12.5860    2.5750   18.0320 S.o2      1 SMR1        0.0000 
     37 O37       -13.2550    2.5020   19.3480 O.2       1 SMR1        0.0000 
     38 O38       -13.3110    3.3220   16.9940 O.2       1 SMR1        0.0000 
     39 N39        -7.5360   -0.3480   19.3180 N.4       1 SMR1        0.0000 
     40 H          -5.2911   -3.5029   18.6570 H         1 SMR1        0.0000 
     41 H          -6.8369   -3.6396   19.5124 H         1 SMR1        0.0000 
     42 H          -4.8376   -1.3440   19.6807 H         1 SMR1        0.0000 
     43 H          -5.3204   -2.4528   20.9758 H         1 SMR1        0.0000 
     44 H          -6.3855   -0.1571   21.1233 H         1 SMR1        0.0000 
     45 H          -7.5179   -1.5201   21.1195 H         1 SMR1        0.0000 
     46 H          -8.7946   -1.9901   18.7660 H         1 SMR1        0.0000 
     47 H          -8.4556   -0.8517   17.4510 H         1 SMR1        0.0000 
     48 H          -5.9211   -4.9380   17.1468 H         1 SMR1        0.0000 
     49 H          -6.3748   -4.7200   15.4478 H         1 SMR1        0.0000 
     50 H          -7.7672   -2.8549   15.9501 H         1 SMR1        0.0000 
     51 H          -8.0733   -3.9801   17.2844 H         1 SMR1        0.0000 
     52 H          -3.6988   -0.1735   16.6037 H         1 SMR1        0.0000 
     53 H          -1.6919   -1.1461   15.5841 H         1 SMR1        0.0000 
     54 H          -0.7213   -3.5757   14.5329 H         1 SMR1        0.0000 
     55 H          -3.9790   -5.8982   15.0852 H         1 SMR1        0.0000 
     56 H          -9.4487    0.0259   20.1994 H         1 SMR1        0.0000 
     57 H          -8.2232    1.2551   20.5561 H         1 SMR1        0.0000 
     58 H          -9.8339    0.8574   18.0469 H         1 SMR1        0.0000 
     59 H          -9.2181    3.4381   19.5512 H         1 SMR1        0.0000 
     60 H         -10.4558    2.3198   20.1491 H         1 SMR1        0.0000 
     61 H         -10.8794    5.0241   19.6648 H         1 SMR1        0.0000 
     62 H         -11.9084    5.2879   18.2465 H         1 SMR1        0.0000 
     63 H          -9.2447    4.8445   17.2798 H         1 SMR1        0.0000 
     64 H          -9.1261    5.9488   18.6605 H         1 SMR1        0.0000 
     65 H         -10.7952   -0.5311   14.6536 H         1 SMR1        0.0000 
     66 H         -11.1311   -2.5370   15.9870 H         1 SMR1        0.0000 
     67 H         -12.1250   -2.3843   18.1984 H         1 SMR1        0.0000 
     68 H         -10.1778    7.8676   18.7744 H         1 SMR1        0.0000 
     69 H         -11.3461    8.4113   17.5581 H         1 SMR1        0.0000 
     70 H          -6.7712    0.2907   18.7750 H         1 SMR1        0.0000 
     71 H         -13.0041   -1.1847   19.9598 H         1 SMR1        0.0000 
     72 H         -12.3966    0.2840   20.2044 H         1 SMR1        0.0000 
     73 H         -13.8673    0.1167   19.5758 H         1 SMR1        0.0000 
     74 H         -10.7043    2.6733   15.6900 H         1 SMR1        0.0000 
     75 H         -10.9201    1.7899   14.3636 H         1 SMR1        0.0000 
     76 H         -12.1740    2.5223   15.0548 H         1 SMR1        0.0000 
     77 H          -8.3778    8.5182   17.2153 H         1 SMR1        0.0000 
     78 H          -9.4392    9.0144   16.1137 H         1 SMR1        0.0000 
     79 H          -9.3238    9.7819   17.5222 H         1 SMR1        0.0000 
     80 H          -7.7752    2.7865   18.1785 H         1 SMR1        0.0000 
@<TRIPOS>BOND
     1    2    1 1    
     2    5    1 1    
     3    6    1 1    
     4   10    1 1    
     5    3    2 1    
     6   40    2 1    
     7   41    2 1    
     8    4    3 1    
     9   42    3 1    
    10   43    3 1    
    11   39    4 1    
    12   44    4 1    
    13   45    4 1    
    14   39    5 1    
    15   46    5 1    
    16   47    5 1    
    17    7    6 1    
    18    8    7 ar   
    19   11    7 ar   
    20    9    8 1    
    21   14    8 ar   
    22   10    9 1    
    23   48    9 1    
    24   49    9 1    
    25   50   10 1    
    26   51   10 1    
    27   12   11 ar   
    28   52   11 1    
    29   13   12 ar   
    30   53   12 1    
    31   14   13 ar   
    32   15   13 1    
    33   17   14 1    
    34   16   15 1    
    35   54   15 1    
    36   17   16 2    
    37   55   17 1    
    38   19   18 1    
    39   39   18 1    
    40   56   18 1    
    41   57   18 1    
    42   20   19 1    
    43   21   19 1    
    44   58   19 1    
    45   22   20 1    
    46   59   20 1    
    47   60   20 1    
    48   80   21 1    
    49   23   22 1    
    50   36   22 1    
    51   24   23 1    
    52   61   23 1    
    53   62   23 1    
    54   33   24 1    
    55   63   24 1    
    56   64   24 1    
    57   26   25 ar   
    58   30   25 ar   
    59   36   25 1    
    60   27   26 ar   
    61   32   26 1    
    62   28   27 ar   
    63   65   27 1    
    64   29   28 ar   
    65   66   28 1    
    66   30   29 ar   
    67   67   29 1    
    68   31   30 1    
    69   71   31 1    
    70   72   31 1    
    71   73   31 1    
    72   74   32 1    
    73   75   32 1    
    74   76   32 1    
    75   35   33 1    
    76   35   34 1    
    77   77   34 1    
    78   78   34 1    
    79   79   34 1    
    80   68   35 1    
    81   69   35 1    
    82   37   36 2    
    83   38   36 2    
    84   70   39 1    
@<TRIPOS>SUBSTRUCTURE
     1 SMR1        1 GROUP   
@<TRIPOS>SET

