#    Name: 2PDF_1_CAVITY_N1_ALL.mol2
#    Modification time : Tue Mar 11 05:07:11 2014

@<TRIPOS>MOLECULE
2PDF_1_CAVITY_N1_ALL.mol2
  105     0     5     0     0
SMALL
NO_CHARGES


@<TRIPOS>ATOM
      1 OG          9.2747  -17.7502    0.7430 O.2       1 SER1        0.0000 
      2 OG          8.6106  -18.2120   -1.2181 O.2       1 SER1        0.0000 
      3 CZ          9.4139  -15.8913    2.5528 C.ar      3 PHE5        0.0000 
      4 OG          8.7498  -16.3532    0.5917 O.2       1 SER1        0.0000 
      5 OG          7.4813  -16.8937    0.0012 O.2       1 SER1        0.0000 
      6 CA          8.0858  -16.8150   -1.3694 C.3       4 GLY6        0.0000 
      7 CA          8.6903  -16.7363   -2.7399 C.3       4 GLY6        0.0000 
      8 CA          9.2948  -16.6577   -4.1105 C.3       4 GLY6        0.0000 
      9 CZ         10.1576  -13.9538    2.9920 C.ar      3 PHE5        0.0000 
     10 CZ          8.8890  -14.4943    2.4015 C.ar      3 PHE5        0.0000 
     11 DU          9.4935  -14.4156    1.0309 H         5 CUB7        0.0000 
     12 CZ          8.2250  -14.9561    0.4404 C.ar      3 PHE5        0.0000 
     13 CA          8.8295  -14.8775   -0.9301 C.3       4 GLY6        0.0000 
     14 CZ          9.4340  -14.7988   -2.3007 C.ar      3 PHE5        0.0000 
     15 CZ         10.0385  -14.7201   -3.6712 C.ar      3 PHE5        0.0000 
     16 CZ          6.3520  -15.5753    1.2204 C.ar      3 PHE5        0.0000 
     17 CA          6.9565  -15.4966   -0.1501 C.3       4 GLY6        0.0000 
     18 CA          8.7700  -15.2606   -4.2618 C.3       4 GLY6        0.0000 
     19 CZ         10.3563  -11.7118    8.1334 C.ar      3 PHE5        0.0000 
     20 CZ         10.9013  -12.0163    3.4312 C.ar      3 PHE5        0.0000 
     21 DU         11.5057  -11.9376    2.0607 H         5 CUB7        0.0000 
     22 CZ          9.6327  -12.5568    2.8407 C.ar      3 PHE5        0.0000 
     23 CZ         10.2372  -12.4781    1.4701 C.ar      3 PHE5        0.0000 
     24 CZ          8.9687  -13.0186    0.8796 C.ar      3 PHE5        0.0000 
     25 CZ          7.7002  -13.5591    0.2891 C.ar      3 PHE5        0.0000 
     26 CZ          8.3047  -13.4804   -1.0814 C.ar      3 PHE5        0.0000 
     27 CZ          8.9092  -13.4018   -2.4520 C.ar      3 PHE5        0.0000 
     28 CZ          5.8272  -14.1783    1.0691 C.ar      3 PHE5        0.0000 
     29 CA          6.4317  -14.0996   -0.3014 C.3       4 GLY6        0.0000 
     30 CA          7.0362  -14.0210   -1.6720 C.3       4 GLY6        0.0000 
     31 CA          7.6407  -13.9423   -3.0425 C.3       4 GLY6        0.0000 
     32 CZ          8.2451  -13.8636   -4.4130 C.ar      3 PHE5        0.0000 
     33 CZ          3.9542  -14.7975    1.8492 C.ar      3 PHE5        0.0000 
     34 CA          4.5587  -14.7188    0.4786 C.3       4 GLY6        0.0000 
     35 O          11.7045   -9.6956    7.2020 O.2       2 ALA2        0.0000 
     36 CZ          9.8315  -10.3147    7.9821 C.ar      3 PHE5        0.0000 
     37 N          10.4360  -10.2361    6.6115 N.2       2 ALA2        0.0000 
     38 DU         11.0405  -10.1574    5.2410 H         5 CUB7        0.0000 
     39 DU         11.6449  -10.0787    3.8704 H         5 CUB7        0.0000 
     40 CA         12.2494  -10.0001    2.4999 C.3       4 GLY6        0.0000 
     41 CZ          9.1674  -10.7766    6.0210 C.ar      3 PHE5        0.0000 
     42 CZ          9.7719  -10.6979    4.6505 C.ar      3 PHE5        0.0000 
     43 DU         10.3764  -10.6192    3.2799 H         5 CUB7        0.0000 
     44 CZ         10.9809  -10.5406    1.9094 C.ar      3 PHE5        0.0000 
     45 CA         11.5854  -10.4619    0.5388 C.3       4 GLY6        0.0000 
     46 CZ          9.1079  -11.1597    2.6894 C.ar      3 PHE5        0.0000 
     47 CZ          9.7124  -11.0811    1.3189 C.ar      3 PHE5        0.0000 
     48 CZ          7.8394  -11.7003    2.0989 C.ar      3 PHE5        0.0000 
     49 CZ          8.4439  -11.6216    0.7283 C.ar      3 PHE5        0.0000 
     50 CZ          6.5709  -12.2408    1.5084 C.ar      3 PHE5        0.0000 
     51 CZ          7.1754  -12.1621    0.1378 C.ar      3 PHE5        0.0000 
     52 CZ          7.7799  -12.0834   -1.2327 C.ar      3 PHE5        0.0000 
     53 CZ          4.6979  -12.8599    2.2884 C.ar      3 PHE5        0.0000 
     54 CZ          5.3023  -12.7813    0.9178 C.ar      3 PHE5        0.0000 
     55 CA          5.9068  -12.7026   -0.4527 C.3       4 GLY6        0.0000 
     56 CA          6.5113  -12.6239   -1.8232 C.3       4 GLY6        0.0000 
     57 CZ          7.1158  -12.5453   -3.1938 C.ar      3 PHE5        0.0000 
     58 CZ          3.4293  -13.4004    1.6979 C.ar      3 PHE5        0.0000 
     59 CA          4.0338  -13.3218    0.3273 C.3       4 GLY6        0.0000 
     60 CA          4.6383  -13.2431   -1.0432 C.3       4 GLY6        0.0000 
     61 CZ          2.1608  -13.9409    1.1074 C.ar      3 PHE5        0.0000 
     62 CA          2.7653  -13.8623   -0.2632 C.3       4 GLY6        0.0000 
     63 N          10.5156   -8.7604    5.0897 N.2       2 ALA2        0.0000 
     64 O          11.1201   -8.6817    3.7191 O.2       2 ALA2        0.0000 
     65 CA          8.6426   -9.3796    5.8697 C.3       4 GLY6        0.0000 
     66 N           9.2471   -9.3009    4.4992 N.2       2 ALA2        0.0000 
     67 O           9.8516   -9.2222    3.1286 O.2       2 ALA2        0.0000 
     68 O          10.4561   -9.1436    1.7581 O.2       2 ALA2        0.0000 
     69 CZ          7.9786   -9.8414    3.9087 C.ar      3 PHE5        0.0000 
     70 O           8.5831   -9.7627    2.5381 O.2       2 ALA2        0.0000 
     71 CZ          9.1876   -9.6841    1.1676 C.ar      3 PHE5        0.0000 
     72 CZ          6.7101  -10.3819    3.3181 C.ar      3 PHE5        0.0000 
     73 CZ          7.3146  -10.3032    1.9476 C.ar      3 PHE5        0.0000 
     74 CZ          7.9191  -10.2246    0.5770 C.ar      3 PHE5        0.0000 
     75 CZ          5.4415  -10.9224    2.7276 C.ar      3 PHE5        0.0000 
     76 CZ          6.0460  -10.8437    1.3571 C.ar      3 PHE5        0.0000 
     77 CZ          6.6505  -10.7651   -0.0135 C.ar      3 PHE5        0.0000 
     78 CZ          4.1730  -11.4629    2.1371 C.ar      3 PHE5        0.0000 
     79 CZ          4.7775  -11.3842    0.7666 C.ar      3 PHE5        0.0000 
     80 CZ          5.3820  -11.3056   -0.6040 C.ar      3 PHE5        0.0000 
     81 CA          5.9865  -11.2269   -1.9745 C.3       4 GLY6        0.0000 
     82 CZ          3.5090  -11.9247    0.1760 C.ar      3 PHE5        0.0000 
     83 CZ          4.1135  -11.8461   -1.1945 C.ar      3 PHE5        0.0000 
     84 CA          4.7180  -11.7674   -2.5651 C.3       4 GLY6        0.0000 
     85 N           9.9908   -7.3634    4.9384 N.2       2 ALA2        0.0000 
     86 O           8.7223   -7.9039    4.3479 O.2       2 ALA2        0.0000 
     87 CA          7.4538   -8.4444    3.7574 C.3       4 GLY6        0.0000 
     88 O           8.0583   -8.3657    2.3868 O.2       2 ALA2        0.0000 
     89 CA          6.1852   -8.9849    3.1668 C.3       4 GLY6        0.0000 
     90 DU          6.7897   -8.9062    1.7963 H         5 CUB7        0.0000 
     91 CZ          7.3942   -8.8275    0.4257 C.ar      3 PHE5        0.0000 
     92 CZ          4.9167   -9.5254    2.5763 C.ar      3 PHE5        0.0000 
     93 O           5.5212   -9.4467    1.2058 O.2       2 ALA2        0.0000 
     94 CA          6.1257   -9.3681   -0.1648 C.3       4 GLY6        0.0000 
     95 CZ          4.2527   -9.9872    0.6153 C.ar      3 PHE5        0.0000 
     96 CZ          4.8572   -9.9086   -0.7553 C.ar      3 PHE5        0.0000 
     97 CZ          6.9289   -7.0474    3.6061 C.ar      3 PHE5        0.0000 
     98 O           7.5334   -6.9687    2.2355 O.2       2 ALA2        0.0000 
     99 CZ          5.6604   -7.5879    3.0155 C.ar      3 PHE5        0.0000 
    100 CZ          6.2649   -7.5092    1.6450 C.ar      3 PHE5        0.0000 
    101 CZ          6.8694   -7.4305    0.2745 C.ar      3 PHE5        0.0000 
    102 N           4.3919   -8.1284    2.4250 N.2       2 ALA2        0.0000 
    103 O           4.9964   -8.0497    1.0545 O.2       2 ALA2        0.0000 
    104 CA          5.6009   -7.9710   -0.3161 C.3       4 GLY6        0.0000 
    105 OG          5.7401   -6.1122    1.4937 O.2       1 SER1        0.0000 
@<TRIPOS>BOND
@<TRIPOS>SUBSTRUCTURE
     1 SER1        1 GROUP   
     2 ALA2       35 GROUP   
     3 PHE5        3 GROUP   
     4 GLY6        6 GROUP   
     5 CUB7       11 GROUP   
@<TRIPOS>SET

