#    Name: 2pdf_ZST_1_INTS_M
#    Modification time : Mon Mar 24 18:49:42 2014

@<TRIPOS>MOLECULE
2pdf_ZST_1_INTS_M
   64     0     6     0     0
SMALL
NO_CHARGES


@<TRIPOS>ATOM
      1 CA          7.8820   -9.6975    5.7110 C.3       2 GLC5        0.0000 
      2 CA          9.2390   -9.8760    4.0900 C.3       6 GLL5        0.0000 
      3 CA          6.5250   -9.5190    7.3320 C.3       4 GLP5        0.0000 
      4 CA          8.0075  -11.0495   -1.7790 C.3       2 GLC5        0.0000 
      5 CA          6.5840  -11.6170   -1.1710 C.3       6 GLL5        0.0000 
      6 CA          9.4310  -10.4820   -2.3870 C.3       4 GLP5        0.0000 
      7 CA          6.0455  -10.0720   -2.2845 C.3       2 GLC5        0.0000 
      8 CA          5.5070   -8.5270   -3.3980 C.3       4 GLP5        0.0000 
      9 CA          3.1325  -14.4975   -2.3080 C.3       2 GLC5        0.0000 
     10 CA          2.0580  -13.9430   -1.1430 C.3       6 GLL5        0.0000 
     11 CA          4.2070  -15.0520   -3.4730 C.3       4 GLP5        0.0000 
     12 CA          7.6375   -6.2410    0.5300 C.3       2 GLC5        0.0000 
     13 CA          6.1910   -7.3300    0.6950 C.3       6 GLL5        0.0000 
     14 CA          9.0840   -5.1520    0.3650 C.3       4 GLP5        0.0000 
     15 CA          6.2100   -5.9930    2.3785 C.3       2 GLC5        0.0000 
     16 CA          6.2290   -4.6560    4.0620 C.3       4 GLP5        0.0000 
     17 CA          5.8490   -7.9285   -1.3515 C.3       2 GLC5        0.0000 
     18 CA          5.1070   -6.3610   -0.3440 C.3       2 GLC5        0.0000 
     19 CA          4.0230   -5.3920   -1.3830 C.3       4 GLP5        0.0000 
     20 N           3.0605   -8.9580    1.8090 N.am      1 SEC2        0.0000 
     21 N           4.3000   -8.1570    1.9410 N.am      5 SEL2        0.0000 
     22 N           1.8210   -9.7590    1.6770 N.am      3 SEP2        0.0000 
     23 N           4.5545   -4.8185    2.2010 N.am      1 SEC2        0.0000 
     24 N           4.4880   -6.0170    1.7510 N.am      5 SEL2        0.0000 
     25 N           4.6210   -3.6200    2.6510 N.am      3 SEP2        0.0000 
     26 N           3.4075   -6.2105    2.5735 N.am      1 SEC2        0.0000 
     27 N           2.3270   -6.4040    3.3960 N.am      3 SEP2        0.0000 
     28 CA         -2.8395  -13.1830    0.0170 C.3       2 GLC5        0.0000 
     29 CA         -1.3130  -14.4660   -0.4720 C.3       6 GLL5        0.0000 
     30 CA         -4.3660  -11.9000    0.5060 C.3       4 GLP5        0.0000 
     31 CA          0.0550  -12.9810   -2.0420 C.3       2 GLC5        0.0000 
     32 CA         -0.2760  -14.8110   -2.1590 C.3       6 GLL5        0.0000 
     33 CA          0.3860  -11.1510   -1.9250 C.3       4 GLP5        0.0000 
     34 CA         -0.2215  -16.0580   -3.2690 C.3       2 GLC5        0.0000 
     35 CA         -0.1670  -17.3050   -4.3790 C.3       4 GLP5        0.0000 
     36 CA         -0.3305  -13.6030   -3.8900 C.3       2 GLC5        0.0000 
     37 CA         -0.3850  -12.3950   -5.6210 C.3       4 GLP5        0.0000 
     38 CA          6.9752   -7.9070    4.9160 C.3       2 GLC5        0.0000 
     39 CA          7.9370   -8.1470    3.0250 C.3       6 GLL5        0.0000 
     40 CA          5.6160   -7.4600    6.2890 C.3       4 GLP5        0.0000 
     41 CA          4.0385  -14.4573   -1.1160 C.3       2 GLC5        0.0000 
     42 CA          3.2160  -13.0820    0.7890 C.3       6 GLL5        0.0000 
     43 CA          4.8770  -15.7300   -2.3260 C.3       4 GLP5        0.0000 
     44 CA          0.9290  -13.3972    3.3235 C.3       2 GLC5        0.0000 
     45 CA          1.1110  -14.1330    1.0790 C.3       6 GLL5        0.0000 
     46 CA          0.2100  -12.9760    5.2820 C.3       4 GLP5        0.0000 
     47 CA          0.1595  -12.7133    1.8835 C.3       2 GLC5        0.0000 
     48 CA          2.1850  -13.5040    1.6510 C.3       6 GLL5        0.0000 
     49 CA         -1.3290  -11.6080    2.4020 C.3       4 GLP5        0.0000 
     50 CA         -0.4862  -13.0615   -0.6920 C.3       2 GLC5        0.0000 
     51 CA         -0.1500  -15.0500   -0.8620 C.3       6 GLL5        0.0000 
     52 CA         -0.2410  -11.3650   -0.7170 C.3       4 GLP5        0.0000 
     53 CA         -0.6727  -16.7405   -2.1680 C.3       2 GLC5        0.0000 
     54 CA         -0.1970  -16.3040   -0.6300 C.3       6 GLL5        0.0000 
     55 CA         -1.1720  -17.8040   -3.5900 C.3       4 GLP5        0.0000 
     56 CA         -1.7491  -16.0690    0.2993 C.3       2 GLC5        0.0000 
     57 CA         -3.0340  -16.6070    1.2470 C.3       4 GLP5        0.0000 
     58 CA          0.8221  -16.7990   -1.1812 C.3       2 GLC5        0.0000 
     59 CA          1.8690  -18.3540   -0.9100 C.3       4 GLP5        0.0000 
     60 CA         -1.9111  -15.0755   -2.1544 C.3       2 GLC5        0.0000 
     61 CA         -3.4520  -14.9800   -2.9050 C.3       4 GLP5        0.0000 
     62 CA          2.3382  -15.7676    0.3779 C.3       2 GLC5        0.0000 
     63 CA          1.0450  -14.3490   -0.2790 C.3       6 GLL5        0.0000 
     64 CA          2.9360  -17.6350    0.3610 C.3       4 GLP5        0.0000 
@<TRIPOS>BOND
@<TRIPOS>SUBSTRUCTURE
     1 SEC2       20 GROUP        1 X    SEC  0     ROOT SEC X 2
     2 GLC5        1 GROUP        1 X    GLC  0     **** GLC X 6
     3 SEP2       22 GROUP        1 Y    SEP  0     ROOT SEP Y 9
     4 GLP5        3 GROUP        1 Y    GLP  0     **** GLP Y 13
     5 SEL2       21 GROUP        1 Z    SEL  0     ROOT SEL Z 16
     6 GLL5        2 GROUP        1 Z    GLL  0     **** GLL Z 20
@<TRIPOS>SET

