#    Name: 2pdf_ZST_1_ligand
#    Modification time : Mon Mar 24 18:49:42 2014

@<TRIPOS>MOLECULE
2pdf_ZST_1_ligand
   40    43     1     0     0
SMALL
NO_CHARGES


@<TRIPOS>ATOM
      1 C1          7.8200  -11.2960    0.9790 C.2       1 ZST600      0.0000 
      2 O1          8.2290  -12.4560    0.9670 O.2       1 ZST600      0.0000 
      3 C2          8.1200  -10.3690    2.0190 C.ar      1 ZST600      0.0000 
      4 C3          7.6270   -9.0600    1.9850 C.ar      1 ZST600      0.0000 
      5 C4          6.7980   -8.7210    0.8650 C.2       1 ZST600      0.0000 
      6 C5          8.9430  -10.7910    3.0810 C.ar      1 ZST600      0.0000 
      7 C6          9.2390   -9.8760    4.0900 C.ar      1 ZST600      0.0000 
      8 C7          8.7320   -8.5610    4.0610 C.ar      1 ZST600      0.0000 
      9 C8          7.9370   -8.1470    3.0250 C.ar      1 ZST600      0.0000 
     10 N1          7.0060  -10.8030   -0.0210 N.am      1 ZST600      0.0000 
     11 N2          6.5040   -9.5330   -0.0800 N.2       1 ZST600      0.0000 
     12 C9          6.5840  -11.6170   -1.1710 C.3       1 ZST600      0.0000 
     13 C10         5.2220  -12.2350   -0.6000 C.2       1 ZST600      0.0000 
     14 C11         3.2160  -13.0820    0.7890 C.ar      1 ZST600      0.0000 
     15 C12         3.1840  -13.2870   -0.6010 C.ar      1 ZST600      0.0000 
     16 C13         2.1850  -13.5040    1.6510 C.ar      1 ZST600      0.0000 
     17 C14         1.1110  -14.1330    1.0790 C.ar      1 ZST600      0.0000 
     18 C15         1.0450  -14.3490   -0.2790 C.ar      1 ZST600      0.0000 
     19 C16         2.0580  -13.9430   -1.1430 C.ar      1 ZST600      0.0000 
     20 N3          4.2990  -12.8100   -1.3110 N.2       1 ZST600      0.0000 
     21 S1          4.7080  -12.2700    1.0970 S.3       1 ZST600      0.0000 
     22 C17         6.1910   -7.3300    0.6950 C.3       1 ZST600      0.0000 
     23 C18         4.9380   -7.1650    1.4840 C.2       1 ZST600      0.0000 
     24 O2          4.3000   -8.1570    1.9410 O.co2     1 ZST600      0.0000 
     25 O3          4.4880   -6.0170    1.7510 O.co2     1 ZST600      0.0000 
     26 C19        -0.1500  -15.0500   -0.8620 C.3       1 ZST600      0.0000 
     27 F1         -1.3130  -14.4660   -0.4720 F         1 ZST600      0.0000 
     28 F2         -0.1970  -16.3040   -0.6300 F         1 ZST600      0.0000 
     29 F3         -0.2760  -14.8110   -2.1590 F         1 ZST600      0.0000 
     30 H           9.3068  -11.7356    3.1049 H         1 ZST600      0.0000 
     31 H           9.8430  -10.1614    4.8799 H         1 ZST600      0.0000 
     32 H           8.9712   -7.9198    4.8329 H         1 ZST600      0.0000 
     33 H           7.5618   -7.1981    2.9820 H         1 ZST600      0.0000 
     34 H           7.2332  -12.4173   -1.3560 H         1 ZST600      0.0000 
     35 H           6.3340  -11.0349   -2.0046 H         1 ZST600      0.0000 
     36 H           2.2521  -13.3413    2.6444 H         1 ZST600      0.0000 
     37 H           0.3238  -14.4568    1.6835 H         1 ZST600      0.0000 
     38 H           1.9967  -14.1107   -2.1415 H         1 ZST600      0.0000 
     39 H           5.9878   -7.1657   -0.3720 H         1 ZST600      0.0000 
     40 H           6.9339   -6.5841    1.0088 H         1 ZST600      0.0000 
@<TRIPOS>BOND
     1    2    1 2    
     2    3    1 1    
     3   10    1 am   
     4    4    3 ar   
     5    6    3 ar   
     6    5    4 1    
     7    9    4 ar   
     8   11    5 2    
     9   22    5 1    
    10    7    6 ar   
    11   30    6 1    
    12    8    7 ar   
    13   31    7 1    
    14    9    8 ar   
    15   32    8 1    
    16   33    9 1    
    17   11   10 1    
    18   12   10 1    
    19   13   12 1    
    20   34   12 1    
    21   35   12 1    
    22   20   13 2    
    23   21   13 1    
    24   15   14 ar   
    25   16   14 ar   
    26   21   14 1    
    27   19   15 ar   
    28   20   15 1    
    29   17   16 ar   
    30   36   16 1    
    31   18   17 ar   
    32   37   17 1    
    33   19   18 ar   
    34   26   18 1    
    35   38   19 1    
    36   23   22 1    
    37   39   22 1    
    38   40   22 1    
    39   24   23 ar   
    40   25   23 ar   
    41   27   26 1    
    42   28   26 1    
    43   29   26 1    
@<TRIPOS>SUBSTRUCTURE
     1 ZST600      1 GROUP   
@<TRIPOS>SET

