#    Name: 2GG8_1_CAVITY_N1_ALL.mol2
#    Modification time : Mon Mar 10 14:41:53 2014

@<TRIPOS>MOLECULE
2GG8_1_CAVITY_N1_ALL.mol2
   96     0     6     0     0
SMALL
NO_CHARGES


@<TRIPOS>ATOM
      1 CA         -9.3386   -2.0048    6.8957 C.3       5 GLY6        0.0000 
      2 CZ         -9.4820   -3.8329    7.9623 C.ar      4 PHE5        0.0000 
      3 CZ         -7.4502   -1.3202    6.2136 C.ar      4 PHE5        0.0000 
      4 CZ         -8.0127   -1.7319    7.5418 C.ar      4 PHE5        0.0000 
      5 OG         -6.4687   -2.3248    4.6239 O.2       1 SER1        0.0000 
      6 CZ         -7.0311   -2.7365    5.9521 C.ar      4 PHE5        0.0000 
      7 CZ         -7.5936   -3.1482    7.2803 C.ar      4 PHE5        0.0000 
      8 DU         -6.0496   -3.7411    4.3623 H         6 CUB7        0.0000 
      9 DU         -7.1746   -4.5645    7.0187 H         6 CUB7        0.0000 
     10 CZ         -7.1058   -0.0426    8.4495 C.ar      4 PHE5        0.0000 
     11 CZ         -7.6683   -0.4543    9.7777 C.ar      4 PHE5        0.0000 
     12 CZ         -6.1243   -1.0472    6.8597 C.ar      4 PHE5        0.0000 
     13 CZ         -6.6868   -1.4589    8.1879 C.ar      4 PHE5        0.0000 
     14 OG         -4.0178   -1.2285    2.6136 O.2       1 SER1        0.0000 
     15 OG         -4.5803   -1.6401    3.9418 O.2       1 SER1        0.0000 
     16 CZ         -5.1427   -2.0518    5.2700 C.ar      4 PHE5        0.0000 
     17 CZ         -5.7052   -2.4635    6.5982 C.ar      4 PHE5        0.0000 
     18 N          -6.2677   -2.8752    7.9264 N.2       2 ALA2        0.0000 
     19 DU         -4.1612   -3.0565    3.6802 H         6 CUB7        0.0000 
     20 DU         -4.7237   -3.4682    5.0084 H         6 CUB7        0.0000 
     21 DU         -5.2862   -3.8799    6.3366 H         6 CUB7        0.0000 
     22 N          -5.8487   -4.2916    7.6648 N.2       2 ALA2        0.0000 
     23 DU         -4.3047   -4.8845    4.7469 H         6 CUB7        0.0000 
     24 CZ         -4.8672   -5.2962    6.0751 C.ar      4 PHE5        0.0000 
     25 CZ         -5.4296   -5.7079    7.4033 C.ar      4 PHE5        0.0000 
     26 CZ         -6.1989    1.6467    9.3572 C.ar      4 PHE5        0.0000 
     27 CZ         -6.7614    1.2350   10.6854 C.ar      4 PHE5        0.0000 
     28 CZ         -5.2174    0.6421    7.7674 C.ar      4 PHE5        0.0000 
     29 CZ         -5.7799    0.2304    9.0956 C.ar      4 PHE5        0.0000 
     30 CZ         -6.3424   -0.1813   10.4238 C.ar      4 PHE5        0.0000 
     31 CZ         -6.9049   -0.5930   11.7520 C.ar      4 PHE5        0.0000 
     32 CZ         -4.2359   -0.3625    6.1777 C.ar      4 PHE5        0.0000 
     33 CZ         -4.7984   -0.7742    7.5059 C.ar      4 PHE5        0.0000 
     34 N          -5.3609   -1.1859    8.8341 N.2       2 ALA2        0.0000 
     35 N          -5.9233   -1.5976   10.1623 N.2       2 ALA2        0.0000 
     36 N          -3.2544   -1.3672    4.5879 N.2       2 ALA2        0.0000 
     37 N          -3.8168   -1.7789    5.9161 N.2       2 ALA2        0.0000 
     38 N          -4.3793   -2.1906    7.2443 N.2       2 ALA2        0.0000 
     39 N          -4.9418   -2.6023    8.5725 N.2       2 ALA2        0.0000 
     40 N          -2.8353   -2.7835    4.3264 N.2       2 ALA2        0.0000 
     41 DU         -3.3978   -3.1952    5.6546 H         6 CUB7        0.0000 
     42 N          -3.9603   -3.6069    6.9828 N.2       2 ALA2        0.0000 
     43 DU         -2.4163   -4.1998    4.0648 H         6 CUB7        0.0000 
     44 CZ         -2.9788   -4.6115    5.3930 C.ar      4 PHE5        0.0000 
     45 CZ         -3.5413   -5.0232    6.7212 C.ar      4 PHE5        0.0000 
     46 CZ         -2.5597   -6.0279    5.1315 C.ar      4 PHE5        0.0000 
     47 N          -1.5782   -7.0325    3.5417 N.2       2 ALA2        0.0000 
     48 CA         -4.8730    1.9197   10.0033 C.3       5 GLY6        0.0000 
     49 CA         -5.4355    1.5080   11.3315 C.3       5 GLY6        0.0000 
     50 CA         -5.9980    1.0963   12.6597 C.3       5 GLY6        0.0000 
     51 CZ         -3.8915    0.9151    8.4135 C.ar      4 PHE5        0.0000 
     52 DU         -4.4540    0.5034    9.7417 H         6 CUB7        0.0000 
     53 CA         -5.0165    0.0917   11.0699 C.3       5 GLY6        0.0000 
     54 CA         -5.5790   -0.3200   12.3981 C.3       5 GLY6        0.0000 
     55 N          -3.4725   -0.5013    8.1520 N.2       2 ALA2        0.0000 
     56 N          -4.0350   -0.9130    9.4802 N.2       2 ALA2        0.0000 
     57 N          -2.4909   -1.5059    6.5622 N.2       2 ALA2        0.0000 
     58 N          -3.0534   -1.9176    7.8904 N.2       2 ALA2        0.0000 
     59 N          -1.5094   -2.5106    4.9725 N.2       2 ALA2        0.0000 
     60 N          -2.0719   -2.9222    6.3007 N.2       2 ALA2        0.0000 
     61 N          -2.6344   -3.3339    7.6289 N.2       2 ALA2        0.0000 
     62 N          -1.0904   -3.9269    4.7109 N.2       2 ALA2        0.0000 
     63 CZ         -1.6529   -4.3386    6.0391 C.ar      4 PHE5        0.0000 
     64 O          -0.6713   -5.3432    4.4494 O.2       2 ALA2        0.0000 
     65 CZ         -1.2338   -5.7549    5.7776 C.ar      4 PHE5        0.0000 
     66 CA         -4.1096    1.7810   11.9776 C.3       5 GLY6        0.0000 
     67 CZ         -2.5656    1.1880    9.0597 C.ar      4 PHE5        0.0000 
     68 CA         -3.1281    0.7763   10.3879 C.3       5 GLY6        0.0000 
     69 CA         -3.6906    0.3646   11.7161 C.3       5 GLY6        0.0000 
     70 N          -1.5841    0.1834    7.4699 N.2       2 ALA2        0.0000 
     71 N          -2.1466   -0.2283    8.7981 N.2       2 ALA2        0.0000 
     72 N          -2.7090   -0.6400   10.1263 N.2       2 ALA2        0.0000 
     73 CA         -3.2715   -1.0517   11.4545 C.3       5 GLY6        0.0000 
     74 N          -1.1650   -1.2329    7.2083 N.2       2 ALA2        0.0000 
     75 N          -1.7275   -1.6446    8.5365 N.2       2 ALA2        0.0000 
     76 N          -0.1835   -2.2376    5.6186 N.2       2 ALA2        0.0000 
     77 N          -0.7460   -2.6493    6.9468 N.2       2 ALA2        0.0000 
     78 N          -1.3085   -3.0610    8.2750 N.2       2 ALA2        0.0000 
     79 N          -0.3270   -4.0656    6.6852 N.2       2 ALA2        0.0000 
     80 CZ         -0.8894   -4.4773    8.0134 C.ar      4 PHE5        0.0000 
     81 O           0.0921   -5.4819    6.4237 O.2       2 ALA2        0.0000 
     82 NZ         -1.8022    1.0493   11.0340 N.2       3 LYS4        0.0000 
     83 CA         -2.3647    0.6376   12.3622 C.3       5 GLY6        0.0000 
     84 N          -0.2582    0.4564    8.1160 N.2       2 ALA2        0.0000 
     85 NZ         -0.8207    0.0447    9.4442 N.2       3 LYS4        0.0000 
     86 NZ         -1.3831   -0.3670   10.7724 N.2       3 LYS4        0.0000 
     87 NZ         -1.9456   -0.7787   12.1006 N.2       3 LYS4        0.0000 
     88 NZ          0.1609   -0.9600    7.8545 N.2       3 LYS4        0.0000 
     89 NZ         -0.4016   -1.3717    9.1827 N.2       3 LYS4        0.0000 
     90 NZ         -0.9641   -1.7834   10.5109 N.2       3 LYS4        0.0000 
     91 CA         -1.5266   -2.1951   11.8391 C.3       5 GLY6        0.0000 
     92 NZ          0.5799   -2.3763    7.5929 N.2       3 LYS4        0.0000 
     93 NZ          0.0174   -2.7880    8.9211 N.2       3 LYS4        0.0000 
     94 CA         -0.5451   -3.1997   10.2493 C.3       5 GLY6        0.0000 
     95 N           0.9989   -3.7926    7.3314 N.2       2 ALA2        0.0000 
     96 CA          0.4365   -4.2043    8.6596 C.3       5 GLY6        0.0000 
@<TRIPOS>BOND
@<TRIPOS>SUBSTRUCTURE
     1 SER1        5 GROUP   
     2 ALA2       18 GROUP   
     3 LYS4       82 GROUP   
     4 PHE5        2 GROUP   
     5 GLY6        1 GROUP   
     6 CUB7        8 GROUP   
@<TRIPOS>SET

