#    Name: 2gg8_U15_1_INTS_M
#    Modification time : Tue Mar 25 14:23:43 2014

@<TRIPOS>MOLECULE
2gg8_U15_1_INTS_M
   59     0    12     0     0
SMALL
NO_CHARGES


@<TRIPOS>ATOM
      1 CA         -2.7370   -7.3900    6.5740 C.3       4 GLC5        0.0000 
      2 CA         -3.3390   -7.7360    4.9190 C.3      12 GLL5        0.0000 
      3 CA         -2.1350   -7.0440    8.2290 C.3       8 GLP5        0.0000 
      4 CA         -3.9915   -5.7510    7.1510 C.3       4 GLC5        0.0000 
      5 CA         -4.5550   -4.1400    5.7200 C.3      12 GLL5        0.0000 
      6 CA         -3.4280   -7.3620    8.5820 C.3       8 GLP5        0.0000 
      7 CA         -9.3820   -1.5325    6.4910 C.3       4 GLC5        0.0000 
      8 CA         -7.8660   -2.8200    7.1580 C.3      12 GLL5        0.0000 
      9 CA        -10.8980   -0.2450    5.8240 C.3       8 GLP5        0.0000 
     10 CA         -8.6335   -2.4770    8.8095 C.3       4 GLC5        0.0000 
     11 CA         -9.4010   -2.1340   10.4610 C.3       8 GLP5        0.0000 
     12 N          -3.3970   -3.7565    9.3520 N.am      2 SEC2        0.0000 
     13 N          -2.8700   -3.7810    8.0800 N.am     10 SEL2        0.0000 
     14 N          -3.9240   -3.7320   10.6240 N.am      6 SEP2        0.0000 
     15 CA         -1.0465   -1.2040    5.3125 C.3       4 GLC5        0.0000 
     16 CA         -1.3100   -2.5010    6.9140 C.3      12 GLL5        0.0000 
     17 CA         -0.7830    0.0930    3.7110 C.3       8 GLP5        0.0000 
     18 CA          0.0885   -5.4250    7.4010 C.3       4 GLC5        0.0000 
     19 CA         -0.1770   -3.4410    6.4710 C.3      12 GLL5        0.0000 
     20 CA          0.3540   -7.4090    8.3310 C.3       8 GLP5        0.0000 
     21 CA          1.1685   -1.9015    5.6280 C.3       4 GLC5        0.0000 
     22 CA          2.5140   -0.3620    4.7850 C.3       8 GLP5        0.0000 
     23 Zn          1.2610    0.2160    7.4800 Zn        3 ZIC7        0.0000 
     24 Zn          0.1560   -0.2580    7.2640 Zn       11 ZIL7        0.0000 
     25 Zn          2.3660    0.6900    7.6960 Zn        7 ZIP7        0.0000 
     26 N          -0.5475    0.0070    6.1240 N.am      2 SEC2        0.0000 
     27 N           0.1560   -0.2580    7.2640 N.am     10 SEL2        0.0000 
     28 N          -1.2510    0.2720    4.9840 N.am      6 SEP2        0.0000 
     29 Zn          1.9100    0.4060    8.5955 Zn        3 ZIC7        0.0000 
     30 Zn          1.4540    0.1220    9.4950 Zn       11 ZIL7        0.0000 
     31 Zn          1.6590    0.8760   10.1695 Zn        3 ZIC7        0.0000 
     32 Zn          1.8640    1.6300   10.8440 Zn        7 ZIP7        0.0000 
     33 O           2.1680   -0.8595    9.5655 O.2       1 ALC1        0.0000 
     34 O           1.4540    0.1220    9.4950 O.2       9 ALL1        0.0000 
     35 O           2.8820   -1.8410    9.6360 O.2       5 ALP1        0.0000 
     36 CA         -1.4115    2.5315    8.6160 C.3       4 GLC5        0.0000 
     37 CA         -0.7240    1.1260    9.5910 C.3      12 GLL5        0.0000 
     38 CA         -2.0990    3.9370    7.6410 C.3       8 GLP5        0.0000 
     39 Zn          0.7535    1.8705   10.7335 Zn        3 ZIC7        0.0000 
     40 Zn         -0.3570    2.1110   10.6230 Zn       11 ZIL7        0.0000 
     41 CA         -6.7080    0.9585    8.2915 C.3       4 GLC5        0.0000 
     42 CA         -6.4200   -0.0360   10.0530 C.3      12 GLL5        0.0000 
     43 CA         -6.9960    1.9530    6.5300 C.3       8 GLP5        0.0000 
     44 CA         -8.0620    0.9145   10.7520 C.3       4 GLC5        0.0000 
     45 CA         -9.7040    1.8650   11.4510 C.3       8 GLP5        0.0000 
     46 CA         -7.9105   -1.0850   10.2570 C.3       4 GLC5        0.0000 
     47 CA         -3.3930    2.6715   10.0100 C.3       4 GLC5        0.0000 
     48 CA         -3.0670    0.9870    8.6190 C.3      12 GLL5        0.0000 
     49 CA         -3.7190    4.3560   11.4010 C.3       8 GLP5        0.0000 
     50 CA         -6.3330   -0.3820    6.0777 C.3       4 GLC5        0.0000 
     51 CA         -6.0620   -1.2400    6.7200 C.3      12 GLL5        0.0000 
     52 CA         -6.3650    1.1830    5.5790 C.3       8 GLP5        0.0000 
     53 CA         -3.9050    0.3325   12.7213 C.3       4 GLC5        0.0000 
     54 CA         -2.7510    0.3990   10.9100 C.3      12 GLL5        0.0000 
     55 CA         -4.3740    0.4100   14.4800 C.3       8 GLP5        0.0000 
     56 CA         -3.5075    2.3616   11.0312 C.3       4 GLC5        0.0000 
     57 CA         -4.1210    0.1110   11.0150 C.3      12 GLL5        0.0000 
     58 CA         -4.1250   -1.5817   11.2024 C.3       4 GLC5        0.0000 
     59 CA         -4.0450   -3.4230   11.9590 C.3       8 GLP5        0.0000 
@<TRIPOS>BOND
@<TRIPOS>SUBSTRUCTURE
     1 ALC1       33 GROUP        1 X    ALC  0     ROOT ALC X 1
     2 SEC2       12 GROUP        1 X    SEC  0     **** SEC X 2
     3 ZIC7       23 GROUP        1 X    ZIC  0     **** ZIC X 5
     4 GLC5        1 GROUP        1 X    GLC  0     **** GLC X 6
     5 ALP1       35 GROUP        1 Y    ALP  0     ROOT ALP Y 8
     6 SEP2       14 GROUP        1 Y    SEP  0     **** SEP Y 9
     7 ZIP7       25 GROUP        1 Y    ZIP  0     **** ZIP Y 12
     8 GLP5        3 GROUP        1 Y    GLP  0     **** GLP Y 13
     9 ALL1       34 GROUP        1 Z    ALL  0     ROOT ALL Z 15
    10 SEL2       13 GROUP        1 Z    SEL  0     **** SEL Z 16
    11 ZIL7       24 GROUP        1 Z    ZIL  0     **** ZIL Z 19
    12 GLL5        2 GROUP        1 Z    GLL  0     **** GLL Z 20
@<TRIPOS>SET

