#    Name: 2gg8_U15_1_ligand
#    Modification time : Tue Mar 25 14:23:43 2014

@<TRIPOS>MOLECULE
2gg8_U15_1_ligand
   59    59     1     0     0
SMALL
NO_CHARGES


@<TRIPOS>ATOM
      1 O42        -5.1170   -6.4560    6.1520 O.2       1 U15501      0.0000 
      2 C41        -4.3440   -5.6440    5.6570 C.2       1 U15501      0.0000 
      3 O43        -3.2140   -6.3070    5.0140 O.3       1 U15501      0.0000 
      4 C44        -3.3390   -7.7360    4.9190 C.3       1 U15501      0.0000 
      5 C37        -4.5550   -4.1400    5.7200 C.3       1 U15501      0.0000 
      6 C39        -5.4910   -3.7020    6.8390 C.3       1 U15501      0.0000 
      7 C48        -6.5400   -2.6540    6.4330 C.3       1 U15501      0.0000 
      8 C53        -6.0620   -1.2400    6.7200 C.3       1 U15501      0.0000 
      9 C51        -7.8660   -2.8200    7.1580 C.3       1 U15501      0.0000 
     10 N36        -3.2950   -3.4130    5.8690 N.am      1 U15501      0.0000 
     11 C27        -2.5900   -3.2890    6.9930 C.2       1 U15501      0.0000 
     12 O35        -2.8700   -3.7810    8.0800 O.2       1 U15501      0.0000 
     13 C24        -1.3100   -2.5010    6.9140 C.3       1 U15501      0.0000 
     14 C28        -0.1770   -3.4410    6.4710 C.3       1 U15501      0.0000 
     15 N23        -1.0270   -1.9100    8.2230 N.am      1 U15501      0.0000 
     16 C20        -0.2910   -0.8300    8.2560 C.2       1 U15501      0.0000 
     17 O22         0.1560   -0.2580    7.2640 O.2       1 U15501      0.0000 
     18 C14         0.0280   -0.2030    9.5970 C.3       1 U15501      0.0000 
     19 O19         1.4540    0.1220    9.4950 O.3       1 U15501      0.0000 
     20 C7         -0.7240    1.1260    9.5910 C.3       1 U15501      0.0000 
     21 N15        -0.3570    2.1110   10.6230 N.3       1 U15501      0.0000 
     22 C3         -2.1910    0.8480    9.7060 C.ar      1 U15501      0.0000 
     23 C6         -2.7510    0.3990   10.9100 C.ar      1 U15501      0.0000 
     24 C2         -4.1210    0.1110   11.0150 C.ar      1 U15501      0.0000 
     25 C5         -4.9740    0.2640    9.9290 C.ar      1 U15501      0.0000 
     26 C9         -6.4200   -0.0360   10.0530 C.3       1 U15501      0.0000 
     27 C4         -4.4410    0.7000    8.7120 C.ar      1 U15501      0.0000 
     28 C1         -3.0670    0.9870    8.6190 C.ar      1 U15501      0.0000 
     29 H          -5.0248   -3.8233    4.7696 H         1 U15501      0.0000 
     30 H          -4.8905   -3.2928    7.6729 H         1 U15501      0.0000 
     31 H          -6.0173   -4.5893    7.2378 H         1 U15501      0.0000 
     32 H          -6.7249   -2.7314    5.3661 H         1 U15501      0.0000 
     33 H          -2.9490   -2.9565    4.9647 H         1 U15501      0.0000 
     34 H          -1.4227   -1.7347    6.1669 H         1 U15501      0.0000 
     35 H          -1.4227   -2.3783    9.0338 H         1 U15501      0.0000 
     36 H          -0.2187   -0.7879   10.3622 H         1 U15501      0.0000 
     37 H          -0.5781    1.5835    8.5901 H         1 U15501      0.0000 
     38 H          -2.1439    0.2772   11.7376 H         1 U15501      0.0000 
     39 H          -4.4963   -0.2209   11.9204 H         1 U15501      0.0000 
     40 H          -5.0421    0.8106    7.8938 H         1 U15501      0.0000 
     41 H          -2.6866    1.3156    7.7064 H         1 U15501      0.0000 
     42 H          -2.5470   -8.1490    4.4695 H         1 U15501      0.0000 
     43 H          -3.4201   -8.1624    5.8199 H         1 U15501      0.0000 
     44 H          -4.1468   -8.0041    4.3940 H         1 U15501      0.0000 
     45 H          -5.8660   -1.1042    7.6911 H         1 U15501      0.0000 
     46 H          -5.2246   -1.0221    6.2187 H         1 U15501      0.0000 
     47 H          -6.7450   -0.5572    6.4605 H         1 U15501      0.0000 
     48 H          -7.7601   -2.7390    8.1491 H         1 U15501      0.0000 
     49 H          -8.5320   -2.1290    6.8769 H         1 U15501      0.0000 
     50 H          -8.2777   -3.7136    6.9793 H         1 U15501      0.0000 
     51 H           0.6979   -2.9616    6.4026 H         1 U15501      0.0000 
     52 H          -0.0481   -4.1960    7.1139 H         1 U15501      0.0000 
     53 H          -0.3597   -3.8466    5.5754 H         1 U15501      0.0000 
     54 H          -0.4949    3.0494   10.3064 H         1 U15501      0.0000 
     55 H          -0.9020    1.9989   11.4539 H         1 U15501      0.0000 
     56 H          -6.5807   -0.9875   10.3153 H         1 U15501      0.0000 
     57 H          -6.8602    0.5369   10.7443 H         1 U15501      0.0000 
     58 H          -6.9062    0.1170    9.1926 H         1 U15501      0.0000 
     59 H           1.9204   -0.5945   10.0137 H         1 U15501      0.0000 
@<TRIPOS>BOND
     1    2    1 2    
     2    3    2 1    
     3    5    2 1    
     4    4    3 1    
     5   42    4 1    
     6   43    4 1    
     7   44    4 1    
     8    6    5 1    
     9   10    5 1    
    10   29    5 1    
    11    7    6 1    
    12   30    6 1    
    13   31    6 1    
    14    8    7 1    
    15    9    7 1    
    16   32    7 1    
    17   45    8 1    
    18   46    8 1    
    19   47    8 1    
    20   48    9 1    
    21   49    9 1    
    22   50    9 1    
    23   11   10 am   
    24   33   10 1    
    25   12   11 2    
    26   13   11 1    
    27   14   13 1    
    28   15   13 1    
    29   34   13 1    
    30   51   14 1    
    31   52   14 1    
    32   53   14 1    
    33   16   15 am   
    34   35   15 1    
    35   17   16 2    
    36   18   16 1    
    37   19   18 1    
    38   20   18 1    
    39   36   18 1    
    40   59   19 1    
    41   21   20 1    
    42   22   20 1    
    43   37   20 1    
    44   54   21 1    
    45   55   21 1    
    46   23   22 ar   
    47   28   22 ar   
    48   24   23 ar   
    49   38   23 1    
    50   25   24 ar   
    51   39   24 1    
    52   26   25 1    
    53   27   25 ar   
    54   56   26 1    
    55   57   26 1    
    56   58   26 1    
    57   28   27 ar   
    58   40   27 1    
    59   41   28 1    
@<TRIPOS>SUBSTRUCTURE
     1 U15501      1 GROUP   
@<TRIPOS>SET

