#    Name: 3b28_B2X_1_INTS_M
#    Modification time : Mon Mar 24 18:47:15 2014

@<TRIPOS>MOLECULE
3b28_B2X_1_INTS_M
   51     0     6     0     0
SMALL
NO_CHARGES


@<TRIPOS>ATOM
      1 CA        -22.7185   21.9855  -21.9155 C.3       2 GLC5        0.0000 
      2 CA        -23.9080   23.2670  -22.9890 C.3       6 GLL5        0.0000 
      3 CA        -21.5290   20.7040  -20.8420 C.3       4 GLP5        0.0000 
      4 CA        -22.6850   24.2800  -23.9860 C.3       2 GLC5        0.0000 
      5 CA        -21.4620   25.2930  -24.9830 C.3       4 GLP5        0.0000 
      6 CA        -23.8645   23.8850  -18.4610 C.3       2 GLC5        0.0000 
      7 CA        -24.7470   22.2560  -18.0450 C.3       6 GLL5        0.0000 
      8 CA        -22.9820   25.5140  -18.8770 C.3       4 GLP5        0.0000 
      9 CA        -23.6440   21.2980  -16.6580 C.3       2 GLC5        0.0000 
     10 CA        -22.5410   20.3400  -15.2710 C.3       4 GLP5        0.0000 
     11 CA        -25.3860   21.4415  -16.1900 C.3       2 GLC5        0.0000 
     12 CA        -26.0250   20.6270  -14.3350 C.3       4 GLP5        0.0000 
     13 CA        -24.5340   23.3790  -16.2185 C.3       2 GLC5        0.0000 
     14 CA        -24.3210   24.5020  -14.3920 C.3       4 GLP5        0.0000 
     15 CA        -28.5750   23.7345  -18.9480 C.3       2 GLC5        0.0000 
     16 CA        -27.6260   21.7480  -18.9440 C.3       6 GLL5        0.0000 
     17 CA        -29.5240   25.7210  -18.9520 C.3       4 GLP5        0.0000 
     18 CA        -29.0860   23.9395  -17.9105 C.3       2 GLC5        0.0000 
     19 CA        -28.6480   22.1580  -16.8690 C.3       6 GLL5        0.0000 
     20 CA        -30.7100   21.4330  -16.7605 C.3       2 GLC5        0.0000 
     21 CA        -32.7720   20.7080  -16.6520 C.3       4 GLP5        0.0000 
     22 CA        -27.3365   21.3925  -15.6020 C.3       2 GLC5        0.0000 
     23 O         -29.4875   22.8615  -14.5830 O.2       1 ALC1        0.0000 
     24 O         -28.8040   22.9630  -15.8310 O.2       5 ALL1        0.0000 
     25 O         -30.1710   22.7600  -13.3350 O.2       3 ALP1        0.0000 
     26 CA        -27.2540   19.4045  -17.8915 C.3       2 GLC5        0.0000 
     27 CA        -29.0880   20.2340  -17.9880 C.3       6 GLL5        0.0000 
     28 CA        -25.4200   18.5750  -17.7950 C.3       4 GLP5        0.0000 
     29 CA        -29.7460   17.2960  -16.6115 C.3       2 GLC5        0.0000 
     30 CA        -29.8700   18.6920  -18.0000 C.3       6 GLL5        0.0000 
     31 CA        -29.6220   15.9000  -15.2230 C.3       4 GLP5        0.0000 
     32 CA        -24.1735   24.7082  -21.7683 C.3       2 GLC5        0.0000 
     33 CA        -24.8500   22.8500  -21.9760 C.3       6 GLL5        0.0000 
     34 CA        -23.9680   26.3580  -21.0540 C.3       4 GLP5        0.0000 
     35 CA        -25.6247   20.5375  -23.2668 C.3       2 GLC5        0.0000 
     36 CA        -26.1830   22.5640  -22.3360 C.3       6 GLL5        0.0000 
     37 CA        -24.8850   18.4760  -23.5160 C.3       4 GLP5        0.0000 
     38 CA        -23.7402   21.3508  -21.0622 C.3       2 GLC5        0.0000 
     39 CA        -22.8220   19.8820  -20.8150 C.3       4 GLP5        0.0000 
     40 CA        -24.4462   24.4795  -20.6047 C.3       2 GLC5        0.0000 
     41 CA        -24.4670   22.7890  -20.6430 C.3       6 GLL5        0.0000 
     42 CA        -25.2423   20.4548  -18.3257 C.3       2 GLC5        0.0000 
     43 CA        -25.3820   22.4130  -19.6680 C.3       6 GLL5        0.0000 
     44 CA        -23.9432   21.1083  -19.8358 C.3       2 GLC5        0.0000 
     45 CA        -26.2965   20.2585  -18.6300 C.3       2 GLC5        0.0000 
     46 CA        -26.7200   22.1360  -19.9860 C.3       6 GLL5        0.0000 
     47 CA        -31.1255   20.0855  -17.3230 C.3       2 GLC5        0.0000 
     48 CA        -31.4202   17.5970  -18.3837 C.3       2 GLC5        0.0000 
     49 CA        -33.0280   16.7580  -17.9120 C.3       4 GLP5        0.0000 
     50 CA        -28.3012   17.4075  -18.8833 C.3       2 GLC5        0.0000 
     51 CA        -26.7900   16.3790  -18.9110 C.3       4 GLP5        0.0000 
@<TRIPOS>BOND
@<TRIPOS>SUBSTRUCTURE
     1 ALC1       23 GROUP        1 X    ALC  0     ROOT ALC X 1
     2 GLC5        1 GROUP        1 X    GLC  0     **** GLC X 6
     3 ALP1       25 GROUP        1 Y    ALP  0     ROOT ALP Y 8
     4 GLP5        3 GROUP        1 Y    GLP  0     **** GLP Y 13
     5 ALL1       24 GROUP        1 Z    ALL  0     ROOT ALL Z 15
     6 GLL5        2 GROUP        1 Z    GLL  0     **** GLL Z 20
@<TRIPOS>SET

