#    Name: 3b28_B2X_1_ligand
#    Modification time : Mon Mar 24 18:47:15 2014

@<TRIPOS>MOLECULE
3b28_B2X_1_ligand
   36    39     1     0     0
SMALL
NO_CHARGES


@<TRIPOS>ATOM
      1 C1        -23.9080   23.2670  -22.9890 C.3       1 B2X237      0.0000 
      2 O2        -24.5700   23.9950  -24.0910 O.3       1 B2X237      0.0000 
      3 C3        -25.5380   23.0720  -24.6350 C.3       1 B2X237      0.0000 
      4 C4        -26.5460   22.6340  -23.6990 C.ar      1 B2X237      0.0000 
      5 C5        -27.8780   22.3890  -24.0700 C.ar      1 B2X237      0.0000 
      6 C6        -28.8340   22.0500  -23.0900 C.ar      1 B2X237      0.0000 
      7 C7        -28.4580   21.9560  -21.7480 C.ar      1 B2X237      0.0000 
      8 C8        -27.1320   22.1980  -21.3490 C.ar      1 B2X237      0.0000 
      9 C9        -26.1830   22.5640  -22.3360 C.ar      1 B2X237      0.0000 
     10 C10       -24.8500   22.8500  -21.9760 C.ar      1 B2X237      0.0000 
     11 C11       -24.4670   22.7890  -20.6430 C.ar      1 B2X237      0.0000 
     12 C12       -25.3820   22.4130  -19.6680 C.ar      1 B2X237      0.0000 
     13 CL13      -24.7470   22.2560  -18.0450 Cl        1 B2X237      0.0000 
     14 C14       -26.7200   22.1360  -19.9860 C.ar      1 B2X237      0.0000 
     15 C15       -27.6260   21.7480  -18.9440 C.ar      1 B2X237      0.0000 
     16 N16       -28.2540   20.5590  -18.9950 N.ar      1 B2X237      0.0000 
     17 N17       -27.8410   22.5450  -17.8770 N.ar      1 B2X237      0.0000 
     18 C18       -28.6480   22.1580  -16.8690 C.ar      1 B2X237      0.0000 
     19 N19       -28.8040   22.9630  -15.8310 N.pl3     1 B2X237      0.0000 
     20 N22       -29.2520   20.9640  -16.9110 N.ar      1 B2X237      0.0000 
     21 C23       -29.0880   20.2340  -17.9880 C.ar      1 B2X237      0.0000 
     22 S24       -29.8700   18.6920  -18.0000 S.3       1 B2X237      0.0000 
     23 C25       -29.7550   18.1800  -19.7110 C.3       1 B2X237      0.0000 
     24 H         -23.1280   23.9169  -22.5446 H         1 B2X237      0.0000 
     25 H         -23.3767   22.3880  -23.4052 H         1 B2X237      0.0000 
     26 H         -25.0044   22.1764  -25.0551 H         1 B2X237      0.0000 
     27 H         -26.0357   23.5373  -25.5289 H         1 B2X237      0.0000 
     28 H         -28.1582   22.4558  -25.0519 H         1 B2X237      0.0000 
     29 H         -29.8039   21.8736  -23.3689 H         1 B2X237      0.0000 
     30 H         -29.1613   21.7054  -21.0359 H         1 B2X237      0.0000 
     31 H         -23.4995   23.0237  -20.3754 H         1 B2X237      0.0000 
     32 H         -28.3222   23.8381  -15.8765 H         1 B2X237      0.0000 
     33 H         -29.3896   22.6234  -15.0949 H         1 B2X237      0.0000 
     34 H         -28.8048   18.1093  -20.0145 H         1 B2X237      0.0000 
     35 H         -30.1776   17.2861  -19.8604 H         1 B2X237      0.0000 
     36 H         -30.2110   18.8258  -20.3234 H         1 B2X237      0.0000 
@<TRIPOS>BOND
     1    2    1 1    
     2   10    1 1    
     3   24    1 1    
     4   25    1 1    
     5    3    2 1    
     6    4    3 1    
     7   26    3 1    
     8   27    3 1    
     9    5    4 ar   
    10    9    4 ar   
    11    6    5 ar   
    12   28    5 1    
    13    7    6 ar   
    14   29    6 1    
    15    8    7 ar   
    16   30    7 1    
    17    9    8 ar   
    18   14    8 ar   
    19   10    9 ar   
    20   11   10 ar   
    21   12   11 ar   
    22   31   11 1    
    23   13   12 1    
    24   14   12 ar   
    25   15   14 1    
    26   16   15 ar   
    27   17   15 ar   
    28   21   16 ar   
    29   18   17 ar   
    30   19   18 1    
    31   20   18 ar   
    32   32   19 1    
    33   33   19 1    
    34   21   20 ar   
    35   22   21 1    
    36   23   22 1    
    37   34   23 1    
    38   35   23 1    
    39   36   23 1    
@<TRIPOS>SUBSTRUCTURE
     1 B2X237      1 GROUP   
@<TRIPOS>SET

