#    Name: 4nra_2LW_1_INTS_M
#    Modification time : Tue Mar 25 13:19:05 2014

@<TRIPOS>MOLECULE
4nra_2LW_1_INTS_M
   33     0     6     0     0
SMALL
NO_CHARGES


@<TRIPOS>ATOM
      1 CA         66.9780   39.8915    1.4535 C.3       2 GLC5        0.0000 
      2 CA         67.5520   40.8620   -0.3610 C.3       6 GLL5        0.0000 
      3 CA         66.4040   38.9210    3.2680 C.3       4 GLP5        0.0000 
      4 CA         68.0240   42.7200    0.7350 C.3       2 GLC5        0.0000 
      5 CA         68.4960   44.5780    1.8310 C.3       4 GLP5        0.0000 
      6 CA         65.6795   41.2355    0.7865 C.3       2 GLC5        0.0000 
      7 CA         63.8070   41.6090    1.9340 C.3       4 GLP5        0.0000 
      8 CA         66.0615   42.4255   -0.7670 C.3       2 GLC5        0.0000 
      9 CA         64.5710   43.9890   -1.1730 C.3       4 GLP5        0.0000 
     10 CA         72.6395   34.7135   -1.9425 C.3       2 GLC5        0.0000 
     11 CA         73.2570   35.1080   -0.0760 C.3       6 GLL5        0.0000 
     12 CA         72.0220   34.3190   -3.8090 C.3       4 GLP5        0.0000 
     13 CA         70.1260   35.5410   -1.0140 C.3       2 GLC5        0.0000 
     14 CA         71.2800   37.0090   -0.3160 C.3       6 GLL5        0.0000 
     15 CA         68.9720   34.0730   -1.7120 C.3       4 GLP5        0.0000 
     16 CA         67.4115   38.7055    1.6510 C.3       2 GLC5        0.0000 
     17 CA         68.4190   38.4900    0.0340 C.3       6 GLL5        0.0000 
     18 N          64.6120   40.0510   -2.4075 N.am      1 SEC2        0.0000 
     19 N          65.1830   39.7620   -1.1610 N.am      5 SEL2        0.0000 
     20 N          64.0410   40.3400   -3.6540 N.am      3 SEP2        0.0000 
     21 CA         67.0080   36.1075   -1.7945 C.3       2 GLC5        0.0000 
     22 CA         65.9470   37.5020   -0.7930 C.3       6 GLL5        0.0000 
     23 CA         68.0690   34.7130   -2.7960 C.3       4 GLP5        0.0000 
     24 CA         65.1200   35.9170   -1.6085 C.3       2 GLC5        0.0000 
     25 CA         64.2930   34.3320   -2.4240 C.3       4 GLP5        0.0000 
     26 CA         66.1755   38.2115    1.2375 C.3       2 GLC5        0.0000 
     27 CA         66.1415   37.6510   -2.8060 C.3       2 GLC5        0.0000 
     28 CA         66.3360   37.8000   -4.8190 C.3       4 GLP5        0.0000 
     29 CA         70.2530   38.7362   -2.7622 C.3       2 GLC5        0.0000 
     30 CA         71.6390   39.0280   -1.4450 C.3       6 GLL5        0.0000 
     31 CA         69.2810   38.8570   -4.4430 C.3       4 GLP5        0.0000 
     32 CA         69.3466   39.2987   -2.6916 C.3       2 GLC5        0.0000 
     33 CA         69.6230   38.8670   -0.5800 C.3       6 GLL5        0.0000 
@<TRIPOS>BOND
@<TRIPOS>SUBSTRUCTURE
     1 SEC2       18 GROUP        1 X    SEC  0     ROOT SEC X 2
     2 GLC5        1 GROUP        1 X    GLC  0     **** GLC X 6
     3 SEP2       20 GROUP        1 Y    SEP  0     ROOT SEP Y 9
     4 GLP5        3 GROUP        1 Y    GLP  0     **** GLP Y 13
     5 SEL2       19 GROUP        1 Z    SEL  0     ROOT SEL Z 16
     6 GLL5        2 GROUP        1 Z    GLL  0     **** GLL Z 20
@<TRIPOS>SET

