#    Name: 4nra_2LW_1_ligand
#    Modification time : Tue Mar 25 13:19:05 2014

@<TRIPOS>MOLECULE
4nra_2LW_1_ligand
   30    32     1     0     0
SMALL
NO_CHARGES


@<TRIPOS>ATOM
      1 CAH        67.5520   40.8620   -0.3610 C.3       1 2LW2006     0.0000 
      2 CAG        68.6830   41.1270   -1.3650 C.3       1 2LW2006     0.0000 
      3 CAM        69.7200   40.1010   -1.2360 C.2       1 2LW2006     0.0000 
      4 NAJ        70.9660   40.1470   -1.7350 N.pl3     1 2LW2006     0.0000 
      5 CAO        71.6390   39.0280   -1.4450 C.ar      1 2LW2006     0.0000 
      6 CAE        72.9090   38.6920   -1.7640 C.ar      1 2LW2006     0.0000 
      7 CAD        73.4350   37.4590   -1.3440 C.ar      1 2LW2006     0.0000 
      8 CAL        72.6020   36.6060   -0.5970 C.ar      1 2LW2006     0.0000 
      9 CL         73.2570   35.1080   -0.0760 Cl        1 2LW2006     0.0000 
     10 CAF        71.2800   37.0090   -0.3160 C.ar      1 2LW2006     0.0000 
     11 CAP        70.8110   38.2030   -0.7180 C.ar      1 2LW2006     0.0000 
     12 CAN        69.6230   38.8670   -0.5800 C.2       1 2LW2006     0.0000 
     13 CAI        68.4190   38.4900    0.0340 C.3       1 2LW2006     0.0000 
     14 NAQ        67.2840   39.4470   -0.4070 N.am      1 2LW2006     0.0000 
     15 CAK        66.1610   39.0660   -0.9220 C.2       1 2LW2006     0.0000 
     16 OAB        65.1830   39.7620   -1.1610 O.2       1 2LW2006     0.0000 
     17 CAA        65.9470   37.5020   -0.7930 C.3       1 2LW2006     0.0000 
     18 H          66.6931   41.4452   -0.6621 H         1 2LW2006     0.0000 
     19 H          67.8906   41.1769    0.6161 H         1 2LW2006     0.0000 
     20 H          69.0891   42.1209   -1.1650 H         1 2LW2006     0.0000 
     21 H          68.2536   41.1249   -2.3691 H         1 2LW2006     0.0000 
     22 H          71.3327   40.9054   -2.2462 H         1 2LW2006     0.0000 
     23 H          73.5109   39.3245   -2.3148 H         1 2LW2006     0.0000 
     24 H          74.3813   37.1923   -1.5706 H         1 2LW2006     0.0000 
     25 H          70.6759   36.3463    0.2166 H         1 2LW2006     0.0000 
     26 H          68.4685   38.5390    1.1294 H         1 2LW2006     0.0000 
     27 H          68.1034   37.4750   -0.2398 H         1 2LW2006     0.0000 
     28 H          66.6709   36.9888   -1.2540 H         1 2LW2006     0.0000 
     29 H          65.9402   37.2056    0.1620 H         1 2LW2006     0.0000 
     30 H          65.0793   37.2114   -1.1963 H         1 2LW2006     0.0000 
@<TRIPOS>BOND
     1    2    1 1    
     2   14    1 1    
     3   18    1 1    
     4   19    1 1    
     5    3    2 1    
     6   20    2 1    
     7   21    2 1    
     8    4    3 1    
     9   12    3 2    
    10    5    4 1    
    11   22    4 1    
    12    6    5 ar   
    13   11    5 ar   
    14    7    6 ar   
    15   23    6 1    
    16    8    7 ar   
    17   24    7 1    
    18    9    8 1    
    19   10    8 ar   
    20   11   10 ar   
    21   25   10 1    
    22   12   11 1    
    23   13   12 1    
    24   14   13 1    
    25   26   13 1    
    26   27   13 1    
    27   15   14 am   
    28   16   15 2    
    29   17   15 1    
    30   28   17 1    
    31   29   17 1    
    32   30   17 1    
@<TRIPOS>SUBSTRUCTURE
     1 2LW2006     1 GROUP   
@<TRIPOS>SET

