#    Name: 4db1_ANP_2_INTS_M
#    Modification time : Tue Mar 25 09:31:19 2014

@<TRIPOS>MOLECULE
4db1_ANP_2_INTS_M
   67     0    15     0     0
SMALL
NO_CHARGES


@<TRIPOS>ATOM
      1 NZ         44.1810   43.0125   58.6920 N.4       3 LYC4        0.0000 
      2 NZ         44.1600   42.3080   57.4790 N.4      13 LYL4        0.0000 
      3 NZ         44.2020   43.7170   59.9050 N.4       8 LYP4        0.0000 
      4 N          44.1810   43.0125   58.6920 N.am      2 SEC2        0.0000 
      5 N          44.1600   42.3080   57.4790 N.am     12 SEL2        0.0000 
      6 N          44.2020   43.7170   59.9050 N.am      7 SEP2        0.0000 
      7 N          44.5965   39.4585   56.6575 N.am      2 SEC2        0.0000 
      8 N          43.4840   40.2700   56.2140 N.am     12 SEL2        0.0000 
      9 N          45.7090   38.6470   57.1010 N.am      7 SEP2        0.0000 
     10 N          42.2045   39.3895   56.6755 N.am      2 SEC2        0.0000 
     11 N          40.9250   38.5090   57.1370 N.am      7 SEP2        0.0000 
     12 N          43.8185   40.0350   54.9715 N.am      2 SEC2        0.0000 
     13 N          44.1530   39.8000   53.7290 N.am      7 SEP2        0.0000 
     14 Zn         41.1955   42.8935   56.3860 Zn        4 ZIC7        0.0000 
     15 Zn         41.9150   42.3270   56.2690 Zn       14 ZIL7        0.0000 
     16 Zn         40.4760   43.4600   56.5030 Zn        9 ZIP7        0.0000 
     17 N          41.8450   42.1235   54.8620 N.am      2 SEC2        0.0000 
     18 N          41.9150   42.3270   56.2690 N.am     12 SEL2        0.0000 
     19 N          41.7750   41.9200   53.4550 N.am      7 SEP2        0.0000 
     20 NZ         43.0610   42.9740   60.1860 N.4       3 LYC4        0.0000 
     21 NZ         41.9200   42.2310   60.4670 N.4      13 LYL4        0.0000 
     22 N          41.3700   41.6280   61.7305 N.am      2 SEC2        0.0000 
     23 N          41.9200   42.2310   60.4670 N.am     12 SEL2        0.0000 
     24 N          40.8200   41.0250   62.9940 N.am      7 SEP2        0.0000 
     25 N          40.9955   42.9000   61.3110 N.am      2 SEC2        0.0000 
     26 N          40.0710   43.5690   62.1550 N.am      7 SEP2        0.0000 
     27 N          43.0610   42.9740   60.1860 N.am      2 SEC2        0.0000 
     28 Zn         40.4700   43.1415   57.4185 Zn        4 ZIC7        0.0000 
     29 Zn         40.4640   42.8230   58.3340 Zn       14 ZIL7        0.0000 
     30 N          39.4470   43.6550   59.2005 N.am      2 SEC2        0.0000 
     31 N          40.4640   42.8230   58.3340 N.am     12 SEL2        0.0000 
     32 N          38.4300   44.4870   60.0670 N.am      7 SEP2        0.0000 
     33 N          38.2340   43.0445   60.0755 N.am      2 SEC2        0.0000 
     34 N          38.0380   41.6020   60.0840 N.am     12 SEL2        0.0000 
     35 N          36.9770   42.5490   60.3555 N.am      2 SEC2        0.0000 
     36 N          35.9160   43.4960   60.6270 N.am      7 SEP2        0.0000 
     37 N          39.7525   39.3355   57.5760 N.am      2 SEC2        0.0000 
     38 N          38.5800   40.1620   58.0150 N.am     12 SEL2        0.0000 
     39 N          40.5515   40.8205   61.4120 N.am      2 SEC2        0.0000 
     40 N          40.2830   40.6160   59.8300 N.am     12 SEL2        0.0000 
     41 CA         40.9620   37.9145   60.2980 C.3       5 GLC5        0.0000 
     42 CA         38.8390   37.8450   59.9600 C.3      15 GLL5        0.0000 
     43 CA         43.0850   37.9840   60.6360 C.3      10 GLP5        0.0000 
     44 N          38.4930   36.6995   62.8035 N.am      2 SEC2        0.0000 
     45 N          37.6240   36.6000   61.6650 N.am     12 SEL2        0.0000 
     46 N          39.3620   36.7990   63.9420 N.am      7 SEP2        0.0000 
     47 CA         37.3190   34.7570   62.7700 C.3       5 GLC5        0.0000 
     48 CA         36.2560   36.4430   62.0400 C.3      15 GLL5        0.0000 
     49 CA         38.3820   33.0710   63.5000 C.3      10 GLP5        0.0000 
     50 CA         34.4490   37.9230   66.9960 C.3       5 GLC5        0.0000 
     51 CA         34.0330   38.9750   65.6630 C.3      15 GLL5        0.0000 
     52 CA         34.8650   36.8710   68.3290 C.3      10 GLP5        0.0000 
     53 O          33.2230   41.0255   67.3140 O.2       1 ALC1        0.0000 
     54 O          34.0930   40.0590   66.4640 O.2      11 ALL1        0.0000 
     55 O          32.3530   41.9920   68.1640 O.2       6 ALP1        0.0000 
     56 CA         33.8995   36.9385   66.6490 C.3       5 GLC5        0.0000 
     57 CA         32.9340   37.0060   64.9690 C.3      15 GLL5        0.0000 
     58 CA         34.7785   39.1305   62.5680 C.3       5 GLC5        0.0000 
     59 CA         34.9290   37.5060   63.8480 C.3      15 GLL5        0.0000 
     60 CA         34.6280   40.7550   61.2880 C.3      10 GLP5        0.0000 
     61 CA         35.2540   38.8603   60.8095 C.3       5 GLC5        0.0000 
     62 CA         35.4030   36.6430   60.8170 C.3      15 GLL5        0.0000 
     63 CA         35.6068   37.7993   66.1890 C.3       5 GLC5        0.0000 
     64 CA         36.2060   37.4900   68.1220 C.3      10 GLP5        0.0000 
     65 CA         34.1268   40.3795   64.2293 C.3       5 GLC5        0.0000 
     66 CA         35.0860   38.7110   64.6640 C.3      15 GLL5        0.0000 
     67 CA         33.6940   41.9160   63.2950 C.3      10 GLP5        0.0000 
@<TRIPOS>BOND
@<TRIPOS>SUBSTRUCTURE
     1 ALC1       53 GROUP        1 X    ALC  0     ROOT ALC X 1
     2 SEC2        4 GROUP        1 X    SEC  0     **** SEC X 2
     3 LYC4        1 GROUP        1 X    LYC  0     **** LYC X 4
     4 ZIC7       14 GROUP        1 X    ZIC  0     **** ZIC X 5
     5 GLC5       41 GROUP        1 X    GLC  0     **** GLC X 6
     6 ALP1       55 GROUP        1 Y    ALP  0     ROOT ALP Y 8
     7 SEP2        6 GROUP        1 Y    SEP  0     **** SEP Y 9
     8 LYP4        3 GROUP        1 Y    LYP  0     **** LYP Y 11
     9 ZIP7       16 GROUP        1 Y    ZIP  0     **** ZIP Y 12
    10 GLP5       43 GROUP        1 Y    GLP  0     **** GLP Y 13
    11 ALL1       54 GROUP        1 Z    ALL  0     ROOT ALL Z 15
    12 SEL2        5 GROUP        1 Z    SEL  0     **** SEL Z 16
    13 LYL4        2 GROUP        1 Z    LYL  0     **** LYL Z 18
    14 ZIL7       15 GROUP        1 Z    ZIL  0     **** ZIL Z 19
    15 GLL5       42 GROUP        1 Z    GLL  0     **** GLL Z 20
@<TRIPOS>SET

