#    Name: 4db1_ANP_2_ligand
#    Modification time : Tue Mar 25 09:31:19 2014

@<TRIPOS>MOLECULE
4db1_ANP_2_ligand
   43    45     1     0     0
SMALL
NO_CHARGES


@<TRIPOS>ATOM
      1 PG         43.0230   41.5090   56.9520 P.3       1 ANP801      0.0000 
      2 O1G        44.1600   42.3080   57.4790 O.co2     1 ANP801      0.0000 
      3 O2G        43.4840   40.2700   56.2140 O.co2     1 ANP801      0.0000 
      4 O3G        41.9150   42.3270   56.2690 O.co2     1 ANP801      0.0000 
      5 PB         41.1780   41.7860   59.2460 P.3       1 ANP801      0.0000 
      6 O1B        41.9200   42.2310   60.4670 O.co2     1 ANP801      0.0000 
      7 O2B        40.4640   42.8230   58.3340 O.co2     1 ANP801      0.0000 
      8 N3B        42.3250   40.8490   58.3710 N.4       1 ANP801      0.0000 
      9 PA         38.7520   40.4310   59.4840 P.3       1 ANP801      0.0000 
     10 O1A        38.0380   41.6020   60.0840 O.co2     1 ANP801      0.0000 
     11 O2A        38.5800   40.1620   58.0150 O.co2     1 ANP801      0.0000 
     12 O3A        40.2830   40.6160   59.8300 O.3       1 ANP801      0.0000 
     13 O5'        38.4390   39.1460   60.3710 O.3       1 ANP801      0.0000 
     14 C5'        38.8390   37.8450   59.9600 C.3       1 ANP801      0.0000 
     15 C4'        37.7430   36.8210   60.2610 C.3       1 ANP801      0.0000 
     16 O4'        37.6240   36.6000   61.6650 O.3       1 ANP801      0.0000 
     17 C3'        36.3570   37.2880   59.8450 C.3       1 ANP801      0.0000 
     18 O3'        36.0900   36.9180   58.4990 O.3       1 ANP801      0.0000 
     19 C2'        35.4030   36.6430   60.8170 C.3       1 ANP801      0.0000 
     20 O2'        35.0410   35.3630   60.3380 O.3       1 ANP801      0.0000 
     21 C1'        36.2560   36.4430   62.0400 C.3       1 ANP801      0.0000 
     22 N9         35.9720   37.4820   63.0400 N.pl3     1 ANP801      0.0000 
     23 C8         36.7410   38.5550   63.2830 C.2       1 ANP801      0.0000 
     24 N7         36.2190   39.3130   64.2730 N.2       1 ANP801      0.0000 
     25 C5         35.0860   38.7110   64.6640 C.ar      1 ANP801      0.0000 
     26 C6         34.0330   38.9750   65.6630 C.ar      1 ANP801      0.0000 
     27 N6         34.0930   40.0590   66.4640 N.pl3     1 ANP801      0.0000 
     28 N1         33.0150   38.0950   65.7540 N.ar      1 ANP801      0.0000 
     29 C2         32.9340   37.0060   64.9690 C.ar      1 ANP801      0.0000 
     30 N3         33.8500   36.7070   64.0330 N.ar      1 ANP801      0.0000 
     31 C4         34.9290   37.5060   63.8480 C.ar      1 ANP801      0.0000 
     32 H          39.7523   37.5145   60.4782 H         1 ANP801      0.0000 
     33 H          39.0445   37.8020   58.8794 H         1 ANP801      0.0000 
     34 H          37.9544   35.9020   59.7510 H         1 ANP801      0.0000 
     35 H          36.3196   38.3551   59.9941 H         1 ANP801      0.0000 
     36 H          34.6188   37.2753   61.0296 H         1 ANP801      0.0000 
     37 H          36.0769   35.4783   62.4475 H         1 ANP801      0.0000 
     38 H          37.5752   38.7664   62.8065 H         1 ANP801      0.0000 
     39 H          33.2155   40.4371   66.7591 H         1 ANP801      0.0000 
     40 H          35.0096   40.3879   66.6914 H         1 ANP801      0.0000 
     41 H          32.1046   36.3504   65.0959 H         1 ANP801      0.0000 
     42 H          36.8631   37.2747   57.9745 H         1 ANP801      0.0000 
     43 H          35.3879   35.3299   59.4007 H         1 ANP801      0.0000 
@<TRIPOS>BOND
     1    2    1 ar   
     2    3    1 ar   
     3    4    1 ar   
     4    8    1 1    
     5    6    5 ar   
     6    7    5 ar   
     7    8    5 1    
     8   12    5 1    
     9   10    9 ar   
    10   11    9 ar   
    11   12    9 1    
    12   13    9 1    
    13   14   13 1    
    14   15   14 1    
    15   32   14 1    
    16   33   14 1    
    17   16   15 1    
    18   17   15 1    
    19   34   15 1    
    20   21   16 1    
    21   18   17 1    
    22   19   17 1    
    23   35   17 1    
    24   42   18 1    
    25   20   19 1    
    26   21   19 1    
    27   36   19 1    
    28   43   20 1    
    29   22   21 1    
    30   37   21 1    
    31   23   22 1    
    32   31   22 1    
    33   24   23 2    
    34   38   23 1    
    35   25   24 1    
    36   26   25 ar   
    37   31   25 ar   
    38   27   26 1    
    39   28   26 ar   
    40   39   27 1    
    41   40   27 1    
    42   29   28 ar   
    43   30   29 ar   
    44   41   29 1    
    45   31   30 ar   
@<TRIPOS>SUBSTRUCTURE
     1 ANP801      1 GROUP   
@<TRIPOS>SET

