#    Name: 3gon_ANP_1_INTS_M
#    Modification time : Tue Mar 25 12:48:37 2014

@<TRIPOS>MOLECULE
3gon_ANP_1_INTS_M
   60     0    15     0     0
SMALL
NO_CHARGES


@<TRIPOS>ATOM
      1 NZ         13.4900   26.9635   -0.2545 N.4       3 LYC4        0.0000 
      2 NZ         14.5680   26.5620    0.5710 N.4      13 LYL4        0.0000 
      3 NZ         12.4120   27.3650   -1.0800 N.4       8 LYP4        0.0000 
      4 Zn         14.2175   25.5265    0.8645 Zn        4 ZIC7        0.0000 
      5 Zn         14.5680   26.5620    0.5710 Zn       14 ZIL7        0.0000 
      6 Zn         13.8670   24.4910    1.1580 Zn        9 ZIP7        0.0000 
      7 N          13.4900   26.9635   -0.2545 N.am      2 SEC2        0.0000 
      8 N          14.5680   26.5620    0.5710 N.am     12 SEL2        0.0000 
      9 N          12.4120   27.3650   -1.0800 N.am      7 SEP2        0.0000 
     10 NZ         13.9685   27.9835   -0.8630 N.4       3 LYC4        0.0000 
     11 NZ         15.5250   28.6020   -0.6460 N.4      13 LYL4        0.0000 
     12 N          17.0795   28.5475   -0.5770 N.am      2 SEC2        0.0000 
     13 N          15.5250   28.6020   -0.6460 N.am     12 SEL2        0.0000 
     14 N          18.6340   28.4930   -0.5080 N.am      7 SEP2        0.0000 
     15 NZ         17.6785   27.2100    1.7980 N.4       3 LYC4        0.0000 
     16 NZ         16.2750   28.0490    1.7510 N.4      13 LYL4        0.0000 
     17 NZ         19.0820   26.3710    1.8450 N.4       8 LYP4        0.0000 
     18 N          17.6785   27.2100    1.7980 N.am      2 SEC2        0.0000 
     19 N          16.2750   28.0490    1.7510 N.am     12 SEL2        0.0000 
     20 N          19.0820   26.3710    1.8450 N.am      7 SEP2        0.0000 
     21 N          16.3820   32.1280    0.4505 N.am      2 SEC2        0.0000 
     22 N          15.5690   30.6990    0.7030 N.am     12 SEL2        0.0000 
     23 N          17.1950   33.5570    0.1980 N.am      7 SEP2        0.0000 
     24 N          15.8535   31.8315    1.7575 N.am      2 SEC2        0.0000 
     25 N          16.1380   32.9640    2.8120 N.am      7 SEP2        0.0000 
     26 CA         11.4950   36.2995   -3.4460 C.3       5 GLC5        0.0000 
     27 CA         11.7780   35.8940   -1.3590 C.3      15 GLL5        0.0000 
     28 CA         11.2120   36.7050   -5.5330 C.3      10 GLP5        0.0000 
     29 CA         12.6325   37.1870   -3.4375 C.3       5 GLC5        0.0000 
     30 CA         12.2660   37.3390   -1.2830 C.3      15 GLL5        0.0000 
     31 CA         12.9990   37.0350   -5.5920 C.3      10 GLP5        0.0000 
     32 CA         14.6995   37.8060    0.6975 C.3       5 GLC5        0.0000 
     33 CA         13.6920   37.1150   -0.7760 C.3      15 GLL5        0.0000 
     34 CA         15.7070   38.4970    2.1710 C.3      10 GLP5        0.0000 
     35 N          16.8450   34.8670   -3.4280 N.am      2 SEC2        0.0000 
     36 N          15.9500   35.8120   -3.2640 N.am     12 SEL2        0.0000 
     37 N          17.7400   33.9220   -3.5920 N.am      7 SEP2        0.0000 
     38 CA         18.5065   37.1920   -5.4300 C.3       5 GLC5        0.0000 
     39 CA         16.4980   37.7730   -4.6850 C.3      15 GLL5        0.0000 
     40 CA         20.5150   36.6110   -6.1750 C.3      10 GLP5        0.0000 
     41 O          17.7780   37.6705   -6.7725 O.2       1 ALC1        0.0000 
     42 O          17.2890   37.0770   -5.5110 O.2      11 ALL1        0.0000 
     43 O          18.2670   38.2640   -8.0340 O.2       6 ALP1        0.0000 
     44 N          16.5375   39.8050   -5.9525 N.am      2 SEC2        0.0000 
     45 N          16.2690   39.0800   -4.8230 N.am     12 SEL2        0.0000 
     46 N          16.8060   40.5300   -7.0820 N.am      7 SEP2        0.0000 
     47 CA         16.1250   40.8325   -5.5400 C.3       5 GLC5        0.0000 
     48 CA         15.4760   39.7210   -3.9760 C.3      15 GLL5        0.0000 
     49 CA         16.7740   41.9440   -7.1040 C.3      10 GLP5        0.0000 
     50 CA         14.2375   38.3780   -4.7840 C.3       5 GLC5        0.0000 
     51 CA         16.3600   41.2990   -3.5205 C.3       5 GLC5        0.0000 
     52 CA         17.2440   42.8770   -3.0650 C.3      10 GLP5        0.0000 
     53 CA         14.0228   34.3968    1.0935 C.3       5 GLC5        0.0000 
     54 CA         12.3050   35.4030   -0.0260 C.3      15 GLL5        0.0000 
     55 CA         15.7620   34.1400    2.1110 C.3      10 GLP5        0.0000 
     56 CA         16.9872   37.7920   -1.6760 C.3       5 GLC5        0.0000 
     57 CA         15.9020   37.0840   -3.6510 C.3      15 GLL5        0.0000 
     58 CA         18.4900   38.1480   -0.1370 C.3      10 GLP5        0.0000 
     59 CA         14.3163   37.3216   -4.5327 C.3       5 GLC5        0.0000 
     60 CA         15.0670   37.7880   -2.7790 C.3      15 GLL5        0.0000 
@<TRIPOS>BOND
@<TRIPOS>SUBSTRUCTURE
     1 ALC1       41 GROUP        1 X    ALC  0     ROOT ALC X 1
     2 SEC2        7 GROUP        1 X    SEC  0     **** SEC X 2
     3 LYC4        1 GROUP        1 X    LYC  0     **** LYC X 4
     4 ZIC7        4 GROUP        1 X    ZIC  0     **** ZIC X 5
     5 GLC5       26 GROUP        1 X    GLC  0     **** GLC X 6
     6 ALP1       43 GROUP        1 Y    ALP  0     ROOT ALP Y 8
     7 SEP2        9 GROUP        1 Y    SEP  0     **** SEP Y 9
     8 LYP4        3 GROUP        1 Y    LYP  0     **** LYP Y 11
     9 ZIP7        6 GROUP        1 Y    ZIP  0     **** ZIP Y 12
    10 GLP5       28 GROUP        1 Y    GLP  0     **** GLP Y 13
    11 ALL1       42 GROUP        1 Z    ALL  0     ROOT ALL Z 15
    12 SEL2        8 GROUP        1 Z    SEL  0     **** SEL Z 16
    13 LYL4        2 GROUP        1 Z    LYL  0     **** LYL Z 18
    14 ZIL7        5 GROUP        1 Z    ZIL  0     **** ZIL Z 19
    15 GLL5       27 GROUP        1 Z    GLL  0     **** GLL Z 20
@<TRIPOS>SET

