#    Name: 3gon_ANP_1_ligand
#    Modification time : Tue Mar 25 12:48:37 2014

@<TRIPOS>MOLECULE
3gon_ANP_1_ligand
   43    45     1     0     0
SMALL
NO_CHARGES


@<TRIPOS>ATOM
      1 PG         15.0240   27.9590    0.7410 P.3       1 ANP500      0.0000 
      2 O1G        14.5680   26.5620    0.5710 O.co2     1 ANP500      0.0000 
      3 O2G        15.5250   28.6020   -0.6460 O.co2     1 ANP500      0.0000 
      4 O3G        16.2750   28.0490    1.7510 O.co2     1 ANP500      0.0000 
      5 PB         14.1210   30.5060    0.9470 P.3       1 ANP500      0.0000 
      6 O1B        13.4350   31.3610    1.9380 O.co2     1 ANP500      0.0000 
      7 O2B        15.5690   30.6990    0.7030 O.co2     1 ANP500      0.0000 
      8 N3B        13.8610   28.9430    1.3060 N.4       1 ANP500      0.0000 
      9 PA         13.4320   32.0860   -1.2900 P.3       1 ANP500      0.0000 
     10 O1A        14.6990   32.1130   -2.0520 O.co2     1 ANP500      0.0000 
     11 O2A        12.1420   32.2390   -2.0060 O.co2     1 ANP500      0.0000 
     12 O3A        13.3450   30.7080   -0.4490 O.3       1 ANP500      0.0000 
     13 O5'        13.4790   33.2550   -0.1720 O.3       1 ANP500      0.0000 
     14 C5'        12.2620   33.9040    0.1780 C.3       1 ANP500      0.0000 
     15 C4'        12.3050   35.4030   -0.0260 C.3       1 ANP500      0.0000 
     16 O4'        13.6450   35.9570    0.0320 O.3       1 ANP500      0.0000 
     17 C3'        11.7780   35.8940   -1.3590 C.3       1 ANP500      0.0000 
     18 O3'        10.3720   35.7540   -1.4410 O.3       1 ANP500      0.0000 
     19 C2'        12.2660   37.3390   -1.2830 C.3       1 ANP500      0.0000 
     20 O2'        11.5740   38.0180   -0.2490 O.3       1 ANP500      0.0000 
     21 C1'        13.6920   37.1150   -0.7760 C.3       1 ANP500      0.0000 
     22 N9         14.6380   36.8850   -1.8930 N.pl3     1 ANP500      0.0000 
     23 C8         15.1780   35.7020   -2.1940 C.2       1 ANP500      0.0000 
     24 N7         15.9500   35.8120   -3.2640 N.2       1 ANP500      0.0000 
     25 C5         15.9020   37.0840   -3.6510 C.ar      1 ANP500      0.0000 
     26 C6         16.4980   37.7730   -4.6850 C.ar      1 ANP500      0.0000 
     27 N6         17.2890   37.0770   -5.5110 N.pl3     1 ANP500      0.0000 
     28 N1         16.2690   39.0800   -4.8230 N.ar      1 ANP500      0.0000 
     29 C2         15.4760   39.7210   -3.9760 C.ar      1 ANP500      0.0000 
     30 N3         14.8800   39.0900   -2.9700 N.ar      1 ANP500      0.0000 
     31 C4         15.0670   37.7880   -2.7790 C.ar      1 ANP500      0.0000 
     32 H          11.9969   33.7162    1.2424 H         1 ANP500      0.0000 
     33 H          11.4086   33.5074   -0.4160 H         1 ANP500      0.0000 
     34 H          11.7007   35.8937    0.7512 H         1 ANP500      0.0000 
     35 H          12.3309   35.4050   -2.1178 H         1 ANP500      0.0000 
     36 H          12.2820   37.7676   -2.1946 H         1 ANP500      0.0000 
     37 H          13.9831   37.9724   -0.2090 H         1 ANP500      0.0000 
     38 H          15.0211   34.8713   -1.6895 H         1 ANP500      0.0000 
     39 H          17.7447   36.2795   -5.1157 H         1 ANP500      0.0000 
     40 H          17.3532   37.4171   -6.4492 H         1 ANP500      0.0000 
     41 H          15.3128   40.7601   -4.1029 H         1 ANP500      0.0000 
     42 H          10.1940   34.7956   -1.2180 H         1 ANP500      0.0000 
     43 H          10.7546   37.4694   -0.0826 H         1 ANP500      0.0000 
@<TRIPOS>BOND
     1    2    1 ar   
     2    3    1 ar   
     3    4    1 ar   
     4    8    1 1    
     5    6    5 ar   
     6    7    5 ar   
     7    8    5 1    
     8   12    5 1    
     9   10    9 ar   
    10   11    9 ar   
    11   12    9 1    
    12   13    9 1    
    13   14   13 1    
    14   15   14 1    
    15   32   14 1    
    16   33   14 1    
    17   16   15 1    
    18   17   15 1    
    19   34   15 1    
    20   21   16 1    
    21   18   17 1    
    22   19   17 1    
    23   35   17 1    
    24   42   18 1    
    25   20   19 1    
    26   21   19 1    
    27   36   19 1    
    28   43   20 1    
    29   22   21 1    
    30   37   21 1    
    31   23   22 1    
    32   31   22 1    
    33   24   23 2    
    34   38   23 1    
    35   25   24 1    
    36   26   25 ar   
    37   31   25 ar   
    38   27   26 1    
    39   28   26 ar   
    40   39   27 1    
    41   40   27 1    
    42   29   28 ar   
    43   30   29 ar   
    44   41   29 1    
    45   31   30 ar   
@<TRIPOS>SUBSTRUCTURE
     1 ANP500      1 GROUP   
@<TRIPOS>SET

