#    Name: 3dga_RJ1_1_INTS_M
#    Modification time : Mon Mar 24 23:16:05 2014

@<TRIPOS>MOLECULE
3dga_RJ1_1_INTS_M
   42     0     9     0     0
SMALL
NO_CHARGES


@<TRIPOS>ATOM
      1 CA         25.1625    6.3635   58.2875 C.3       3 GLC5        0.0000 
      2 CA         26.6480    5.5320   59.7080 C.3       9 GLL5        0.0000 
      3 CA         23.6770    7.1950   56.8670 C.3       6 GLP5        0.0000 
      4 CA         28.1305    2.2170   59.9285 C.3       3 GLC5        0.0000 
      5 CA         29.4650    3.2390   61.3980 C.3       9 GLL5        0.0000 
      6 CA         26.7960    1.1950   58.4590 C.3       6 GLP5        0.0000 
      7 CA         29.6300    1.7010   61.1030 C.3       3 GLC5        0.0000 
      8 CA         29.7950    0.1630   60.8080 C.3       6 GLP5        0.0000 
      9 CA         30.5675    4.4080   61.9805 C.3       3 GLC5        0.0000 
     10 CA         31.6700    5.5770   62.5630 C.3       6 GLP5        0.0000 
     11 CA         21.4160    6.0700   61.1445 C.3       3 GLC5        0.0000 
     12 CA         23.2530    5.2400   60.3250 C.3       9 GLL5        0.0000 
     13 CA         19.5790    6.9000   61.9640 C.3       6 GLP5        0.0000 
     14 CA         22.7050    3.4980   61.3855 C.3       3 GLC5        0.0000 
     15 CA         22.1570    1.7560   62.4460 C.3       6 GLP5        0.0000 
     16 CA         24.3080    6.0695   63.3995 C.3       3 GLC5        0.0000 
     17 CA         24.0210    6.8620   61.7000 C.3       9 GLL5        0.0000 
     18 CA         24.5950    5.2770   65.0990 C.3       6 GLP5        0.0000 
     19 CA         21.8000    6.8810   61.8320 C.3       3 GLC5        0.0000 
     20 OD1        28.9800    6.6045   54.2340 O.co2     2 ASC3        0.0000 
     21 OD1        29.6890    5.2210   55.8100 O.co2     8 ASL3        0.0000 
     22 OD1        29.0910    7.0070   52.5380 O.co2     5 ASP3        0.0000 
     23 OD1        28.7210    7.2060   55.1165 O.co2     2 ASC3        0.0000 
     24 OD1        28.5730    8.2100   54.3030 O.co2     5 ASP3        0.0000 
     25 O          29.5300    5.8775   53.5590 O.2       1 ALC1        0.0000 
     26 O          29.9690    4.7480   54.5800 O.2       7 ALL1        0.0000 
     27 O          29.0910    7.0070   52.5380 O.2       4 ALP1        0.0000 
     28 O          31.7170    2.5820   58.0690 O.2       1 ALC1        0.0000 
     29 O          30.5120    3.4340   58.7320 O.2       7 ALL1        0.0000 
     30 O          32.9220    1.7300   57.4060 O.2       4 ALP1        0.0000 
     31 O          28.9800    6.6045   54.2340 O.2       1 ALC1        0.0000 
     32 O          28.8690    6.2020   55.9300 O.2       7 ALL1        0.0000 
     33 O          28.7210    7.2060   55.1165 O.2       1 ALC1        0.0000 
     34 O          28.5730    8.2100   54.3030 O.2       4 ALP1        0.0000 
     35 CA         25.5607    4.0735   63.3490 C.3       3 GLC5        0.0000 
     36 CA         25.8740    4.6760   61.7840 C.3       9 GLL5        0.0000 
     37 CA         24.6620    3.7970   64.8250 C.3       6 GLP5        0.0000 
     38 CA         27.7022    2.0868   61.9518 C.3       3 GLC5        0.0000 
     39 CA         27.0450    4.0240   61.9620 C.3       9 GLL5        0.0000 
     40 CA         27.8600    0.1070   62.4080 C.3       6 GLP5        0.0000 
     41 CA         23.7254    6.5604   58.5222 C.3       3 GLC5        0.0000 
     42 CA         24.3060    6.1480   60.5390 C.3       9 GLL5        0.0000 
@<TRIPOS>BOND
@<TRIPOS>SUBSTRUCTURE
     1 ALC1       25 GROUP        1 X    ALC  0     ROOT ALC X 1
     2 ASC3       20 GROUP        1 X    ASC  0     **** ASC X 3
     3 GLC5        1 GROUP        1 X    GLC  0     **** GLC X 6
     4 ALP1       27 GROUP        1 Y    ALP  0     ROOT ALP Y 8
     5 ASP3       22 GROUP        1 Y    ASP  0     **** ASP Y 10
     6 GLP5        3 GROUP        1 Y    GLP  0     **** GLP Y 13
     7 ALL1       26 GROUP        1 Z    ALL  0     ROOT ALL Z 15
     8 ASL3       21 GROUP        1 Z    ASL  0     **** ASL Z 17
     9 GLL5        2 GROUP        1 Z    GLL  0     **** GLL Z 20
@<TRIPOS>SET

