#    Name: 3dga_RJ1_1_ligand
#    Modification time : Mon Mar 24 23:16:06 2014

@<TRIPOS>MOLECULE
3dga_RJ1_1_ligand
   29    29     1     0     0
SMALL
NO_CHARGES


@<TRIPOS>ATOM
      1 C1         25.6380    5.4370   60.6740 C.ar      1 RJ1609      0.0000 
      2 C2         25.8740    4.6760   61.7840 C.ar      1 RJ1609      0.0000 
      3 C3         27.0450    4.0240   61.9620 C.ar      1 RJ1609      0.0000 
      4 C4         28.0440    4.1090   61.0290 C.ar      1 RJ1609      0.0000 
      5 C5         27.8620    4.8730   59.8610 C.ar      1 RJ1609      0.0000 
      6 C6         26.6480    5.5320   59.7080 C.ar      1 RJ1609      0.0000 
      7 CL7        29.4650    3.2390   61.3980 Cl        1 RJ1609      0.0000 
      8 C8         24.3060    6.1480   60.5390 C.3       1 RJ1609      0.0000 
      9 F9         24.2830    7.0750   59.5210 F         1 RJ1609      0.0000 
     10 F10        23.2530    5.2400   60.3250 F         1 RJ1609      0.0000 
     11 F11        24.0210    6.8620   61.7000 F         1 RJ1609      0.0000 
     12 N12        28.8500    4.9850   58.8950 N.pl3     1 RJ1609      0.0000 
     13 C13        29.8560    4.3890   58.1720 C.cat     1 RJ1609      0.0000 
     14 N14        30.2380    4.7140   56.9210 N.pl3     1 RJ1609      0.0000 
     15 C15        29.6890    5.2210   55.8100 C.cat     1 RJ1609      0.0000 
     16 N16        29.9690    4.7480   54.5800 N.pl3     1 RJ1609      0.0000 
     17 N17        30.5120    3.4340   58.7320 N.pl3     1 RJ1609      0.0000 
     18 N18        28.8690    6.2020   55.9300 N.pl3     1 RJ1609      0.0000 
     19 H          25.1228    4.5995   62.5140 H         1 RJ1609      0.0000 
     20 H          27.1971    3.4469   62.8183 H         1 RJ1609      0.0000 
     21 H          26.4816    6.1078   58.8619 H         1 RJ1609      0.0000 
     22 H          28.8032    6.1639   58.5062 H         1 RJ1609      0.0000 
     23 H          31.3770    4.4870   56.7627 H         1 RJ1609      0.0000 
     24 H          30.5861    3.9621   54.5407 H         1 RJ1609      0.0000 
     25 H          29.5348    5.2249   53.8158 H         1 RJ1609      0.0000 
     26 H          31.2629    3.0443   58.1989 H         1 RJ1609      0.0000 
     27 H          30.2097    3.1706   59.6481 H         1 RJ1609      0.0000 
     28 H          28.5133    6.5849   55.0775 H         1 RJ1609      0.0000 
     29 H          28.6628    6.4913   56.8648 H         1 RJ1609      0.0000 
@<TRIPOS>BOND
     1    2    1 ar   
     2    6    1 ar   
     3    8    1 1    
     4    3    2 ar   
     5   19    2 1    
     6    4    3 ar   
     7   20    3 1    
     8    5    4 ar   
     9    7    4 1    
    10    6    5 ar   
    11   12    5 1    
    12   21    6 1    
    13    9    8 1    
    14   10    8 1    
    15   11    8 1    
    16   13   12 ar   
    17   22   12 1    
    18   14   13 ar   
    19   17   13 ar   
    20   15   14 ar   
    21   23   14 1    
    22   16   15 ar   
    23   18   15 ar   
    24   24   16 1    
    25   25   16 1    
    26   26   17 1    
    27   27   17 1    
    28   28   18 1    
    29   29   18 1    
@<TRIPOS>SUBSTRUCTURE
     1 RJ1609      1 GROUP   
@<TRIPOS>SET

