#    Name: 3apy_FAD_4_INTS_M
#    Modification time : Mon Mar 24 18:01:31 2014

@<TRIPOS>MOLECULE
3apy_FAD_4_INTS_M
  106     0    12     0     0
SMALL
NO_CHARGES


@<TRIPOS>ATOM
      1 N           4.1300   12.3060  -10.9070 N.am      2 SEC2        0.0000 
      2 N           4.5970   12.2440   -9.6050 N.am     10 SEL2        0.0000 
      3 N           3.6630   12.3680  -12.2090 N.am      6 SEP2        0.0000 
      4 NZ          4.4550   15.9035   -8.8000 N.4       3 LYC4        0.0000 
      5 NZ          5.0810   14.4250   -8.6120 N.4      11 LYL4        0.0000 
      6 NZ          3.8290   17.3820   -8.9880 N.4       7 LYP4        0.0000 
      7 N           4.4550   15.9035   -8.8000 N.am      2 SEC2        0.0000 
      8 N           5.0810   14.4250   -8.6120 N.am     10 SEL2        0.0000 
      9 N           3.8290   17.3820   -8.9880 N.am      6 SEP2        0.0000 
     10 CA          3.8885    9.9990   -7.6520 C.3       4 GLC5        0.0000 
     11 CA          5.4190   11.0340   -6.6950 C.3      12 GLL5        0.0000 
     12 CA          2.3580    8.9640   -8.6090 C.3       8 GLP5        0.0000 
     13 CA          6.4065   11.9960   -3.5710 C.3       4 GLC5        0.0000 
     14 CA          7.4090   11.4220   -5.1900 C.3      12 GLL5        0.0000 
     15 CA          5.4040   12.5700   -1.9520 C.3       8 GLP5        0.0000 
     16 O           9.1040   11.2745   -3.4210 O.2       1 ALC1        0.0000 
     17 O           8.0400   10.7300   -4.1220 O.2       9 ALL1        0.0000 
     18 O          10.1680   11.8190   -2.7200 O.2       5 ALP1        0.0000 
     19 CA         10.0530   12.9120   -7.2505 C.3       4 GLC5        0.0000 
     20 CA          8.4590   11.8900   -6.1730 C.3      12 GLL5        0.0000 
     21 CA         11.6470   13.9340   -8.3280 C.3       8 GLP5        0.0000 
     22 O           9.8715   12.0870   -4.0865 O.2       1 ALC1        0.0000 
     23 O           9.5750   12.3550   -5.4530 O.2       9 ALL1        0.0000 
     24 CA          8.3010    9.3360   -8.5225 C.3       4 GLC5        0.0000 
     25 CA          8.7540   10.6010   -6.9390 C.3      12 GLL5        0.0000 
     26 CA          7.8480    8.0710  -10.1060 C.3       8 GLP5        0.0000 
     27 CA         12.3435   11.0940  -10.1710 C.3       4 GLC5        0.0000 
     28 CA         11.2650    9.9340  -11.1290 C.3      12 GLL5        0.0000 
     29 CA         13.4220   12.2540   -9.2130 C.3       8 GLP5        0.0000 
     30 CA         12.6390   10.3110   -9.3285 C.3       4 GLC5        0.0000 
     31 CA         11.8560    8.3680   -9.4440 C.3      12 GLL5        0.0000 
     32 O          -7.5600   14.0135   -6.7025 O.2       1 ALC1        0.0000 
     33 O          -6.5020   14.3730   -6.1920 O.2       9 ALL1        0.0000 
     34 O          -8.6180   13.6540   -7.2130 O.2       5 ALP1        0.0000 
     35 N          -8.3320   16.3655   -7.1905 N.am      2 SEC2        0.0000 
     36 N          -6.9820   16.5180   -6.6470 N.am     10 SEL2        0.0000 
     37 N          -9.6820   16.2130   -7.7340 N.am      6 SEP2        0.0000 
     38 CA         -3.6255   17.5380   -6.5075 C.3       4 GLC5        0.0000 
     39 CA         -3.5980   17.9380   -4.7700 C.3      12 GLL5        0.0000 
     40 CA         -3.6530   17.1380   -8.2450 C.3       8 GLP5        0.0000 
     41 CA         -1.4800   23.0405   -3.9720 C.3       4 GLC5        0.0000 
     42 CA         -1.9780   21.2530   -4.0790 C.3      12 GLL5        0.0000 
     43 CA         -0.9820   24.8280   -3.8650 C.3       8 GLP5        0.0000 
     44 CA         -2.7025   21.8935   -2.2235 C.3       4 GLC5        0.0000 
     45 CA         -3.4270   22.5340   -0.3680 C.3       8 GLP5        0.0000 
     46 CA          1.4125   17.8610   -2.2990 C.3       4 GLC5        0.0000 
     47 CA         -0.0420   19.3180   -2.8370 C.3      12 GLL5        0.0000 
     48 CA          2.8670   16.4040   -1.7610 C.3       8 GLP5        0.0000 
     49 CA          0.5575   20.0430   -1.1830 C.3       4 GLC5        0.0000 
     50 CA          1.1570   20.7680    0.4710 C.3       8 GLP5        0.0000 
     51 CA         -1.1525   15.6545   -6.0065 C.3       4 GLC5        0.0000 
     52 CA         -1.0670   13.9980   -4.5740 C.3      12 GLL5        0.0000 
     53 CA         -1.2380   17.3110   -7.4390 C.3       8 GLP5        0.0000 
     54 CA         -1.7325   12.2680   -5.6690 C.3       4 GLC5        0.0000 
     55 CA         -2.3980   10.5380   -6.7640 C.3       8 GLP5        0.0000 
     56 N          -1.5980   12.2425   -6.6090 N.am      2 SEC2        0.0000 
     57 N          -1.7390   13.2530   -5.5610 N.am     10 SEL2        0.0000 
     58 N          -1.4570   11.2320   -7.6570 N.am      6 SEP2        0.0000 
     59 N           2.0790   12.8195   -2.6510 N.am      2 SEC2        0.0000 
     60 N           0.7980   13.7910   -2.9890 N.am     10 SEL2        0.0000 
     61 N           3.3600   11.8480   -2.3130 N.am      6 SEP2        0.0000 
     62 O           1.4730   14.6625   -3.4435 O.2       1 ALC1        0.0000 
     63 O           0.7980   13.7910   -2.9890 O.2       9 ALL1        0.0000 
     64 O           2.1480   15.5340   -3.8980 O.2       5 ALP1        0.0000 
     65 CA         -0.9495   11.2565   -5.5880 C.3       4 GLC5        0.0000 
     66 CA          0.4990   11.9750   -4.4120 C.3      12 GLL5        0.0000 
     67 CA         -0.6150   10.1530   -4.0700 C.3       4 GLC5        0.0000 
     68 CA         -1.7290    8.3310   -3.7280 C.3       8 GLP5        0.0000 
     69 N           2.0810   11.4495   -2.8510 N.am      2 SEC2        0.0000 
     70 N           0.8020   11.0510   -3.3890 N.am     10 SEL2        0.0000 
     71 O           0.2325   10.4430   -2.4925 O.2       1 ALC1        0.0000 
     72 O           0.8020   11.0510   -3.3890 O.2       9 ALL1        0.0000 
     73 O          -0.3370    9.8350   -1.5960 O.2       5 ALP1        0.0000 
     74 CA          1.4780   11.7725   -7.2055 C.3       4 GLC5        0.0000 
     75 CA          1.7580   12.4880   -5.1090 C.3      12 GLL5        0.0000 
     76 CA          1.1980   11.0570   -9.3020 C.3       8 GLP5        0.0000 
     77 CA          2.4385   14.2950   -4.1040 C.3       4 GLC5        0.0000 
     78 CA          3.1190   16.1020   -3.0990 C.3       8 GLP5        0.0000 
     79 NZ          2.7970   15.9785   -8.6665 N.4       3 LYC4        0.0000 
     80 NZ          1.7650   14.5750   -8.3450 N.4      11 LYL4        0.0000 
     81 N           0.7640   13.8145   -8.9590 N.am      2 SEC2        0.0000 
     82 N           1.7650   14.5750   -8.3450 N.am     10 SEL2        0.0000 
     83 N          -0.2370   13.0540   -9.5730 N.am      6 SEP2        0.0000 
     84 NZ          3.5225   16.2575   -7.6885 N.4       3 LYC4        0.0000 
     85 NZ          3.2160   15.1330   -6.3890 N.4      11 LYL4        0.0000 
     86 N           2.6820   15.3335   -5.1435 N.am      2 SEC2        0.0000 
     87 N           3.2160   15.1330   -6.3890 N.am     10 SEL2        0.0000 
     88 N           2.1480   15.5340   -3.8980 N.am      6 SEP2        0.0000 
     89 N           3.5225   16.2575   -7.6885 N.am      2 SEC2        0.0000 
     90 CA         11.3803   11.4823   -8.9718 C.3       4 GLC5        0.0000 
     91 CA         10.2010   10.0230   -8.9630 C.3      12 GLL5        0.0000 
     92 CA         12.4860   12.6930   -8.3350 C.3       8 GLP5        0.0000 
     93 CA         -4.9842   19.0422   -5.9105 C.3       4 GLC5        0.0000 
     94 CA         -6.5020   19.4690   -7.0770 C.3       8 GLP5        0.0000 
     95 CA         -3.2732   19.7188   -6.4175 C.3       4 GLC5        0.0000 
     96 CA         -3.3350   19.2930   -4.7180 C.3      12 GLL5        0.0000 
     97 CA         -3.0800   20.8220   -8.0910 C.3       8 GLP5        0.0000 
     98 CA         -2.0020   18.4205   -5.9235 C.3       4 GLC5        0.0000 
     99 CA         -2.5838   20.6660   -6.0897 C.3       4 GLC5        0.0000 
    100 CA         -2.1970   19.7670   -4.0980 C.3      12 GLL5        0.0000 
    101 CA          0.3930   18.4270   -4.5069 C.3       4 GLC5        0.0000 
    102 CA         -1.2980   18.8600   -3.5300 C.3      12 GLL5        0.0000 
    103 CA          1.9040   18.5660   -5.6290 C.3       8 GLP5        0.0000 
    104 CA         -1.6570   17.4541   -5.6605 C.3       4 GLC5        0.0000 
    105 CA          2.6187   12.5987   -3.3972 C.3       4 GLC5        0.0000 
    106 CA          4.1090   12.9660   -2.0340 C.3       8 GLP5        0.0000 
@<TRIPOS>BOND
@<TRIPOS>SUBSTRUCTURE
     1 ALC1       16 GROUP        1 X    ALC  0     ROOT ALC X 1
     2 SEC2        1 GROUP        1 X    SEC  0     **** SEC X 2
     3 LYC4        4 GROUP        1 X    LYC  0     **** LYC X 4
     4 GLC5       10 GROUP        1 X    GLC  0     **** GLC X 6
     5 ALP1       18 GROUP        1 Y    ALP  0     ROOT ALP Y 8
     6 SEP2        3 GROUP        1 Y    SEP  0     **** SEP Y 9
     7 LYP4        6 GROUP        1 Y    LYP  0     **** LYP Y 11
     8 GLP5       12 GROUP        1 Y    GLP  0     **** GLP Y 13
     9 ALL1       17 GROUP        1 Z    ALL  0     ROOT ALL Z 15
    10 SEL2        2 GROUP        1 Z    SEL  0     **** SEL Z 16
    11 LYL4        5 GROUP        1 Z    LYL  0     **** LYL Z 18
    12 GLL5       11 GROUP        1 Z    GLL  0     **** GLL Z 20
@<TRIPOS>SET

