#    Name: 3apy_FAD_4_ligand
#    Modification time : Mon Mar 24 18:01:31 2014

@<TRIPOS>MOLECULE
3apy_FAD_4_ligand
   84    89     1     0     0
SMALL
NO_CHARGES


@<TRIPOS>ATOM
      1 PA          4.7670   12.9790   -8.3100 P.3       1 FAD311      0.0000 
      2 O1A         4.5970   12.2440   -9.6050 O.co2     1 FAD311      0.0000 
      3 O2A         5.0810   14.4250   -8.6120 O.co2     1 FAD311      0.0000 
      4 O5B         5.8400   12.1910   -7.3980 O.3       1 FAD311      0.0000 
      5 C5B         5.4190   11.0340   -6.6950 C.3       1 FAD311      0.0000 
      6 C4B         6.6180   10.4150   -5.9980 C.3       1 FAD311      0.0000 
      7 O4B         7.5370    9.8920   -6.9460 O.3       1 FAD311      0.0000 
      8 C3B         7.4090   11.4220   -5.1900 C.3       1 FAD311      0.0000 
      9 O3B         8.0400   10.7300   -4.1220 O.3       1 FAD311      0.0000 
     10 C2B         8.4590   11.8900   -6.1730 C.3       1 FAD311      0.0000 
     11 O2B         9.5750   12.3550   -5.4530 O.3       1 FAD311      0.0000 
     12 C1B         8.7540   10.6010   -6.9390 C.3       1 FAD311      0.0000 
     13 N9A         9.2380   10.7830   -8.3220 N.pl3     1 FAD311      0.0000 
     14 C8A         8.8030   11.7190   -9.2230 C.2       1 FAD311      0.0000 
     15 N7A         9.4840   11.5500  -10.3880 N.2       1 FAD311      0.0000 
     16 C5A        10.3480   10.5200  -10.2540 C.ar      1 FAD311      0.0000 
     17 C6A        11.2650    9.9340  -11.1290 C.ar      1 FAD311      0.0000 
     18 N6A        11.1980   10.1820  -12.4230 N.pl3     1 FAD311      0.0000 
     19 N1A        12.0200    8.8640  -10.7230 N.ar      1 FAD311      0.0000 
     20 C2A        11.8560    8.3680   -9.4440 C.ar      1 FAD311      0.0000 
     21 N3A        10.9500    8.9480   -8.5820 N.ar      1 FAD311      0.0000 
     22 C4A        10.2010   10.0230   -8.9630 C.ar      1 FAD311      0.0000 
     23 N1         -4.4470   13.8970   -5.0130 N.2       1 FAD311      0.0000 
     24 C2         -5.6120   13.4690   -5.6270 C.2       1 FAD311      0.0000 
     25 O2         -5.8330   12.2700   -5.6730 O.2       1 FAD311      0.0000 
     26 N3         -6.5020   14.3730   -6.1920 N.am      1 FAD311      0.0000 
     27 C4         -6.2060   15.7210   -6.1340 C.2       1 FAD311      0.0000 
     28 O4         -6.9820   16.5180   -6.6470 O.2       1 FAD311      0.0000 
     29 C4X        -5.0430   16.1610   -5.4880 C.2       1 FAD311      0.0000 
     30 N5         -4.7440   17.5050   -5.4030 N.2       1 FAD311      0.0000 
     31 C5X        -3.5980   17.9380   -4.7700 C.ar      1 FAD311      0.0000 
     32 C6         -3.3350   19.2930   -4.7180 C.ar      1 FAD311      0.0000 
     33 C7         -2.1970   19.7670   -4.0980 C.ar      1 FAD311      0.0000 
     34 C7M        -1.9780   21.2530   -4.0790 C.3       1 FAD311      0.0000 
     35 C8         -1.2980   18.8600   -3.5300 C.ar      1 FAD311      0.0000 
     36 C8M        -0.0420   19.3180   -2.8370 C.3       1 FAD311      0.0000 
     37 C9         -1.5660   17.4870   -3.5860 C.ar      1 FAD311      0.0000 
     38 C9A        -2.7200   17.0210   -4.2060 C.ar      1 FAD311      0.0000 
     39 N10        -3.0070   15.6670   -4.2890 N.pl3     1 FAD311      0.0000 
     40 C10        -4.1590   15.2420   -4.9240 C.2       1 FAD311      0.0000 
     41 C1'        -2.0980   14.6550   -3.6660 C.3       1 FAD311      0.0000 
     42 C2'        -1.0670   13.9980   -4.5740 C.3       1 FAD311      0.0000 
     43 O2'        -1.7390   13.2530   -5.5610 O.3       1 FAD311      0.0000 
     44 C3'        -0.2120   13.0870   -3.6780 C.3       1 FAD311      0.0000 
     45 O3'         0.7980   13.7910   -2.9890 O.3       1 FAD311      0.0000 
     46 C4'         0.4990   11.9750   -4.4120 C.3       1 FAD311      0.0000 
     47 O4'         0.8020   11.0510   -3.3890 O.3       1 FAD311      0.0000 
     48 C5'         1.7580   12.4880   -5.1090 C.3       1 FAD311      0.0000 
     49 O5'         1.3740   13.3260   -6.1800 O.3       1 FAD311      0.0000 
     50 P           2.4730   14.0600   -7.1200 P.3       1 FAD311      0.0000 
     51 O1P         1.7650   14.5750   -8.3450 O.co2     1 FAD311      0.0000 
     52 O2P         3.2160   15.1330   -6.3890 O.co2     1 FAD311      0.0000 
     53 O3P         3.4060   12.8370   -7.5040 O.3       1 FAD311      0.0000 
     54 H           4.9932   10.2796   -7.3653 H         1 FAD311      0.0000 
     55 H           4.6700   11.2687   -5.9310 H         1 FAD311      0.0000 
     56 H           6.2821    9.6390   -5.3292 H         1 FAD311      0.0000 
     57 H           6.8016   12.2064   -4.9118 H         1 FAD311      0.0000 
     58 H           8.0209   12.5813   -6.8243 H         1 FAD311      0.0000 
     59 H           9.4916   10.0447   -6.3567 H         1 FAD311      0.0000 
     60 H           8.1284   12.3823   -9.0542 H         1 FAD311      0.0000 
     61 H          11.8735    9.7174  -12.9956 H         1 FAD311      0.0000 
     62 H          10.4779   10.8120  -12.7136 H         1 FAD311      0.0000 
     63 H          12.4170    7.5565   -9.1326 H         1 FAD311      0.0000 
     64 H          -7.3583   14.0440   -6.6411 H         1 FAD311      0.0000 
     65 H          -4.0002   19.9607   -5.1497 H         1 FAD311      0.0000 
     66 H          -0.9026   16.8224   -3.1647 H         1 FAD311      0.0000 
     67 H          -2.7151   13.8460   -3.1972 H         1 FAD311      0.0000 
     68 H          -1.5552   15.1277   -2.8076 H         1 FAD311      0.0000 
     69 H          -0.4399   14.7606   -4.9723 H         1 FAD311      0.0000 
     70 H          -0.8845   12.6066   -2.9467 H         1 FAD311      0.0000 
     71 H          -0.1733   11.5633   -5.1289 H         1 FAD311      0.0000 
     72 H           2.3270   11.6172   -5.4477 H         1 FAD311      0.0000 
     73 H           2.3570   13.0178   -4.3626 H         1 FAD311      0.0000 
     74 H          -1.1317   21.4977   -3.6058 H         1 FAD311      0.0000 
     75 H          -1.9172   21.6313   -5.0027 H         1 FAD311      0.0000 
     76 H          -2.7226   21.7322   -3.6144 H         1 FAD311      0.0000 
     77 H           0.4906   18.5477   -2.4861 H         1 FAD311      0.0000 
     78 H           0.5558   19.8314   -3.4527 H         1 FAD311      0.0000 
     79 H          -0.2430   19.9138   -2.0594 H         1 FAD311      0.0000 
     80 H           8.7395   11.3594   -3.7834 H         1 FAD311      0.0000 
     81 H           9.7452   11.6552   -4.7592 H         1 FAD311      0.0000 
     82 H          -2.6803   13.1776   -5.2320 H         1 FAD311      0.0000 
     83 H           0.8888   14.6583   -3.4786 H         1 FAD311      0.0000 
     84 H           0.0608   11.1483   -2.7248 H         1 FAD311      0.0000 
@<TRIPOS>BOND
     1    2    1 ar   
     2    3    1 ar   
     3    4    1 1    
     4   53    1 1    
     5    5    4 1    
     6    6    5 1    
     7   54    5 1    
     8   55    5 1    
     9    7    6 1    
    10    8    6 1    
    11   56    6 1    
    12   12    7 1    
    13    9    8 1    
    14   10    8 1    
    15   57    8 1    
    16   80    9 1    
    17   11   10 1    
    18   12   10 1    
    19   58   10 1    
    20   81   11 1    
    21   13   12 1    
    22   59   12 1    
    23   14   13 1    
    24   22   13 1    
    25   15   14 2    
    26   60   14 1    
    27   16   15 1    
    28   17   16 ar   
    29   22   16 ar   
    30   18   17 1    
    31   19   17 ar   
    32   61   18 1    
    33   62   18 1    
    34   20   19 ar   
    35   21   20 ar   
    36   63   20 1    
    37   22   21 ar   
    38   24   23 1    
    39   40   23 2    
    40   25   24 2    
    41   26   24 am   
    42   27   26 am   
    43   64   26 1    
    44   28   27 2    
    45   29   27 1    
    46   30   29 2    
    47   40   29 1    
    48   31   30 1    
    49   32   31 ar   
    50   38   31 ar   
    51   33   32 ar   
    52   65   32 1    
    53   34   33 1    
    54   35   33 ar   
    55   74   34 1    
    56   75   34 1    
    57   76   34 1    
    58   36   35 1    
    59   37   35 ar   
    60   77   36 1    
    61   78   36 1    
    62   79   36 1    
    63   38   37 ar   
    64   66   37 1    
    65   39   38 1    
    66   40   39 1    
    67   41   39 1    
    68   42   41 1    
    69   67   41 1    
    70   68   41 1    
    71   43   42 1    
    72   44   42 1    
    73   69   42 1    
    74   82   43 1    
    75   45   44 1    
    76   46   44 1    
    77   70   44 1    
    78   83   45 1    
    79   47   46 1    
    80   48   46 1    
    81   71   46 1    
    82   84   47 1    
    83   49   48 1    
    84   72   48 1    
    85   73   48 1    
    86   50   49 1    
    87   51   50 ar   
    88   52   50 ar   
    89   53   50 1    
@<TRIPOS>SUBSTRUCTURE
     1 FAD311      1 GROUP   
@<TRIPOS>SET

