#    Name: 1t3r_017_1_INTS_M
#    Modification time : Tue Mar 25 04:17:23 2014

@<TRIPOS>MOLECULE
1t3r_017_1_INTS_M
   89     0     9     0     0
SMALL
NO_CHARGES


@<TRIPOS>ATOM
      1 O          13.4020   33.7945   18.7655 O.2       1 ALC1        0.0000 
      2 O          14.2790   34.9250   18.2200 O.2       7 ALL1        0.0000 
      3 O          12.5250   32.6640   19.3110 O.2       4 ALP1        0.0000 
      4 CA         15.1870   36.5675   15.6925 C.3       3 GLC5        0.0000 
      5 CA         16.1930   35.1690   16.7600 C.3       9 GLL5        0.0000 
      6 CA         14.1810   37.9660   14.6250 C.3       6 GLP5        0.0000 
      7 CA         15.2315   30.7345   15.3055 C.3       3 GLC5        0.0000 
      8 CA         15.9190   32.4720   16.1870 C.3       9 GLL5        0.0000 
      9 CA         14.5440   28.9970   14.4240 C.3       6 GLP5        0.0000 
     10 CA         23.1175   34.2645   14.5170 C.3       3 GLC5        0.0000 
     11 CA         22.2790   32.3170   15.0340 C.3       9 GLL5        0.0000 
     12 CA         23.9560   36.2120   14.0000 C.3       6 GLP5        0.0000 
     13 CA         23.9150   30.9390   14.9950 C.3       3 GLC5        0.0000 
     14 CA         25.5510   29.5610   14.9560 C.3       6 GLP5        0.0000 
     15 CA         21.4085   33.8970   13.7075 C.3       3 GLC5        0.0000 
     16 CA         20.5380   35.4770   12.3810 C.3       6 GLP5        0.0000 
     17 CA         22.8650   32.7870   19.0745 C.3       3 GLC5        0.0000 
     18 CA         22.2820   33.4010   17.3290 C.3       9 GLL5        0.0000 
     19 CA         23.4480   32.1730   20.8200 C.3       6 GLP5        0.0000 
     20 CA         17.5430   30.5585   17.8640 C.3       3 GLC5        0.0000 
     21 CA         19.0630   30.4330   16.2940 C.3       9 GLL5        0.0000 
     22 CA         16.0230   30.6840   19.4340 C.3       6 GLP5        0.0000 
     23 N          19.3530   27.7370   17.9065 N.am      2 SEC2        0.0000 
     24 N          19.8950   28.2060   16.6040 N.am      8 SEL2        0.0000 
     25 N          18.8110   27.2680   19.2090 N.am      5 SEP2        0.0000 
     26 O          20.7505   27.8800   17.5135 O.2       1 ALC1        0.0000 
     27 O          19.8950   28.2060   16.6040 O.2       7 ALL1        0.0000 
     28 O          21.6060   27.5540   18.4230 O.2       4 ALP1        0.0000 
     29 O          21.4225   28.5975   17.0185 O.2       1 ALC1        0.0000 
     30 O          22.9500   28.9890   17.4330 O.2       4 ALP1        0.0000 
     31 O          20.4205   26.5770   14.2890 O.2       1 ALC1        0.0000 
     32 O          20.7090   28.0310   13.8050 O.2       7 ALL1        0.0000 
     33 O          20.1320   25.1230   14.7730 O.2       4 ALP1        0.0000 
     34 CA         26.2150   25.4955   11.7280 C.3       3 GLC5        0.0000 
     35 CA         24.6400   26.8960   11.9120 C.3       9 GLL5        0.0000 
     36 CA         27.7900   24.0950   11.5440 C.3       6 GLP5        0.0000 
     37 CA         26.4600   27.7560   11.9820 C.3       3 GLC5        0.0000 
     38 CA         28.2800   28.6160   12.0520 C.3       6 GLP5        0.0000 
     39 CA         25.0955   28.2285   13.4340 C.3       3 GLC5        0.0000 
     40 N          25.2670   24.3940   12.5005 N.am      2 SEC2        0.0000 
     41 N          24.4130   25.4750   11.8330 N.am      8 SEL2        0.0000 
     42 N          26.1210   23.3130   13.1680 N.am      5 SEP2        0.0000 
     43 CA         23.1925   25.1300   12.9740 C.3       3 GLC5        0.0000 
     44 CA         23.4930   25.2270   10.7790 C.3       9 GLL5        0.0000 
     45 CA         22.8920   25.0330   15.1690 C.3       6 GLP5        0.0000 
     46 CA         23.7135   23.3535   11.3760 C.3       3 GLC5        0.0000 
     47 CA         23.9340   21.4800   11.9730 C.3       6 GLP5        0.0000 
     48 N          22.9875   23.7615   12.4770 N.am      2 SEC2        0.0000 
     49 N          22.4830   24.3630   11.2360 N.am      8 SEL2        0.0000 
     50 N          23.4920   23.1600   13.7180 N.am      5 SEP2        0.0000 
     51 CA         22.0425   25.0480   13.2325 C.3       3 GLC5        0.0000 
     52 CA         21.1930   25.0630   11.2960 C.3       9 GLL5        0.0000 
     53 CA         17.1080   25.2275   13.6465 C.3       3 GLC5        0.0000 
     54 CA         18.0540   26.4000   12.3630 C.3       9 GLL5        0.0000 
     55 CA         16.1620   24.0550   14.9300 C.3       6 GLP5        0.0000 
     56 CA         14.0545   34.7212   15.7413 C.3       3 GLC5        0.0000 
     57 CA         14.9790   33.1070   17.0030 C.3       9 GLL5        0.0000 
     58 CA         13.0220   35.7240   14.2910 C.3       6 GLP5        0.0000 
     59 CA         15.5678   32.8205   14.0828 C.3       3 GLC5        0.0000 
     60 CA         14.6700   32.7950   12.2640 C.3       6 GLP5        0.0000 
     61 CA         15.7630   31.8896   18.0616 C.3       3 GLC5        0.0000 
     62 CA         13.6770   32.9746   16.3746 C.3       3 GLC5        0.0000 
     63 CA         11.8510   32.8540   16.0600 C.3       6 GLP5        0.0000 
     64 CA         23.8590   32.0115   17.1477 C.3       3 GLC5        0.0000 
     65 CA         21.6280   32.3550   16.4320 C.3       9 GLL5        0.0000 
     66 CA         25.7630   31.1450   17.4150 C.3       6 GLP5        0.0000 
     67 CA         23.9763   26.5972   13.6375 C.3       3 GLC5        0.0000 
     68 CA         23.3210   27.5110   11.4960 C.3       9 GLL5        0.0000 
     69 CA         23.9720   25.9910   15.5710 C.3       6 GLP5        0.0000 
     70 CA         24.5173   29.1663   11.5865 C.3       3 GLC5        0.0000 
     71 CA         25.0540   31.1290   11.4690 C.3       6 GLP5        0.0000 
     72 CA         16.1513   26.1152   11.7545 C.3       3 GLC5        0.0000 
     73 CA         14.3600   26.0180   11.8020 C.3       6 GLP5        0.0000 
     74 CA         16.2278   27.9875    8.9855 C.3       3 GLC5        0.0000 
     75 CA         17.5970   26.9810   10.0980 C.3       9 GLL5        0.0000 
     76 CA         14.8820   28.3380    7.6920 C.3       6 GLP5        0.0000 
     77 CA         15.9668   26.8275   11.0405 C.3       3 GLC5        0.0000 
     78 CA         17.5500   28.2930   10.4600 C.3       9 GLL5        0.0000 
     79 CA         19.0943   29.4348    9.9038 C.3       3 GLC5        0.0000 
     80 CA         20.5310   30.3860    8.6940 C.3       6 GLP5        0.0000 
     81 CA         17.4513   30.2757   10.2743 C.3       3 GLC5        0.0000 
     82 CA         17.2450   32.0680    9.4350 C.3       6 GLP5        0.0000 
     83 CA         16.1273   27.1108   12.0320 C.3       3 GLC5        0.0000 
     84 CA         17.7650   28.6740   11.7670 C.3       9 GLL5        0.0000 
     85 CA         16.2546   28.6523   13.5191 C.3       3 GLC5        0.0000 
     86 CA         18.0240   27.7330   12.7570 C.3       9 GLL5        0.0000 
     87 CA         24.9886   26.3884    9.8179 C.3       3 GLC5        0.0000 
     88 CA         22.8390   26.5370   10.3960 C.3       9 GLL5        0.0000 
     89 CA         26.4040   26.2340    8.4900 C.3       6 GLP5        0.0000 
@<TRIPOS>BOND
@<TRIPOS>SUBSTRUCTURE
     1 ALC1        1 GROUP        1 X    ALC  0     ROOT ALC X 1
     2 SEC2       23 GROUP        1 X    SEC  0     **** SEC X 2
     3 GLC5        4 GROUP        1 X    GLC  0     **** GLC X 6
     4 ALP1        3 GROUP        1 Y    ALP  0     ROOT ALP Y 8
     5 SEP2       25 GROUP        1 Y    SEP  0     **** SEP Y 9
     6 GLP5        6 GROUP        1 Y    GLP  0     **** GLP Y 13
     7 ALL1        2 GROUP        1 Z    ALL  0     ROOT ALL Z 15
     8 SEL2       24 GROUP        1 Z    SEL  0     **** SEL Z 16
     9 GLL5        5 GROUP        1 Z    GLL  0     **** GLL Z 20
@<TRIPOS>SET

