#    Name: 1t3r_017_1_ligand
#    Modification time : Tue Mar 25 04:17:23 2014

@<TRIPOS>MOLECULE
1t3r_017_1_ligand
   75    78     1     0     0
SMALL
NO_CHARGES


@<TRIPOS>ATOM
      1 N1         14.2790   34.9250   18.2200 N.pl3     1 0171200     0.0000 
      2 C2         15.1950   34.3300   17.3800 C.ar      1 0171200     0.0000 
      3 C3         16.1930   35.1690   16.7600 C.ar      1 0171200     0.0000 
      4 C4         17.1800   34.5130   15.8670 C.ar      1 0171200     0.0000 
      5 C5         17.0120   33.2200   15.6160 C.ar      1 0171200     0.0000 
      6 C6         15.9190   32.4720   16.1870 C.ar      1 0171200     0.0000 
      7 C7         14.9790   33.1070   17.0030 C.ar      1 0171200     0.0000 
      8 S8         18.1360   32.3310   14.6600 S.o2      1 0171200     0.0000 
      9 O9         18.7560   33.2470   13.7850 O.2       1 0171200     0.0000 
     10 O10        17.4530   31.2210   14.0980 O.2       1 0171200     0.0000 
     11 N11        19.3160   31.7080   15.5980 N.pl3     1 0171200     0.0000 
     12 C12        20.1280   32.6990   16.3530 C.3       1 0171200     0.0000 
     13 C13        21.6280   32.3550   16.4320 C.3       1 0171200     0.0000 
     14 C14        22.2790   32.3170   15.0340 C.3       1 0171200     0.0000 
     15 C15        22.2820   33.4010   17.3290 C.3       1 0171200     0.0000 
     16 C16        19.0630   30.4330   16.2940 C.3       1 0171200     0.0000 
     17 C17        19.9620   29.3370   15.7380 C.3       1 0171200     0.0000 
     18 O18        19.8950   28.2060   16.6040 O.3       1 0171200     0.0000 
     19 C19        19.5990   28.8950   14.2970 C.3       1 0171200     0.0000 
     20 N20        20.7090   28.0310   13.8050 N.am      1 0171200     0.0000 
     21 C21        21.5660   28.4050   12.8870 C.2       1 0171200     0.0000 
     22 O22        21.6340   29.4420   12.2990 O.2       1 0171200     0.0000 
     23 O23        22.4690   27.4020   12.6550 O.3       1 0171200     0.0000 
     24 C24        23.3210   27.5110   11.4960 C.3       1 0171200     0.0000 
     25 C25        24.6400   26.8960   11.9120 C.3       1 0171200     0.0000 
     26 O26        24.4130   25.4750   11.8330 O.3       1 0171200     0.0000 
     27 C27        23.4930   25.2270   10.7790 C.3       1 0171200     0.0000 
     28 O28        22.4830   24.3630   11.2360 O.3       1 0171200     0.0000 
     29 C29        21.1930   25.0630   11.2960 C.3       1 0171200     0.0000 
     30 C30        21.3630   26.2560   10.3830 C.3       1 0171200     0.0000 
     31 C31        22.8390   26.5370   10.3960 C.3       1 0171200     0.0000 
     32 C32        18.3070   28.1490   14.1660 C.3       1 0171200     0.0000 
     33 C33        18.0540   26.4000   12.3630 C.ar      1 0171200     0.0000 
     34 C34        17.8310   26.0250   11.0510 C.ar      1 0171200     0.0000 
     35 C35        17.5970   26.9810   10.0980 C.ar      1 0171200     0.0000 
     36 C36        17.5500   28.2930   10.4600 C.ar      1 0171200     0.0000 
     37 C37        17.7650   28.6740   11.7670 C.ar      1 0171200     0.0000 
     38 C38        18.0240   27.7330   12.7570 C.ar      1 0171200     0.0000 
     39 H          13.5850   34.3214   18.6125 H         1 0171200     0.0000 
     40 H          14.3880   35.9086   18.3639 H         1 0171200     0.0000 
     41 H          16.2329   36.1419   16.9121 H         1 0171200     0.0000 
     42 H          17.9216   35.0893   15.5028 H         1 0171200     0.0000 
     43 H          15.8490   31.4740   15.9821 H         1 0171200     0.0000 
     44 H          14.1357   32.5694   17.2784 H         1 0171200     0.0000 
     45 H          19.7455   32.7942   17.3867 H         1 0171200     0.0000 
     46 H          20.0319   33.6994   15.8905 H         1 0171200     0.0000 
     47 H          21.7272   31.3908   16.8990 H         1 0171200     0.0000 
     48 H          18.0209   30.1269   16.1660 H         1 0171200     0.0000 
     49 H          19.2603   30.5354   17.3648 H         1 0171200     0.0000 
     50 H          20.9859   29.7202   15.7117 H         1 0171200     0.0000 
     51 H          19.5724   29.7881   13.6754 H         1 0171200     0.0000 
     52 H          20.7443   27.0839   14.2647 H         1 0171200     0.0000 
     53 H          23.4548   28.4413   11.1273 H         1 0171200     0.0000 
     54 H          24.8662   27.2081   12.9150 H         1 0171200     0.0000 
     55 H          25.4026   27.2163   11.2262 H         1 0171200     0.0000 
     56 H          23.9852   24.8389    9.9135 H         1 0171200     0.0000 
     57 H          20.9876   25.4058   12.2909 H         1 0171200     0.0000 
     58 H          20.4015   24.4429   10.9237 H         1 0171200     0.0000 
     59 H          20.8258   27.0914   10.7761 H         1 0171200     0.0000 
     60 H          21.0451   26.0032    9.3950 H         1 0171200     0.0000 
     61 H          23.2006   26.8317    9.4631 H         1 0171200     0.0000 
     62 H          17.4818   28.7827   14.5324 H         1 0171200     0.0000 
     63 H          18.3354   27.2553   14.8119 H         1 0171200     0.0000 
     64 H          18.2498   25.6675   13.0771 H         1 0171200     0.0000 
     65 H          17.8420   25.0248   10.7957 H         1 0171200     0.0000 
     66 H          17.4576   26.7046    9.1120 H         1 0171200     0.0000 
     67 H          17.3496   29.0233    9.7455 H         1 0171200     0.0000 
     68 H          17.7341   29.6802   12.0220 H         1 0171200     0.0000 
     69 H          23.2535   32.0983   15.0839 H         1 0171200     0.0000 
     70 H          21.8541   31.6295   14.4450 H         1 0171200     0.0000 
     71 H          22.1996   33.1957   14.5633 H         1 0171200     0.0000 
     72 H          23.2648   33.2443   17.4266 H         1 0171200     0.0000 
     73 H          22.1672   34.3257   16.9659 H         1 0171200     0.0000 
     74 H          21.8917   33.3971   18.2497 H         1 0171200     0.0000 
     75 H          20.8014   28.1464   17.0222 H         1 0171200     0.0000 
@<TRIPOS>BOND
     1    2    1 1    
     2   39    1 1    
     3   40    1 1    
     4    3    2 ar   
     5    7    2 ar   
     6    4    3 ar   
     7   41    3 1    
     8    5    4 ar   
     9   42    4 1    
    10    6    5 ar   
    11    8    5 1    
    12    7    6 ar   
    13   43    6 1    
    14   44    7 1    
    15    9    8 2    
    16   10    8 2    
    17   11    8 1    
    18   12   11 1    
    19   16   11 1    
    20   13   12 1    
    21   45   12 1    
    22   46   12 1    
    23   14   13 1    
    24   15   13 1    
    25   47   13 1    
    26   69   14 1    
    27   70   14 1    
    28   71   14 1    
    29   72   15 1    
    30   73   15 1    
    31   74   15 1    
    32   17   16 1    
    33   48   16 1    
    34   49   16 1    
    35   18   17 1    
    36   19   17 1    
    37   50   17 1    
    38   75   18 1    
    39   20   19 1    
    40   32   19 1    
    41   51   19 1    
    42   21   20 am   
    43   52   20 1    
    44   22   21 2    
    45   23   21 1    
    46   24   23 1    
    47   25   24 1    
    48   31   24 1    
    49   53   24 1    
    50   26   25 1    
    51   54   25 1    
    52   55   25 1    
    53   27   26 1    
    54   28   27 1    
    55   31   27 1    
    56   56   27 1    
    57   29   28 1    
    58   30   29 1    
    59   57   29 1    
    60   58   29 1    
    61   31   30 1    
    62   59   30 1    
    63   60   30 1    
    64   61   31 1    
    65   38   32 1    
    66   62   32 1    
    67   63   32 1    
    68   34   33 ar   
    69   38   33 ar   
    70   64   33 1    
    71   35   34 ar   
    72   65   34 1    
    73   36   35 ar   
    74   66   35 1    
    75   37   36 ar   
    76   67   36 1    
    77   38   37 ar   
    78   68   37 1    
@<TRIPOS>SUBSTRUCTURE
     1 0171200     1 GROUP   
@<TRIPOS>SET

