#    Name: 4dma_0L8_1_INTS_M
#    Modification time : Mon Apr  7 22:51:27 2014

@<TRIPOS>MOLECULE
4dma_0L8_1_INTS_M
   71     0     9     0     0
SMALL
NO_CHARGES


@<TRIPOS>ATOM
      1 CA          1.5900    1.8805   -4.1680 C.3       3 GLC5        0.0000 
      2 CA          3.0440    0.6480   -3.8850 C.3       9 GLL5        0.0000 
      3 CA          0.1360    3.1130   -4.4510 C.3       6 GLP5        0.0000 
      4 CA          3.6815    1.5700   -6.3265 C.3       3 GLC5        0.0000 
      5 CA          4.3620    0.9400   -4.3560 C.3       9 GLL5        0.0000 
      6 CA          3.0010    2.2000   -8.2970 C.3       6 GLP5        0.0000 
      7 CA          2.1985   -3.1995   -5.1995 C.3       3 GLC5        0.0000 
      8 CA          3.1930   -1.6070   -4.7390 C.3       9 GLL5        0.0000 
      9 CA          1.2040   -4.7920   -5.6600 C.3       6 GLP5        0.0000 
     10 CA          7.5415   -1.2260   -3.4625 C.3       3 GLC5        0.0000 
     11 CA          7.7100    0.5000   -4.7160 C.3       9 GLL5        0.0000 
     12 CA          7.3730   -2.9520   -2.2090 C.3       6 GLP5        0.0000 
     13 CA          8.2525    0.5550   -2.6335 C.3       3 GLC5        0.0000 
     14 CA          8.7950    0.6100   -0.5510 C.3       6 GLP5        0.0000 
     15 CA         10.0535    1.0945   -3.2265 C.3       3 GLC5        0.0000 
     16 CA          9.0530    0.7060   -5.2040 C.3       9 GLL5        0.0000 
     17 CA         11.0540    1.4830   -1.2490 C.3       6 GLP5        0.0000 
     18 CA          5.4295    0.2250   -8.3660 C.3       3 GLC5        0.0000 
     19 CA          6.9380    0.0790   -7.0110 C.3       9 GLL5        0.0000 
     20 CA          3.9210    0.3710   -9.7210 C.3       6 GLP5        0.0000 
     21 N          11.5775    2.0675   -7.4745 N.am      2 SEC2        0.0000 
     22 N          10.6180    0.7680   -7.0690 N.am      8 SEL2        0.0000 
     23 N          12.5370    3.3670   -7.8800 N.am      5 SEP2        0.0000 
     24 O          11.0805   -0.0595   -7.9545 O.2       1 ALC1        0.0000 
     25 O          10.6180    0.7680   -7.0690 O.2       7 ALL1        0.0000 
     26 O          11.5430   -0.8870   -8.8400 O.2       4 ALP1        0.0000 
     27 CA          6.7165    3.7575   -4.2150 C.3       3 GLC5        0.0000 
     28 CA          4.8380    2.6930   -3.9350 C.3       9 GLL5        0.0000 
     29 CA          8.5950    4.8220   -4.4950 C.3       6 GLP5        0.0000 
     30 CA          5.2075    3.8505   -5.3845 C.3       3 GLC5        0.0000 
     31 CA          5.5770    5.0080   -6.8340 C.3       6 GLP5        0.0000 
     32 CA          5.4755    3.9735   -2.8340 C.3       3 GLC5        0.0000 
     33 CA          6.1130    5.2540   -1.7330 C.3       6 GLP5        0.0000 
     34 CA         -0.5760   -0.6700   -2.6895 C.3       3 GLC5        0.0000 
     35 CA          1.0760   -0.8990   -3.5590 C.3       9 GLL5        0.0000 
     36 CA         -2.2280   -0.4410   -1.8200 C.3       6 GLP5        0.0000 
     37 CA          0.2850   -2.8515   -3.3595 C.3       3 GLC5        0.0000 
     38 CA         -0.5060   -4.8040   -3.1600 C.3       6 GLP5        0.0000 
     39 N          -0.7655   -0.8350   -3.8565 N.am      2 SEC2        0.0000 
     40 N           0.2100   -1.3030   -4.6050 N.am      8 SEL2        0.0000 
     41 N          -1.7410   -0.3670   -3.1080 N.am      5 SEP2        0.0000 
     42 CA          4.3445   -1.3755   -8.4010 C.3       3 GLC5        0.0000 
     43 CA          4.7680   -3.1220   -7.0810 C.3       9 GLL5        0.0000 
     44 CA          3.6365   -3.8070   -8.3875 C.3       3 GLC5        0.0000 
     45 CA          2.5050   -4.4920   -9.6940 C.3       6 GLP5        0.0000 
     46 CA          2.9860   -3.9570   -6.3705 C.3       3 GLC5        0.0000 
     47 CA          4.8250   -5.1430   -7.9910 C.3       3 GLC5        0.0000 
     48 CA          4.8820   -7.1640   -8.9010 C.3       6 GLP5        0.0000 
     49 CA          6.2340   -6.0650   -6.5430 C.3       3 GLC5        0.0000 
     50 CA          6.2710   -4.3810   -6.2260 C.3       9 GLL5        0.0000 
     51 CA          6.1970   -7.7490   -6.8600 C.3       6 GLP5        0.0000 
     52 CA          0.8730    0.7065   -4.9053 C.3       3 GLC5        0.0000 
     53 CA          2.4540   -0.6130   -4.0700 C.3       9 GLL5        0.0000 
     54 CA         -0.0190    2.1690   -5.9960 C.3       6 GLP5        0.0000 
     55 CA          5.3345    1.3533   -2.1872 C.3       3 GLC5        0.0000 
     56 CA          6.0690    0.8900   -0.2290 C.3       6 GLP5        0.0000 
     57 CA          6.0860   -2.4700   -3.8885 C.3       3 GLC5        0.0000 
     58 CA          4.5190   -1.3880   -5.2420 C.3       9 GLL5        0.0000 
     59 CA          8.4883    2.7125   -4.7275 C.3       3 GLC5        0.0000 
     60 CA         10.1079   -0.6798   -4.9078 C.3       3 GLC5        0.0000 
     61 CA         11.3580   -1.9550   -4.0300 C.3       6 GLP5        0.0000 
     62 CA          7.9043   -1.8147   -8.0098 C.3       3 GLC5        0.0000 
     63 CA          8.2650    0.2760   -7.5120 C.3       9 GLL5        0.0000 
     64 CA          8.2070   -3.8070   -8.7580 C.3       6 GLP5        0.0000 
     65 CA          6.7767   -3.4312   -3.9930 C.3       3 GLC5        0.0000 
     66 CA          6.0900   -3.4400   -5.3280 C.3       9 GLL5        0.0000 
     67 CA          8.2052   -3.7292   -5.6860 C.3       3 GLC5        0.0000 
     68 CA         10.2300   -3.5480   -5.5950 C.3       6 GLP5        0.0000 
     69 CA          6.9653   -3.7658   -7.5220 C.3       3 GLC5        0.0000 
     70 CA          4.4914   -4.8037   -5.1478 C.3       3 GLC5        0.0000 
     71 CA          3.0550   -5.9100   -4.3770 C.3       6 GLP5        0.0000 
@<TRIPOS>BOND
@<TRIPOS>SUBSTRUCTURE
     1 ALC1       24 GROUP        1 X    ALC  0     ROOT ALC X 1
     2 SEC2       21 GROUP        1 X    SEC  0     **** SEC X 2
     3 GLC5        1 GROUP        1 X    GLC  0     **** GLC X 6
     4 ALP1       26 GROUP        1 Y    ALP  0     ROOT ALP Y 8
     5 SEP2       23 GROUP        1 Y    SEP  0     **** SEP Y 9
     6 GLP5        3 GROUP        1 Y    GLP  0     **** GLP Y 13
     7 ALL1       25 GROUP        1 Z    ALL  0     ROOT ALL Z 15
     8 SEL2       22 GROUP        1 Z    SEL  0     **** SEL Z 16
     9 GLL5        2 GROUP        1 Z    GLL  0     **** GLL Z 20
@<TRIPOS>SET

