#    Name: 4dma_0L8_1_ligand
#    Modification time : Mon Apr  7 22:51:27 2014

@<TRIPOS>MOLECULE
4dma_0L8_1_ligand
   34    36     1     0     0
SMALL
NO_CHARGES


@<TRIPOS>ATOM
      1 C1          2.4540   -0.6130   -4.0700 C.ar      1 0L8701      0.0000 
      2 C2          3.0440    0.6480   -3.8850 C.ar      1 0L8701      0.0000 
      3 C3          4.3620    0.9400   -4.3560 C.ar      1 0L8701      0.0000 
      4 C4          5.1810   -0.0730   -5.0690 C.ar      1 0L8701      0.0000 
      5 C5          4.5190   -1.3880   -5.2420 C.ar      1 0L8701      0.0000 
      6 C6          3.1930   -1.6070   -4.7390 C.ar      1 0L8701      0.0000 
      7 C7          6.6260    0.1810   -5.6020 C.ar      1 0L8701      0.0000 
      8 C8          7.7100    0.5000   -4.7160 C.ar      1 0L8701      0.0000 
      9 C9          9.0530    0.7060   -5.2040 C.ar      1 0L8701      0.0000 
     10 C10         9.3340    0.5880   -6.6110 C.ar      1 0L8701      0.0000 
     11 C11         8.2650    0.2760   -7.5120 C.ar      1 0L8701      0.0000 
     12 C12         6.9380    0.0790   -7.0110 C.ar      1 0L8701      0.0000 
     13 C13         5.0790   -2.5880   -5.8940 C.2       1 0L8701      0.0000 
     14 O14        10.6180    0.7680   -7.0690 O.3       1 0L8701      0.0000 
     15 BR1         4.8380    2.6930   -3.9350 Br        1 0L8701      0.0000 
     16 C16         1.0760   -0.8990   -3.5590 C.3       1 0L8701      0.0000 
     17 O17         0.2100   -1.3030   -4.6050 O.3       1 0L8701      0.0000 
     18 C14         6.0900   -3.4400   -5.3280 C.2       1 0L8701      0.0000 
     19 C17         4.7680   -3.1220   -7.0810 C.2       1 0L8701      0.0000 
     20 C15         6.2710   -4.3810   -6.2260 C.2       1 0L8701      0.0000 
     21 O1          5.4830   -4.2340   -7.3260 O.3       1 0L8701      0.0000 
     22 H           2.5203    1.3919   -3.3967 H         1 0L8701      0.0000 
     23 H           2.7691   -2.5454   -4.8806 H         1 0L8701      0.0000 
     24 H           7.5292    0.5843   -3.7114 H         1 0L8701      0.0000 
     25 H           9.7954    0.9332   -4.5558 H         1 0L8701      0.0000 
     26 H           8.4485    0.1945   -8.5070 H         1 0L8701      0.0000 
     27 H           6.1797   -0.1419   -7.6676 H         1 0L8701      0.0000 
     28 H           0.7001    0.0118   -3.0534 H         1 0L8701      0.0000 
     29 H           1.1538   -1.6785   -2.7761 H         1 0L8701      0.0000 
     30 H           6.4844   -3.2900   -4.4958 H         1 0L8701      0.0000 
     31 H           4.0962   -2.7478   -7.7032 H         1 0L8701      0.0000 
     32 H           6.9175   -5.1410   -6.1345 H         1 0L8701      0.0000 
     33 H          10.7712    0.0170   -7.7113 H         1 0L8701      0.0000 
     34 H           0.5973   -2.1599   -4.9451 H         1 0L8701      0.0000 
@<TRIPOS>BOND
     1    2    1 ar   
     2    6    1 ar   
     3   16    1 1    
     4    3    2 ar   
     5   22    2 1    
     6    4    3 ar   
     7   15    3 1    
     8    5    4 ar   
     9    7    4 1    
    10    6    5 ar   
    11   13    5 1    
    12   23    6 1    
    13    8    7 ar   
    14   12    7 ar   
    15    9    8 ar   
    16   24    8 1    
    17   10    9 ar   
    18   25    9 1    
    19   11   10 ar   
    20   14   10 1    
    21   12   11 ar   
    22   26   11 1    
    23   27   12 1    
    24   18   13 1    
    25   19   13 2    
    26   33   14 1    
    27   17   16 1    
    28   28   16 1    
    29   29   16 1    
    30   34   17 1    
    31   20   18 2    
    32   30   18 1    
    33   21   19 1    
    34   31   19 1    
    35   21   20 1    
    36   32   20 1    
@<TRIPOS>SUBSTRUCTURE
     1 0L8701      1 GROUP   
@<TRIPOS>SET

