#    Name: 3uov_FAD_1_INTS_M
#    Modification time : Mon Mar 24 23:11:11 2014

@<TRIPOS>MOLECULE
3uov_FAD_1_INTS_M
  120     0     9     0     0
SMALL
NO_CHARGES


@<TRIPOS>ATOM
      1 N          29.7165   31.6480   30.8215 N.am      2 SEC2        0.0000 
      2 N          29.4820   32.2530   32.0180 N.am      8 SEL2        0.0000 
      3 N          29.9510   31.0430   29.6250 N.am      5 SEP2        0.0000 
      4 N          29.1015   32.9330   30.7505 N.am      2 SEC2        0.0000 
      5 N          28.7210   33.6130   29.4830 N.am      5 SEP2        0.0000 
      6 CA         26.4245   31.1945   34.6220 C.3       3 GLC5        0.0000 
      7 CA         27.8200   29.8120   34.4810 C.3       9 GLL5        0.0000 
      8 CA         25.0290   32.5770   34.7630 C.3       6 GLP5        0.0000 
      9 CA         28.8940   27.8465   36.2990 C.3       3 GLC5        0.0000 
     10 CA         28.2110   28.3430   34.5870 C.3       9 GLL5        0.0000 
     11 CA         29.5770   27.3500   38.0110 C.3       6 GLP5        0.0000 
     12 N          28.8620   26.3350   31.6005 N.am      2 SEC2        0.0000 
     13 N          29.3450   27.0210   32.9630 N.am      8 SEL2        0.0000 
     14 N          28.3790   25.6490   30.2380 N.am      5 SEP2        0.0000 
     15 O          29.8885   26.2940   33.9305 O.2       1 ALC1        0.0000 
     16 O          29.3450   27.0210   32.9630 O.2       7 ALL1        0.0000 
     17 O          30.4320   25.5670   34.8980 O.2       4 ALP1        0.0000 
     18 N          27.9165   25.4520   31.5925 N.am      2 SEC2        0.0000 
     19 N          27.4540   25.2550   32.9470 N.am      8 SEL2        0.0000 
     20 O          28.6455   24.6920   33.1585 O.2       1 ALC1        0.0000 
     21 O          27.4540   25.2550   32.9470 O.2       7 ALL1        0.0000 
     22 O          29.8370   24.1290   33.3700 O.2       4 ALP1        0.0000 
     23 CA         28.3635   26.8600   36.5450 C.3       3 GLC5        0.0000 
     24 CA         27.1500   26.3700   35.0790 C.3       9 GLL5        0.0000 
     25 CA         24.3935   26.4210   37.9955 C.3       3 GLC5        0.0000 
     26 CA         24.5230   24.6630   36.9580 C.3       9 GLL5        0.0000 
     27 CA         24.2640   28.1790   39.0330 C.3       6 GLP5        0.0000 
     28 CA         24.0525   22.7410   39.7535 C.3       3 GLC5        0.0000 
     29 CA         24.1370   23.6190   37.7840 C.3       9 GLL5        0.0000 
     30 CA         23.9680   21.8630   41.7230 C.3       6 GLP5        0.0000 
     31 CA         22.7425   24.5695   39.2235 C.3       3 GLC5        0.0000 
     32 CA         21.3480   25.5200   40.6630 C.3       6 GLP5        0.0000 
     33 O          22.2910   22.3860   38.9960 O.2       1 ALC1        0.0000 
     34 O          22.8650   23.4850   38.1820 O.2       7 ALL1        0.0000 
     35 O          21.7170   21.2870   39.8100 O.2       4 ALP1        0.0000 
     36 N          24.7550   21.5080   38.9850 N.am      2 SEC2        0.0000 
     37 N          25.0700   22.6810   38.1610 N.am      8 SEL2        0.0000 
     38 N          24.4400   20.3350   39.8090 N.am      5 SEP2        0.0000 
     39 CA         26.2010   24.0320   39.1170 C.3       3 GLC5        0.0000 
     40 CA         26.3720   22.7620   37.7200 C.3       9 GLL5        0.0000 
     41 CA         26.0300   25.3020   40.5140 C.3       6 GLP5        0.0000 
     42 CA         27.5170   21.7790   39.1150 C.3       3 GLC5        0.0000 
     43 CA         28.6620   20.7960   40.5100 C.3       6 GLP5        0.0000 
     44 CA         28.4185   22.7145   37.2995 C.3       3 GLC5        0.0000 
     45 CA         30.4650   22.6670   36.8790 C.3       6 GLP5        0.0000 
     46 CA         26.5635   22.0885   35.8475 C.3       3 GLC5        0.0000 
     47 CA         26.7550   21.4150   33.9750 C.3       6 GLP5        0.0000 
     48 CA         25.7400   20.9375   37.7690 C.3       3 GLC5        0.0000 
     49 CA         25.1080   19.1130   37.8180 C.3       6 GLP5        0.0000 
     50 N          27.7525   22.8080   36.1210 N.am      2 SEC2        0.0000 
     51 N          26.7430   23.8040   36.9040 N.am      8 SEL2        0.0000 
     52 N          28.7620   21.8120   35.3380 N.am      5 SEP2        0.0000 
     53 CA         26.2965   23.0810   35.2535 C.3       3 GLC5        0.0000 
     54 CA         25.8380   24.7470   36.5320 C.3       9 GLL5        0.0000 
     55 N          28.8775   42.6960   29.2050 N.am      2 SEC2        0.0000 
     56 N          30.1120   42.0430   30.2200 N.am      8 SEL2        0.0000 
     57 N          27.6430   43.3490   28.1900 N.am      5 SEP2        0.0000 
     58 N          30.2525   42.2795   31.5885 N.am      2 SEC2        0.0000 
     59 N          30.3930   42.5160   32.9570 N.am      5 SEP2        0.0000 
     60 O          31.0950   43.0630   27.8300 O.2       1 ALC1        0.0000 
     61 O          30.4900   41.8290   28.0050 O.2       7 ALL1        0.0000 
     62 O          31.7000   44.2970   27.6550 O.2       4 ALP1        0.0000 
     63 N          30.8365   41.9445   24.5530 N.am      2 SEC2        0.0000 
     64 N          30.7640   41.4820   25.8000 N.am      8 SEL2        0.0000 
     65 N          30.9090   42.4070   23.3060 N.am      5 SEP2        0.0000 
     66 N          31.4710   42.8410   25.3315 N.am      2 SEC2        0.0000 
     67 N          32.1780   44.2000   24.8630 N.am      5 SEP2        0.0000 
     68 CA         26.6365   34.1845   21.7880 C.3       3 GLC5        0.0000 
     69 CA         27.0800   35.4150   23.4020 C.3       9 GLL5        0.0000 
     70 CA         26.1930   32.9540   20.1740 C.3       6 GLP5        0.0000 
     71 CA         28.4715   34.6865   22.3580 C.3       3 GLC5        0.0000 
     72 CA         29.8630   33.9580   21.3140 C.3       6 GLP5        0.0000 
     73 CA         24.0975   34.3745   25.1440 C.3       3 GLC5        0.0000 
     74 CA         25.7910   34.6540   25.8980 C.3       9 GLL5        0.0000 
     75 CA         22.4040   34.0950   24.3900 C.3       6 GLP5        0.0000 
     76 CA         25.3910   37.4500   28.9860 C.3       3 GLC5        0.0000 
     77 CA         27.3520   38.0980   29.4150 C.3       9 GLL5        0.0000 
     78 CA         23.4300   36.8020   28.5570 C.3       6 GLP5        0.0000 
     79 CA         28.8030   35.0650   29.2960 C.3       3 GLC5        0.0000 
     80 CA         28.0070   36.9340   30.1550 C.3       9 GLL5        0.0000 
     81 CA         29.5990   33.1960   28.4370 C.3       6 GLP5        0.0000 
     82 CA         26.6295   36.8150   31.8115 C.3       3 GLC5        0.0000 
     83 CA         25.2520   36.6960   33.4680 C.3       6 GLP5        0.0000 
     84 N          31.3270   37.8365   30.4255 N.am      2 SEC2        0.0000 
     85 N          30.0690   38.1670   30.5030 N.am      8 SEL2        0.0000 
     86 N          32.5850   37.5060   30.3480 N.am      5 SEP2        0.0000 
     87 CA         31.6450   36.1165   32.8605 C.3       3 GLC5        0.0000 
     88 CA         29.8750   36.2610   31.8010 C.3       9 GLL5        0.0000 
     89 CA         33.4150   35.9720   33.9200 C.3       6 GLP5        0.0000 
     90 O          29.5580   34.4950   30.1620 O.2       1 ALC1        0.0000 
     91 O          30.3950   35.3770   30.8410 O.2       7 ALL1        0.0000 
     92 O          28.7210   33.6130   29.4830 O.2       4 ALP1        0.0000 
     93 CA         27.2435   35.3555   33.2865 C.3       3 GLC5        0.0000 
     94 CA         29.0270   35.4820   32.7850 C.3       9 GLL5        0.0000 
     95 CA         25.4600   35.2290   33.7880 C.3       6 GLP5        0.0000 
     96 N          31.6860   33.7055   36.0295 N.am      2 SEC2        0.0000 
     97 N          30.5220   33.1270   35.3650 N.am      8 SEL2        0.0000 
     98 N          32.8500   34.2840   36.6940 N.am      5 SEP2        0.0000 
     99 N          29.6250   35.3580   36.4325 N.am      2 SEC2        0.0000 
    100 N          28.6160   34.7380   35.8020 N.am      8 SEL2        0.0000 
    101 N          30.6340   35.9780   37.0630 N.am      5 SEP2        0.0000 
    102 CA         26.5913   29.4778   35.9780 C.3       3 GLC5        0.0000 
    103 CA         25.1670   29.8780   37.4220 C.3       6 GLP5        0.0000 
    104 CA         29.4374   28.8741   32.5358 C.3       3 GLC5        0.0000 
    105 CA         30.8270   29.4160   31.1690 C.3       6 GLP5        0.0000 
    106 CA         27.9678   26.8573   31.3788 C.3       3 GLC5        0.0000 
    107 CA         28.0800   27.5870   33.2710 C.3       9 GLL5        0.0000 
    108 CA         28.3560   26.6830   29.3420 C.3       6 GLP5        0.0000 
    109 CA         25.5570   24.8730   38.7327 C.3       3 GLC5        0.0000 
    110 CA         28.4280   35.3268   25.8758 C.3       3 GLC5        0.0000 
    111 CA         27.2890   36.2400   24.6340 C.3       9 GLL5        0.0000 
    112 CA         29.1550   33.8440   27.1380 C.3       6 GLP5        0.0000 
    113 CA         27.7020   34.5470   26.5000 C.3       3 GLC5        0.0000 
    114 CA         26.7070   35.8460   25.8260 C.3       9 GLL5        0.0000 
    115 CA         28.2670   35.4982   27.0523 C.3       3 GLC5        0.0000 
    116 CA         26.9650   36.5850   26.9750 C.3       9 GLL5        0.0000 
    117 CA         25.0185   36.3597   27.4877 C.3       3 GLC5        0.0000 
    118 CA         29.4428   37.6055   33.2589 C.3       3 GLC5        0.0000 
    119 CA         29.0890   37.3910   31.1400 C.3       9 GLL5        0.0000 
    120 CA         29.6310   39.0570   34.3900 C.3       6 GLP5        0.0000 
@<TRIPOS>BOND
@<TRIPOS>SUBSTRUCTURE
     1 ALC1       15 GROUP        1 X    ALC  0     ROOT ALC X 1
     2 SEC2        1 GROUP        1 X    SEC  0     **** SEC X 2
     3 GLC5        6 GROUP        1 X    GLC  0     **** GLC X 6
     4 ALP1       17 GROUP        1 Y    ALP  0     ROOT ALP Y 8
     5 SEP2        3 GROUP        1 Y    SEP  0     **** SEP Y 9
     6 GLP5        8 GROUP        1 Y    GLP  0     **** GLP Y 13
     7 ALL1       16 GROUP        1 Z    ALL  0     ROOT ALL Z 15
     8 SEL2        2 GROUP        1 Z    SEL  0     **** SEL Z 16
     9 GLL5        7 GROUP        1 Z    GLL  0     **** GLL Z 20
@<TRIPOS>SET

