#    Name: 3uov_FAD_1_ligand
#    Modification time : Mon Mar 24 23:11:11 2014

@<TRIPOS>MOLECULE
3uov_FAD_1_ligand
   84    89     1     0     0
SMALL
NO_CHARGES


@<TRIPOS>ATOM
      1 PA         28.4010   31.8730   32.9830 P.3       1 FAD551      0.0000 
      2 O1A        27.0400   31.7390   32.3740 O.co2     1 FAD551      0.0000 
      3 O2A        29.4820   32.2530   32.0180 O.co2     1 FAD551      0.0000 
      4 O5B        28.7930   30.4860   33.7020 O.3       1 FAD551      0.0000 
      5 C5B        27.8200   29.8120   34.4810 C.3       1 FAD551      0.0000 
      6 C4B        28.2110   28.3430   34.5870 C.3       1 FAD551      0.0000 
      7 O4B        27.3610   27.7020   35.5000 O.3       1 FAD551      0.0000 
      8 C3B        28.0800   27.5870   33.2710 C.3       1 FAD551      0.0000 
      9 O3B        29.3450   27.0210   32.9630 O.3       1 FAD551      0.0000 
     10 C2B        27.0790   26.4760   33.5600 C.3       1 FAD551      0.0000 
     11 O2B        27.4540   25.2550   32.9470 O.3       1 FAD551      0.0000 
     12 C1B        27.1500   26.3700   35.0790 C.3       1 FAD551      0.0000 
     13 N9A        25.9350   25.8680   35.7400 N.pl3     1 FAD551      0.0000 
     14 C8A        24.7070   26.4720   35.7030 C.2       1 FAD551      0.0000 
     15 N7A        23.8550   25.7260   36.4410 N.2       1 FAD551      0.0000 
     16 C5A        24.5230   24.6630   36.9580 C.ar      1 FAD551      0.0000 
     17 C6A        24.1370   23.6190   37.7840 C.ar      1 FAD551      0.0000 
     18 N6A        22.8650   23.4850   38.1820 N.pl3     1 FAD551      0.0000 
     19 N1A        25.0700   22.6810   38.1610 N.ar      1 FAD551      0.0000 
     20 C2A        26.3720   22.7620   37.7200 C.ar      1 FAD551      0.0000 
     21 N3A        26.7430   23.8040   36.9040 N.ar      1 FAD551      0.0000 
     22 C4A        25.8380   24.7470   36.5320 C.ar      1 FAD551      0.0000 
     23 N1         29.1150   40.2970   29.2200 N.2       1 FAD551      0.0000 
     24 C2         29.9180   41.4160   29.1920 C.2       1 FAD551      0.0000 
     25 O2         30.1120   42.0430   30.2200 O.2       1 FAD551      0.0000 
     26 N3         30.4900   41.8290   28.0050 N.am      1 FAD551      0.0000 
     27 C4         30.2450   41.1100   26.8460 C.2       1 FAD551      0.0000 
     28 O4         30.7640   41.4820   25.8000 O.2       1 FAD551      0.0000 
     29 C4X        29.4280   39.9760   26.8620 C.2       1 FAD551      0.0000 
     30 N5         29.1810   39.2510   25.7050 N.2       1 FAD551      0.0000 
     31 C5X        28.3700   38.1230   25.7500 C.ar      1 FAD551      0.0000 
     32 C6         28.1130   37.3790   24.5930 C.ar      1 FAD551      0.0000 
     33 C7         27.2890   36.2400   24.6340 C.ar      1 FAD551      0.0000 
     34 C7M        27.0800   35.4150   23.4020 C.3       1 FAD551      0.0000 
     35 C8         26.7070   35.8460   25.8260 C.ar      1 FAD551      0.0000 
     36 C8M        25.7910   34.6540   25.8980 C.3       1 FAD551      0.0000 
     37 C9         26.9650   36.5850   26.9750 C.ar      1 FAD551      0.0000 
     38 C9A        27.7930   37.7200   26.9580 C.ar      1 FAD551      0.0000 
     39 N10        28.0570   38.4320   28.1250 N.pl3     1 FAD551      0.0000 
     40 C10        28.8630   39.5660   28.0700 C.2       1 FAD551      0.0000 
     41 C1'        27.3520   38.0980   29.4150 C.3       1 FAD551      0.0000 
     42 C2'        28.0070   36.9340   30.1550 C.3       1 FAD551      0.0000 
     43 O2'        26.9720   36.2900   30.8830 O.3       1 FAD551      0.0000 
     44 C3'        29.0890   37.3910   31.1400 C.3       1 FAD551      0.0000 
     45 O3'        30.0690   38.1670   30.5030 O.3       1 FAD551      0.0000 
     46 C4'        29.8750   36.2610   31.8010 C.3       1 FAD551      0.0000 
     47 O4'        30.3950   35.3770   30.8410 O.3       1 FAD551      0.0000 
     48 C5'        29.0270   35.4820   32.7850 C.3       1 FAD551      0.0000 
     49 O5'        29.9470   34.7540   33.5770 O.3       1 FAD551      0.0000 
     50 P          29.3620   33.9050   34.7980 P.3       1 FAD551      0.0000 
     51 O1P        30.5220   33.1270   35.3650 O.co2     1 FAD551      0.0000 
     52 O2P        28.6160   34.7380   35.8020 O.co2     1 FAD551      0.0000 
     53 O3P        28.2330   32.9060   34.2100 O.3       1 FAD551      0.0000 
     54 H          26.8252   29.8609   34.0293 H         1 FAD551      0.0000 
     55 H          27.7547   30.2142   35.4960 H         1 FAD551      0.0000 
     56 H          29.2401   28.2788   34.9099 H         1 FAD551      0.0000 
     57 H          27.7011   28.2245   32.5412 H         1 FAD551      0.0000 
     58 H          26.1140   26.8226   33.3004 H         1 FAD551      0.0000 
     59 H          28.0052   25.7695   35.3334 H         1 FAD551      0.0000 
     60 H          24.4986   27.2808   35.2337 H         1 FAD551      0.0000 
     61 H          22.2341   24.2032   37.8884 H         1 FAD551      0.0000 
     62 H          22.6602   22.6788   38.7371 H         1 FAD551      0.0000 
     63 H          27.0592   22.0493   37.9991 H         1 FAD551      0.0000 
     64 H          31.0913   42.6604   27.9790 H         1 FAD551      0.0000 
     65 H          28.5321   37.6673   23.6965 H         1 FAD551      0.0000 
     66 H          26.5358   36.2945   27.8761 H         1 FAD551      0.0000 
     67 H          26.3052   37.8396   29.2055 H         1 FAD551      0.0000 
     68 H          27.3506   38.9784   30.0717 H         1 FAD551      0.0000 
     69 H          28.4424   36.2711   29.4369 H         1 FAD551      0.0000 
     70 H          28.6188   37.9650   31.9378 H         1 FAD551      0.0000 
     71 H          30.6919   36.7243   32.3741 H         1 FAD551      0.0000 
     72 H          28.3653   34.8356   32.2249 H         1 FAD551      0.0000 
     73 H          28.4504   36.1869   33.3681 H         1 FAD551      0.0000 
     74 H          27.9410   35.0470   23.0509 H         1 FAD551      0.0000 
     75 H          26.4770   34.6361   23.5745 H         1 FAD551      0.0000 
     76 H          26.6664   35.9480   22.6639 H         1 FAD551      0.0000 
     77 H          26.2516   33.8138   25.6117 H         1 FAD551      0.0000 
     78 H          25.4528   34.5010   26.8266 H         1 FAD551      0.0000 
     79 H          24.9905   34.7647   25.3090 H         1 FAD551      0.0000 
     80 H          29.5937   26.4880   33.7717 H         1 FAD551      0.0000 
     81 H          28.3695   25.0595   33.2986 H         1 FAD551      0.0000 
     82 H          26.6630   35.5463   30.2903 H         1 FAD551      0.0000 
     83 H          29.7620   39.1124   30.6126 H         1 FAD551      0.0000 
     84 H          29.6795   34.6915   30.7061 H         1 FAD551      0.0000 
@<TRIPOS>BOND
     1    2    1 ar   
     2    3    1 ar   
     3    4    1 1    
     4   53    1 1    
     5    5    4 1    
     6    6    5 1    
     7   54    5 1    
     8   55    5 1    
     9    7    6 1    
    10    8    6 1    
    11   56    6 1    
    12   12    7 1    
    13    9    8 1    
    14   10    8 1    
    15   57    8 1    
    16   80    9 1    
    17   11   10 1    
    18   12   10 1    
    19   58   10 1    
    20   81   11 1    
    21   13   12 1    
    22   59   12 1    
    23   14   13 1    
    24   22   13 1    
    25   15   14 2    
    26   60   14 1    
    27   16   15 1    
    28   17   16 ar   
    29   22   16 ar   
    30   18   17 1    
    31   19   17 ar   
    32   61   18 1    
    33   62   18 1    
    34   20   19 ar   
    35   21   20 ar   
    36   63   20 1    
    37   22   21 ar   
    38   24   23 1    
    39   40   23 2    
    40   25   24 2    
    41   26   24 am   
    42   27   26 am   
    43   64   26 1    
    44   28   27 2    
    45   29   27 1    
    46   30   29 2    
    47   40   29 1    
    48   31   30 1    
    49   32   31 ar   
    50   38   31 ar   
    51   33   32 ar   
    52   65   32 1    
    53   34   33 1    
    54   35   33 ar   
    55   74   34 1    
    56   75   34 1    
    57   76   34 1    
    58   36   35 1    
    59   37   35 ar   
    60   77   36 1    
    61   78   36 1    
    62   79   36 1    
    63   38   37 ar   
    64   66   37 1    
    65   39   38 1    
    66   40   39 1    
    67   41   39 1    
    68   42   41 1    
    69   67   41 1    
    70   68   41 1    
    71   43   42 1    
    72   44   42 1    
    73   69   42 1    
    74   82   43 1    
    75   45   44 1    
    76   46   44 1    
    77   70   44 1    
    78   83   45 1    
    79   47   46 1    
    80   48   46 1    
    81   71   46 1    
    82   84   47 1    
    83   49   48 1    
    84   72   48 1    
    85   73   48 1    
    86   50   49 1    
    87   51   50 ar   
    88   52   50 ar   
    89   53   50 1    
@<TRIPOS>SUBSTRUCTURE
     1 FAD551      1 GROUP   
@<TRIPOS>SET

