#    Name: 1uyd_PU8_1_INTS_M
#    Modification time : Tue Mar 25 07:18:27 2014

@<TRIPOS>MOLECULE
1uyd_PU8_1_INTS_M
   69     0     6     0     0
SMALL
NO_CHARGES


@<TRIPOS>ATOM
      1 CA          2.7170   14.5750   27.0330 C.3       2 GLC5        0.0000 
      2 CA          4.4030   15.5280   26.5790 C.3       6 GLL5        0.0000 
      3 CA          1.0310   13.6220   27.4870 C.3       4 GLP5        0.0000 
      4 CA          4.3490   15.5690   28.1420 C.3       2 GLC5        0.0000 
      5 CA          4.2950   15.6100   29.7050 C.3       4 GLP5        0.0000 
      6 CA          2.6250   16.3775   26.5185 C.3       2 GLC5        0.0000 
      7 CA          0.8470   17.2270   26.4580 C.3       4 GLP5        0.0000 
      8 CA          5.2055   17.3310   27.0575 C.3       2 GLC5        0.0000 
      9 CA          6.0080   19.1340   27.5360 C.3       4 GLP5        0.0000 
     10 CA          6.8955   15.5110   23.1955 C.3       2 GLC5        0.0000 
     11 CA          7.9680   14.9820   24.7400 C.3       6 GLL5        0.0000 
     12 CA          5.8230   16.0400   21.6510 C.3       4 GLP5        0.0000 
     13 CA          9.0100   14.5215   23.1475 C.3       2 GLC5        0.0000 
     14 CA         10.0520   14.0610   21.5550 C.3       4 GLP5        0.0000 
     15 CA          7.9260   16.7980   24.5810 C.3       2 GLC5        0.0000 
     16 CA          7.8840   18.6140   24.4220 C.3       4 GLP5        0.0000 
     17 CA          7.1500   11.1215   25.9360 C.3       2 GLC5        0.0000 
     18 CA          6.4650   11.9280   24.1660 C.3       6 GLL5        0.0000 
     19 CA          7.8350   10.3150   27.7060 C.3       4 GLP5        0.0000 
     20 CA          9.8635    9.8000   23.1430 C.3       2 GLC5        0.0000 
     21 CA          8.1250   10.3750   23.0920 C.3       6 GLL5        0.0000 
     22 CA         11.6020    9.2250   23.1940 C.3       4 GLP5        0.0000 
     23 CA          9.0110   11.6210   21.9620 C.3       2 GLC5        0.0000 
     24 CA          9.8970   12.8670   20.8320 C.3       4 GLP5        0.0000 
     25 CA          5.4180   11.1665   25.8535 C.3       2 GLC5        0.0000 
     26 CA          5.3500   11.3260   23.6130 C.3       6 GLL5        0.0000 
     27 CA          5.4860   11.0070   28.0940 C.3       4 GLP5        0.0000 
     28 CA          1.2405   10.3125   21.9190 C.3       2 GLC5        0.0000 
     29 CA          2.9810   11.1340   22.9970 C.3       6 GLL5        0.0000 
     30 CA         -0.5000    9.4910   20.8410 C.3       4 GLP5        0.0000 
     31 CA          3.8930   11.8685   21.6295 C.3       2 GLC5        0.0000 
     32 CA          4.8050   12.6030   20.2620 C.3       4 GLP5        0.0000 
     33 CA         -0.3430   10.2170   22.7535 C.3       2 GLC5        0.0000 
     34 CA         -0.1860   10.9430   24.6660 C.3       6 GLL5        0.0000 
     35 CA         -2.6330    9.4900   25.5070 C.3       2 GLC5        0.0000 
     36 CA         -1.5340   11.1210   24.9450 C.3       6 GLL5        0.0000 
     37 CA         -3.7320    7.8590   26.0690 C.3       4 GLP5        0.0000 
     38 CA         -1.8260   13.0055   25.5235 C.3       2 GLC5        0.0000 
     39 CA         -2.1180   14.8900   26.1020 C.3       4 GLP5        0.0000 
     40 O          -3.8445   12.0200   24.1880 O.2       1 ALC1        0.0000 
     41 O          -2.4390   11.8290   24.0330 O.2       5 ALL1        0.0000 
     42 O          -5.2500   12.2110   24.3430 O.2       3 ALP1        0.0000 
     43 CA          1.4740   11.3560   26.8065 C.3       2 GLC5        0.0000 
     44 CA          0.6250   10.2700   25.5670 C.3       6 GLL5        0.0000 
     45 CA          2.3230   12.4420   28.0460 C.3       4 GLP5        0.0000 
     46 CA         -2.4635    8.9220   26.5080 C.3       2 GLC5        0.0000 
     47 CA         -1.1950    9.9850   26.9470 C.3       6 GLL5        0.0000 
     48 CA         -1.9995   10.6265   28.9145 C.3       2 GLC5        0.0000 
     49 CA         -2.8040   11.2680   30.8820 C.3       4 GLP5        0.0000 
     50 CA          0.1595   10.7965   28.1790 C.3       2 GLC5        0.0000 
     51 CA          1.5140   11.6080   29.4110 C.3       4 GLP5        0.0000 
     52 CA          2.6880   11.0385   26.8420 C.3       2 GLC5        0.0000 
     53 CA          3.0530    9.6350   25.6380 C.3       6 GLL5        0.0000 
     54 CA          4.2695   10.3210   26.8660 C.3       2 GLC5        0.0000 
     55 CA          1.7250   13.8125   25.9270 C.3       2 GLC5        0.0000 
     56 CA          2.4190   14.0030   24.3670 C.3       6 GLL5        0.0000 
     57 CA          2.9460   14.3350   22.6745 C.3       2 GLC5        0.0000 
     58 CA          3.4730   14.6670   20.9820 C.3       4 GLP5        0.0000 
     59 CA          1.6330   15.6150   25.4125 C.3       2 GLC5        0.0000 
     60 CA          3.4240   12.9620   26.3072 C.3       2 GLC5        0.0000 
     61 CA          3.9590   13.1780   24.2910 C.3       6 GLL5        0.0000 
     62 CA          5.5968   12.2383   26.4520 C.3       2 GLC5        0.0000 
     63 CA          5.0910   13.7860   24.8460 C.3       6 GLL5        0.0000 
     64 CA          4.4187   12.5765   22.1178 C.3       2 GLC5        0.0000 
     65 CA          5.3562   12.1150   22.0757 C.3       2 GLC5        0.0000 
     66 CA          0.0855   12.3270   26.1463 C.3       2 GLC5        0.0000 
     67 CA          4.6448    8.1438   26.5595 C.3       2 GLC5        0.0000 
     68 CA          2.9130    8.1310   25.6360 C.3       6 GLL5        0.0000 
     69 CA          6.0110    8.5890   27.9950 C.3       4 GLP5        0.0000 
@<TRIPOS>BOND
@<TRIPOS>SUBSTRUCTURE
     1 ALC1       40 GROUP        1 X    ALC  0     ROOT ALC X 1
     2 GLC5        1 GROUP        1 X    GLC  0     **** GLC X 6
     3 ALP1       42 GROUP        1 Y    ALP  0     ROOT ALP Y 8
     4 GLP5        3 GROUP        1 Y    GLP  0     **** GLP Y 13
     5 ALL1       41 GROUP        1 Z    ALL  0     ROOT ALL Z 15
     6 GLL5        2 GROUP        1 Z    GLL  0     **** GLL Z 20
@<TRIPOS>SET

