#    Name: 1uyd_PU8_1_ligand
#    Modification time : Tue Mar 25 07:18:27 2014

@<TRIPOS>MOLECULE
1uyd_PU8_1_ligand
   52    54     1     0     0
SMALL
NO_CHARGES


@<TRIPOS>ATOM
      1 C19         4.4030   15.5280   26.5790 C.3       1 PU81224     0.0000 
      2 O3          5.1220   15.0840   25.4530 O.3       1 PU81224     0.0000 
      3 C5          5.0910   13.7860   24.8460 C.ar      1 PU81224     0.0000 
      4 C6          3.9590   13.1780   24.2910 C.ar      1 PU81224     0.0000 
      5 C4          6.3240   13.1530   24.7740 C.ar      1 PU81224     0.0000 
      6 O1          7.4370   13.8000   25.3630 O.3       1 PU81224     0.0000 
      7 C7          7.9680   14.9820   24.7400 C.3       1 PU81224     0.0000 
      8 C3          6.4650   11.9280   24.1660 C.ar      1 PU81224     0.0000 
      9 O2          7.7380   11.2760   24.1460 O.3       1 PU81224     0.0000 
     10 C8          8.1250   10.3750   23.0920 C.3       1 PU81224     0.0000 
     11 C2          5.3500   11.3260   23.6130 C.ar      1 PU81224     0.0000 
     12 C1          4.1060   11.9220   23.6560 C.ar      1 PU81224     0.0000 
     13 C9          2.9810   11.1340   22.9970 C.3       1 PU81224     0.0000 
     14 C10         1.7990   10.8980   23.8970 C.2       1 PU81224     0.0000 
     15 N1          0.5690   11.3430   23.6650 N.2       1 PU81224     0.0000 
     16 C11        -0.1860   10.9430   24.6660 C.ar      1 PU81224     0.0000 
     17 C13        -1.5340   11.1210   24.9450 C.ar      1 PU81224     0.0000 
     18 N5         -2.4390   11.8290   24.0330 N.pl3     1 PU81224     0.0000 
     19 C12         0.6250   10.2700   25.5670 C.ar      1 PU81224     0.0000 
     20 N4          0.1180    9.7800   26.7170 N.ar      1 PU81224     0.0000 
     21 C14        -1.1950    9.9850   26.9470 C.ar      1 PU81224     0.0000 
     22 N3         -2.0040   10.6440   26.0890 N.ar      1 PU81224     0.0000 
     23 N2          1.8540   10.2510   25.0560 N.pl3     1 PU81224     0.0000 
     24 C15         3.0530    9.6350   25.6380 C.3       1 PU81224     0.0000 
     25 C16         2.9130    8.1310   25.6360 C.3       1 PU81224     0.0000 
     26 C17         3.6440    7.2660   24.6120 C.3       1 PU81224     0.0000 
     27 C18         4.6650    7.8940   23.6780 C.3       1 PU81224     0.0000 
     28 CL          2.4190   14.0030   24.3670 Cl        1 PU81224     0.0000 
     29 H           5.4529   10.3959   23.1509 H         1 PU81224     0.0000 
     30 H           3.3822   10.1633   22.6556 H         1 PU81224     0.0000 
     31 H           2.6518   11.6766   22.0931 H         1 PU81224     0.0000 
     32 H          -2.0327   12.1659   23.1836 H         1 PU81224     0.0000 
     33 H          -3.3882   11.9168   24.3353 H         1 PU81224     0.0000 
     34 H          -1.6158    9.6091   27.8495 H         1 PU81224     0.0000 
     35 H           3.1967    9.9744   26.6679 H         1 PU81224     0.0000 
     36 H           3.9419    9.9071   25.0616 H         1 PU81224     0.0000 
     37 H           1.8049    7.8767   25.5732 H         1 PU81224     0.0000 
     38 H           3.1893    7.7463   26.6715 H         1 PU81224     0.0000 
     39 H           2.8666    6.7375   23.9830 H         1 PU81224     0.0000 
     40 H           4.1460    6.4176   25.1666 H         1 PU81224     0.0000 
     41 H           4.6169   14.9878   27.3929 H         1 PU81224     0.0000 
     42 H           4.6080   16.4819   26.7981 H         1 PU81224     0.0000 
     43 H           3.4151   15.4657   26.4371 H         1 PU81224     0.0000 
     44 H           8.7477   15.3504   25.2464 H         1 PU81224     0.0000 
     45 H           8.2827   14.8013   23.8082 H         1 PU81224     0.0000 
     46 H           7.2852   15.7103   24.6827 H         1 PU81224     0.0000 
     47 H           9.0453   10.0105   23.2342 H         1 PU81224     0.0000 
     48 H           7.5065    9.5919   23.0270 H         1 PU81224     0.0000 
     49 H           8.1228   10.8252   22.1991 H         1 PU81224     0.0000 
     50 H           5.4173    8.3186   24.1817 H         1 PU81224     0.0000 
     51 H           5.0694    7.2184   23.0616 H         1 PU81224     0.0000 
     52 H           4.2568    8.6054   23.1059 H         1 PU81224     0.0000 
@<TRIPOS>BOND
     1    2    1 1    
     2   41    1 1    
     3   42    1 1    
     4   43    1 1    
     5    3    2 1    
     6    4    3 ar   
     7    5    3 ar   
     8   12    4 ar   
     9   28    4 1    
    10    6    5 1    
    11    8    5 ar   
    12    7    6 1    
    13   44    7 1    
    14   45    7 1    
    15   46    7 1    
    16    9    8 1    
    17   11    8 ar   
    18   10    9 1    
    19   47   10 1    
    20   48   10 1    
    21   49   10 1    
    22   12   11 ar   
    23   29   11 1    
    24   13   12 1    
    25   14   13 1    
    26   30   13 1    
    27   31   13 1    
    28   15   14 2    
    29   23   14 1    
    30   16   15 1    
    31   17   16 ar   
    32   19   16 ar   
    33   18   17 1    
    34   22   17 ar   
    35   32   18 1    
    36   33   18 1    
    37   20   19 ar   
    38   23   19 1    
    39   21   20 ar   
    40   22   21 ar   
    41   34   21 1    
    42   24   23 1    
    43   25   24 1    
    44   35   24 1    
    45   36   24 1    
    46   26   25 1    
    47   37   25 1    
    48   38   25 1    
    49   27   26 1    
    50   39   26 1    
    51   40   26 1    
    52   50   27 1    
    53   51   27 1    
    54   52   27 1    
@<TRIPOS>SUBSTRUCTURE
     1 PU81224     1 GROUP   
@<TRIPOS>SET

