#    Name: 2wd2_MS5_1_INTS_M
#    Modification time : Tue Mar 25 04:05:04 2014

@<TRIPOS>MOLECULE
2wd2_MS5_1_INTS_M
   49     0    12     0     0
SMALL
NO_CHARGES


@<TRIPOS>ATOM
      1 N           0.6930   11.2245  -20.6440 N.am      2 SEC2        0.0000 
      2 N          -0.7460   10.7160  -20.5660 N.am     10 SEL2        0.0000 
      3 N           2.1320   11.7330  -20.7220 N.am      6 SEP2        0.0000 
      4 O           0.3445   11.6640  -18.0440 O.2       1 ALC1        0.0000 
      5 O          -0.5550   10.6630  -18.0650 O.2       9 ALL1        0.0000 
      6 O           1.2440   12.6650  -18.0230 O.2       5 ALP1        0.0000 
      7 Zn         -1.2290   10.7200  -17.3420 Zn        3 ZIC7        0.0000 
      8 Zn         -0.5550   10.6630  -18.0650 Zn       11 ZIL7        0.0000 
      9 Zn         -1.9030   10.7770  -16.6190 Zn        7 ZIP7        0.0000 
     10 CA          2.0800    8.3720  -17.0180 C.3       4 GLC5        0.0000 
     11 CA          0.4050    7.2080  -17.7730 C.3      12 GLL5        0.0000 
     12 CA          3.7550    9.5360  -16.2630 C.3       8 GLP5        0.0000 
     13 N           2.2820    8.1255  -17.6030 N.am      2 SEC2        0.0000 
     14 N           0.9530    8.2310  -17.0600 N.am     10 SEL2        0.0000 
     15 N           3.6110    8.0200  -18.1460 N.am      6 SEP2        0.0000 
     16 CA         -1.0785    8.6125  -15.1620 C.3       4 GLC5        0.0000 
     17 CA          0.6150    8.4450  -15.6890 C.3      12 GLL5        0.0000 
     18 CA         -2.7720    8.7800  -14.6350 C.3       8 GLP5        0.0000 
     19 CA          2.1850    8.9905  -15.9760 C.3       4 GLC5        0.0000 
     20 CA         -3.0130    4.6935  -20.9830 C.3       4 GLC5        0.0000 
     21 CA         -1.3050    4.0190  -20.0850 C.3      12 GLL5        0.0000 
     22 CA         -4.7210    5.3680  -21.8810 C.3       8 GLP5        0.0000 
     23 CA         -4.7165    0.5240  -17.3400 C.3       4 GLC5        0.0000 
     24 CA         -3.4750   -0.8940  -17.5630 C.3      12 GLL5        0.0000 
     25 CA         -5.9580    1.9420  -17.1170 C.3       8 GLP5        0.0000 
     26 CA         -3.6020   -1.3120  -20.8475 C.3       4 GLC5        0.0000 
     27 CA         -2.2310   -1.4660  -19.5650 C.3      12 GLL5        0.0000 
     28 CA         -4.9730   -1.1580  -22.1300 C.3       8 GLP5        0.0000 
     29 CA         -2.9790   -1.6300  -21.8555 C.3       4 GLC5        0.0000 
     30 CA         -0.9850   -2.1020  -21.5810 C.3      12 GLL5        0.0000 
     31 CA         -0.9430   -0.9830  -22.9055 C.3       4 GLC5        0.0000 
     32 CA         -0.9010    0.1360  -24.2300 C.3       8 GLP5        0.0000 
     33 CA          0.0383    7.3663  -21.2652 C.3       4 GLC5        0.0000 
     34 CA         -0.5940    6.4000  -19.8140 C.3      12 GLL5        0.0000 
     35 CA          0.4000    7.8140  -23.0960 C.3       8 GLP5        0.0000 
     36 CA         -2.7530    6.2488  -19.6515 C.3       4 GLC5        0.0000 
     37 CA         -4.8600    6.7340  -19.7700 C.3       8 GLP5        0.0000 
     38 CA         -3.1030    3.0627  -18.7615 C.3       4 GLC5        0.0000 
     39 CA         -4.8570    2.7760  -17.8090 C.3       8 GLP5        0.0000 
     40 CA         -1.1190    2.8573  -21.5120 C.3       4 GLC5        0.0000 
     41 CA         -1.3930    2.6800  -19.3430 C.3      12 GLL5        0.0000 
     42 CA         -0.8890    2.3650  -23.3100 C.3       8 GLP5        0.0000 
     43 CA         -3.3927    1.4455  -17.7178 C.3       4 GLC5        0.0000 
     44 CA         -1.3740    0.2050  -18.0430 C.3      12 GLL5        0.0000 
     45 CA         -4.7190   -1.0078  -19.6288 C.3       4 GLC5        0.0000 
     46 CA         -6.0270   -0.7500  -21.1090 C.3       8 GLP5        0.0000 
     47 CA         -4.1380   -1.4724  -16.4001 C.3       4 GLC5        0.0000 
     48 CA         -3.3470   -1.6370  -18.7340 C.3      12 GLL5        0.0000 
     49 CA         -5.1130   -1.9090  -14.7400 C.3       8 GLP5        0.0000 
@<TRIPOS>BOND
@<TRIPOS>SUBSTRUCTURE
     1 ALC1        4 GROUP        1 X    ALC  0     ROOT ALC X 1
     2 SEC2        1 GROUP        1 X    SEC  0     **** SEC X 2
     3 ZIC7        7 GROUP        1 X    ZIC  0     **** ZIC X 5
     4 GLC5       10 GROUP        1 X    GLC  0     **** GLC X 6
     5 ALP1        6 GROUP        1 Y    ALP  0     ROOT ALP Y 8
     6 SEP2        3 GROUP        1 Y    SEP  0     **** SEP Y 9
     7 ZIP7        9 GROUP        1 Y    ZIP  0     **** ZIP Y 12
     8 GLP5       12 GROUP        1 Y    GLP  0     **** GLP Y 13
     9 ALL1        5 GROUP        1 Z    ALL  0     ROOT ALL Z 15
    10 SEL2        2 GROUP        1 Z    SEL  0     **** SEL Z 16
    11 ZIL7        8 GROUP        1 Z    ZIL  0     **** ZIL Z 19
    12 GLL5       11 GROUP        1 Z    GLL  0     **** GLL Z 20
@<TRIPOS>SET

