#    Name: 2wd2_MS5_1_ligand
#    Modification time : Tue Mar 25 04:05:04 2014

@<TRIPOS>MOLECULE
2wd2_MS5_1_ligand
   48    50     1     0     0
SMALL
NO_CHARGES


@<TRIPOS>ATOM
      1 OAE        -2.3070    9.3930  -19.3640 O.2       1 MS51263     0.0000 
      2 SAZ        -0.9670    9.9100  -19.4120 S.o2      1 MS51263     0.0000 
      3 OAD        -0.7460   10.7160  -20.5660 O.2       1 MS51263     0.0000 
      4 NAC        -0.5550   10.6630  -18.0650 N.pl3     1 MS51263     0.0000 
      5 OAR         0.0740    8.6800  -19.6150 O.3       1 MS51263     0.0000 
      6 CAX        -0.0530    7.4370  -19.0550 C.ar      1 MS51263     0.0000 
      7 CAJ        -0.5940    6.4000  -19.8140 C.ar      1 MS51263     0.0000 
      8 CAW         0.4050    7.2080  -17.7730 C.ar      1 MS51263     0.0000 
      9 OAQ         0.9530    8.2310  -17.0600 O.3       1 MS51263     0.0000 
     10 CAB         0.6150    8.4450  -15.6890 C.3       1 MS51263     0.0000 
     11 CAK         0.3130    5.9340  -17.2120 C.ar      1 MS51263     0.0000 
     12 CAV        -0.2400    4.9040  -17.9570 C.ar      1 MS51263     0.0000 
     13 CAO        -0.3270    3.5330  -17.3290 C.3       1 MS51263     0.0000 
     14 CAU        -0.6980    5.1270  -19.2520 C.ar      1 MS51263     0.0000 
     15 CAL        -1.3050    4.0190  -20.0850 C.3       1 MS51263     0.0000 
     16 CAM        -1.3930    2.6800  -19.3430 C.3       1 MS51263     0.0000 
     17 NAY        -0.2920    2.4930  -18.3690 N.4       1 MS51263     0.0000 
     18 CAN        -0.2920    1.1940  -17.6580 C.3       1 MS51263     0.0000 
     19 CAS        -1.3740    0.2050  -18.0430 C.ar      1 MS51263     0.0000 
     20 CAI        -1.2430   -0.5460  -19.2120 C.ar      1 MS51263     0.0000 
     21 CAG        -2.4830    0.0250  -17.2100 C.ar      1 MS51263     0.0000 
     22 CAF        -3.4750   -0.8940  -17.5630 C.ar      1 MS51263     0.0000 
     23 CAH        -3.3470   -1.6370  -18.7340 C.ar      1 MS51263     0.0000 
     24 CAT        -2.2310   -1.4660  -19.5650 C.ar      1 MS51263     0.0000 
     25 OAP        -2.1200   -2.2100  -20.7190 O.3       1 MS51263     0.0000 
     26 CAA        -0.9850   -2.1020  -21.5810 C.3       1 MS51263     0.0000 
     27 H           0.3474   11.0939  -18.0601 H         1 MS51263     0.0000 
     28 H          -0.9106    6.5696  -20.7701 H         1 MS51263     0.0000 
     29 H           0.6510    5.7658  -16.2612 H         1 MS51263     0.0000 
     30 H          -1.2560    3.4663  -16.7537 H         1 MS51263     0.0000 
     31 H           0.5112    3.4081  -16.6360 H         1 MS51263     0.0000 
     32 H          -0.7059    3.8767  -20.9972 H         1 MS51263     0.0000 
     33 H          -2.3172    4.3122  -20.4023 H         1 MS51263     0.0000 
     34 H          -1.3818    1.8713  -20.0906 H         1 MS51263     0.0000 
     35 H          -2.3668    2.6342  -18.8306 H         1 MS51263     0.0000 
     36 H           0.6739    2.5918  -18.8933 H         1 MS51263     0.0000 
     37 H          -0.3622    1.3736  -16.5533 H         1 MS51263     0.0000 
     38 H           0.7019    0.6933  -17.7962 H         1 MS51263     0.0000 
     39 H          -0.4194   -0.4215  -19.8124 H         1 MS51263     0.0000 
     40 H          -2.5675    0.5654  -16.3439 H         1 MS51263     0.0000 
     41 H          -4.2949   -1.0194  -16.9594 H         1 MS51263     0.0000 
     42 H          -4.0742   -2.3170  -18.9945 H         1 MS51263     0.0000 
     43 H           0.8449    7.6540  -15.1220 H         1 MS51263     0.0000 
     44 H           1.0994    9.2313  -15.3054 H         1 MS51263     0.0000 
     45 H          -0.3629    8.6166  -15.5700 H         1 MS51263     0.0000 
     46 H          -0.1358   -2.3372  -21.1082 H         1 MS51263     0.0000 
     47 H          -1.0591   -2.7110  -22.3707 H         1 MS51263     0.0000 
     48 H          -0.8753   -1.1736  -21.9360 H         1 MS51263     0.0000 
@<TRIPOS>BOND
     1    2    1 2    
     2    3    2 2    
     3    4    2 1    
     4    5    2 1    
     5   27    4 1    
     6    6    5 1    
     7    7    6 ar   
     8    8    6 ar   
     9   14    7 ar   
    10   28    7 1    
    11    9    8 1    
    12   11    8 ar   
    13   10    9 1    
    14   43   10 1    
    15   44   10 1    
    16   45   10 1    
    17   12   11 ar   
    18   29   11 1    
    19   13   12 1    
    20   14   12 ar   
    21   17   13 1    
    22   30   13 1    
    23   31   13 1    
    24   15   14 1    
    25   16   15 1    
    26   32   15 1    
    27   33   15 1    
    28   17   16 1    
    29   34   16 1    
    30   35   16 1    
    31   18   17 1    
    32   36   17 1    
    33   19   18 1    
    34   37   18 1    
    35   38   18 1    
    36   20   19 ar   
    37   21   19 ar   
    38   24   20 ar   
    39   39   20 1    
    40   22   21 ar   
    41   40   21 1    
    42   23   22 ar   
    43   41   22 1    
    44   24   23 ar   
    45   42   23 1    
    46   25   24 1    
    47   26   25 1    
    48   46   26 1    
    49   47   26 1    
    50   48   26 1    
@<TRIPOS>SUBSTRUCTURE
     1 MS51263     1 GROUP   
@<TRIPOS>SET

