#    Name: 4a7b_3W5_1_INTS_M
#    Modification time : Tue Mar 25 05:13:50 2014

@<TRIPOS>MOLECULE
4a7b_3W5_1_INTS_M
   78     0     9     0     0
SMALL
NO_CHARGES


@<TRIPOS>ATOM
      1 CA         24.6910   13.2200   10.9455 C.3       3 GLC5        0.0000 
      2 CA         23.9110   14.2050   12.7810 C.3       9 GLL5        0.0000 
      3 CA         25.4710   12.2350    9.1100 C.3       6 GLP5        0.0000 
      4 CA         25.3565   12.2075   14.3395 C.3       3 GLC5        0.0000 
      5 CA         24.2880   13.6590   13.9850 C.3       9 GLL5        0.0000 
      6 CA         26.4250   10.7560   14.6940 C.3       6 GLP5        0.0000 
      7 CA         18.0380   15.5840    8.0245 C.3       3 GLC5        0.0000 
      8 CA         19.8850   15.0890    8.7540 C.3       9 GLL5        0.0000 
      9 CA         16.1910   16.0790    7.2950 C.3       6 GLP5        0.0000 
     10 O          18.1755   14.0110    7.6090 O.2       1 ALC1        0.0000 
     11 O          19.5190   14.2480    7.5690 O.2       7 ALL1        0.0000 
     12 O          16.8320   13.7740    7.6490 O.2       4 ALP1        0.0000 
     13 CA         18.0350   15.5170    6.7910 C.3       3 GLC5        0.0000 
     14 CA         19.8790   14.9550    6.2870 C.3       9 GLL5        0.0000 
     15 CA         19.2965   11.5495    9.1945 C.3       3 GLC5        0.0000 
     16 CA         20.0880   12.8560    7.6960 C.3       9 GLL5        0.0000 
     17 CA         18.5050   10.2430   10.6930 C.3       6 GLP5        0.0000 
     18 CA         22.4125   12.0210   17.5055 C.3       3 GLC5        0.0000 
     19 CA         24.2550   12.9870   16.9000 C.3       9 GLL5        0.0000 
     20 CA         20.5700   11.0550   18.1110 C.3       6 GLP5        0.0000 
     21 CA         25.3400   11.8715   15.7970 C.3       3 GLC5        0.0000 
     22 CA         24.1180   12.8255   20.5915 C.3       3 GLC5        0.0000 
     23 CA         25.4220   12.7390   18.9790 C.3       9 GLL5        0.0000 
     24 CA         22.8140   12.9120   22.2040 C.3       6 GLP5        0.0000 
     25 N          25.4295   13.7630   22.5615 N.am      2 SEC2        0.0000 
     26 N          26.2290   14.0410   21.3000 N.am      8 SEL2        0.0000 
     27 N          24.6300   13.4850   23.8230 N.am      5 SEP2        0.0000 
     28 O          26.9840   16.4195   18.5695 O.2       1 ALC1        0.0000 
     29 O          26.8850   15.8210   19.8930 O.2       7 ALL1        0.0000 
     30 O          27.0830   17.0180   17.2460 O.2       4 ALP1        0.0000 
     31 CA         28.6510   14.8780   22.5200 C.3       3 GLC5        0.0000 
     32 CA         28.7340   16.5410   21.2380 C.3       9 GLL5        0.0000 
     33 CA         28.5680   13.2150   23.8020 C.3       6 GLP5        0.0000 
     34 CA         22.9498   15.3225   14.5415 C.3       3 GLC5        0.0000 
     35 CA         21.8000   16.7130   15.7000 C.3       6 GLP5        0.0000 
     36 CA         22.1820   11.0405   15.5555 C.3       3 GLC5        0.0000 
     37 CA         23.3660   12.9000   14.6890 C.3       9 GLL5        0.0000 
     38 CA         21.6390    9.2870   16.6440 C.3       6 GLP5        0.0000 
     39 CA         24.0040   11.2985   14.4050 C.3       3 GLC5        0.0000 
     40 CA         22.0840   12.6880   14.2450 C.3       9 GLL5        0.0000 
     41 CA         25.2830    9.8030   14.3430 C.3       6 GLP5        0.0000 
     42 CA         22.2625   14.7535   15.0835 C.3       3 GLC5        0.0000 
     43 CA         20.3860   11.6360   13.4340 C.3       3 GLC5        0.0000 
     44 CA         18.8800   10.3100   13.2280 C.3       6 GLP5        0.0000 
     45 CA         21.9832   15.1603   14.1925 C.3       3 GLC5        0.0000 
     46 CA         22.6330   13.9790   12.3350 C.3       9 GLL5        0.0000 
     47 CA         22.8064   12.1606   11.2268 C.3       3 GLC5        0.0000 
     48 CA         21.7000   13.2360   13.0350 C.3       9 GLL5        0.0000 
     49 CA         23.4370   10.2770   10.5550 C.3       6 GLP5        0.0000 
     50 CA         20.9847   16.3278   11.0248 C.3       3 GLC5        0.0000 
     51 CA         22.1850   14.4810   11.1120 C.3       9 GLL5        0.0000 
     52 CA         19.9570   17.9760   11.4750 C.3       6 GLP5        0.0000 
     53 CA         20.2978   16.5850   10.1103 C.3       3 GLC5        0.0000 
     54 CA         21.3920   15.2990    8.7370 C.3       9 GLL5        0.0000 
     55 CA         23.6490   12.9985    8.3610 C.3       3 GLC5        0.0000 
     56 CA         22.0220   14.5120    7.5660 C.3       9 GLL5        0.0000 
     57 CA         20.3475   10.9605    7.4405 C.3       3 GLC5        0.0000 
     58 CA         21.6320   13.0120    7.6580 C.3       9 GLL5        0.0000 
     59 CA         19.8350    8.9870    7.2040 C.3       6 GLP5        0.0000 
     60 CA         22.9372   13.1642    5.9663 C.3       3 GLC5        0.0000 
     61 CA         24.2030   12.4250    4.6430 C.3       6 GLP5        0.0000 
     62 CA         24.9327   16.4907   16.5843 C.3       3 GLC5        0.0000 
     63 CA         24.9580   14.9150   18.1110 C.3       9 GLL5        0.0000 
     64 CA         25.2190   18.3440   15.6110 C.3       6 GLP5        0.0000 
     65 CA         23.2233   15.6753   16.6288 C.3       3 GLC5        0.0000 
     66 CA         23.4769   14.4679   19.4176 C.3       3 GLC5        0.0000 
     67 CA         24.3350   14.3600   17.0040 C.3       9 GLL5        0.0000 
     68 CA         21.8880   14.5670   20.5150 C.3       6 GLP5        0.0000 
     69 CA         23.7647   11.0348   18.7203 C.3       3 GLC5        0.0000 
     70 CA         22.4240    9.6110   19.0110 C.3       6 GLP5        0.0000 
     71 CA         26.1687   11.6408   17.1258 C.3       3 GLC5        0.0000 
     72 CA         24.7890   12.1780   17.8800 C.3       9 GLL5        0.0000 
     73 CA         27.2320   10.8230   15.8220 C.3       6 GLP5        0.0000 
     74 CA         26.0135   18.1382   24.5510 C.3       3 GLC5        0.0000 
     75 CA         28.0140   17.8530   23.7070 C.3       9 GLL5        0.0000 
     76 CA         24.5310   18.1470   25.8710 C.3       6 GLP5        0.0000 
     77 CA         26.7955   16.3518   24.0617 C.3       3 GLC5        0.0000 
     78 CA         26.2290   14.8600   25.1080 C.3       6 GLP5        0.0000 
@<TRIPOS>BOND
@<TRIPOS>SUBSTRUCTURE
     1 ALC1       10 GROUP        1 X    ALC  0     ROOT ALC X 1
     2 SEC2       25 GROUP        1 X    SEC  0     **** SEC X 2
     3 GLC5        1 GROUP        1 X    GLC  0     **** GLC X 6
     4 ALP1       12 GROUP        1 Y    ALP  0     ROOT ALP Y 8
     5 SEP2       27 GROUP        1 Y    SEP  0     **** SEP Y 9
     6 GLP5        3 GROUP        1 Y    GLP  0     **** GLP Y 13
     7 ALL1       11 GROUP        1 Z    ALL  0     ROOT ALL Z 15
     8 SEL2       26 GROUP        1 Z    SEL  0     **** SEL Z 16
     9 GLL5        2 GROUP        1 Z    GLL  0     **** GLL Z 20
@<TRIPOS>SET

