#    Name: 4a7b_3W5_1_ligand
#    Modification time : Tue Mar 25 05:13:50 2014

@<TRIPOS>MOLECULE
4a7b_3W5_1_ligand
   66    70     1     0     0
SMALL
NO_CHARGES


@<TRIPOS>ATOM
      1 C1         23.9110   14.2050   12.7810 C.ar      1 3W51000     0.0000 
      2 C2         24.2880   13.6590   13.9850 C.ar      1 3W51000     0.0000 
      3 C3         23.3660   12.9000   14.6890 C.ar      1 3W51000     0.0000 
      4 C4         22.0840   12.6880   14.2450 C.ar      1 3W51000     0.0000 
      5 C5         21.7000   13.2360   13.0350 C.ar      1 3W51000     0.0000 
      6 C6         22.6330   13.9790   12.3350 C.ar      1 3W51000     0.0000 
      7 C7         22.1850   14.4810   11.1120 C.1       1 3W51000     0.0000 
      8 C8         21.8400   14.8780   10.0370 C.1       1 3W51000     0.0000 
      9 C9         21.3920   15.2990    8.7370 C.3       1 3W51000     0.0000 
     10 C10        19.8850   15.0890    8.7540 C.3       1 3W51000     0.0000 
     11 N1         19.5190   14.2480    7.5690 N.4       1 3W51000     0.0000 
     12 C11        19.8790   14.9550    6.2870 C.3       1 3W51000     0.0000 
     13 C12        21.4000   15.0780    6.2760 C.3       1 3W51000     0.0000 
     14 C13        22.0220   14.5120    7.5660 C.3       1 3W51000     0.0000 
     15 C14        21.6320   13.0120    7.6580 C.3       1 3W51000     0.0000 
     16 C15        20.0880   12.8560    7.6960 C.3       1 3W51000     0.0000 
     17 O1         21.7950   16.6640    8.6780 O.3       1 3W51000     0.0000 
     18 O2         23.6460   12.3080   15.8780 O.3       1 3W51000     0.0000 
     19 C16        24.2550   12.9870   16.9000 C.ar      1 3W51000     0.0000 
     20 C21        24.3350   14.3600   17.0040 C.ar      1 3W51000     0.0000 
     21 C20        24.9580   14.9150   18.1110 C.ar      1 3W51000     0.0000 
     22 C19        25.4850   14.1000   19.0830 C.ar      1 3W51000     0.0000 
     23 C18        25.4220   12.7390   18.9790 C.ar      1 3W51000     0.0000 
     24 C17        24.7890   12.1780   17.8800 C.ar      1 3W51000     0.0000 
     25 C22        26.2000   14.6530   20.2400 C.2       1 3W51000     0.0000 
     26 O3         26.2290   14.0410   21.3000 O.2       1 3W51000     0.0000 
     27 N2         26.8850   15.8210   19.8930 N.am      1 3W51000     0.0000 
     28 C23        27.3570   16.8950   20.7520 C.3       1 3W51000     0.0000 
     29 C24        26.4420   17.2620   21.8930 C.3       1 3W51000     0.0000 
     30 C25        26.9780   18.4060   22.7550 C.3       1 3W51000     0.0000 
     31 C26        28.0140   17.8530   23.7070 C.3       1 3W51000     0.0000 
     32 S1         29.3260   17.5900   22.5720 S.o2      1 3W51000     0.0000 
     33 O5         30.4500   16.8140   23.0920 O.2       1 3W51000     0.0000 
     34 O4         29.3980   18.9400   22.0280 O.2       1 3W51000     0.0000 
     35 C27        28.7340   16.5410   21.2380 C.3       1 3W51000     0.0000 
     36 H          24.5672   14.7653   12.2324 H         1 3W51000     0.0000 
     37 H          25.2283   13.8066   14.3584 H         1 3W51000     0.0000 
     38 H          21.4216   12.1352   14.7963 H         1 3W51000     0.0000 
     39 H          20.7610   13.0971   12.6711 H         1 3W51000     0.0000 
     40 H          19.3914   16.0493    8.6956 H         1 3W51000     0.0000 
     41 H          19.6066   14.5843    9.6689 H         1 3W51000     0.0000 
     42 H          18.4030   14.1492    7.5854 H         1 3W51000     0.0000 
     43 H          19.4425   15.9350    6.2708 H         1 3W51000     0.0000 
     44 H          19.5629   14.3728    5.4431 H         1 3W51000     0.0000 
     45 H          21.6784   16.1282    6.1815 H         1 3W51000     0.0000 
     46 H          21.8019   14.5322    5.4216 H         1 3W51000     0.0000 
     47 H          23.0497   14.6291    7.5519 H         1 3W51000     0.0000 
     48 H          22.0527   12.5917    8.5613 H         1 3W51000     0.0000 
     49 H          22.0192   12.4919    6.7925 H         1 3W51000     0.0000 
     50 H          19.7833   12.2499    6.8692 H         1 3W51000     0.0000 
     51 H          19.8094   12.4215    8.6327 H         1 3W51000     0.0000 
     52 H          23.9411   14.9630   16.2762 H         1 3W51000     0.0000 
     53 H          25.0230   15.9410   18.1996 H         1 3W51000     0.0000 
     54 H          25.8336   12.1336   19.6976 H         1 3W51000     0.0000 
     55 H          24.7195   11.1513   17.7991 H         1 3W51000     0.0000 
     56 H          27.1042   15.9644   18.8422 H         1 3W51000     0.0000 
     57 H          27.4858   17.8118   20.1209 H         1 3W51000     0.0000 
     58 H          26.2844   16.3812   22.5355 H         1 3W51000     0.0000 
     59 H          25.4569   17.5529   21.4951 H         1 3W51000     0.0000 
     60 H          26.1611   18.8425   23.3137 H         1 3W51000     0.0000 
     61 H          27.4284   19.1523   22.1145 H         1 3W51000     0.0000 
     62 H          27.7955   16.9115   24.0491 H         1 3W51000     0.0000 
     63 H          28.3897   18.5525   24.3557 H         1 3W51000     0.0000 
     64 H          29.5058   16.6644   20.4888 H         1 3W51000     0.0000 
     65 H          28.8013   15.5529   21.6755 H         1 3W51000     0.0000 
     66 H          22.7609   16.6600    8.9368 H         1 3W51000     0.0000 
@<TRIPOS>BOND
     1    2    1 ar   
     2    6    1 ar   
     3   36    1 1    
     4    3    2 ar   
     5   37    2 1    
     6    4    3 ar   
     7   18    3 1    
     8    5    4 ar   
     9   38    4 1    
    10    6    5 ar   
    11   39    5 1    
    12    7    6 1    
    13    8    7 3    
    14    9    8 1    
    15   10    9 1    
    16   14    9 1    
    17   17    9 1    
    18   11   10 1    
    19   40   10 1    
    20   41   10 1    
    21   12   11 1    
    22   16   11 1    
    23   42   11 1    
    24   13   12 1    
    25   43   12 1    
    26   44   12 1    
    27   14   13 1    
    28   45   13 1    
    29   46   13 1    
    30   15   14 1    
    31   47   14 1    
    32   16   15 1    
    33   48   15 1    
    34   49   15 1    
    35   50   16 1    
    36   51   16 1    
    37   66   17 1    
    38   19   18 1    
    39   20   19 ar   
    40   24   19 ar   
    41   21   20 ar   
    42   52   20 1    
    43   22   21 ar   
    44   53   21 1    
    45   23   22 ar   
    46   25   22 1    
    47   24   23 ar   
    48   54   23 1    
    49   55   24 1    
    50   26   25 2    
    51   27   25 am   
    52   28   27 1    
    53   56   27 1    
    54   29   28 1    
    55   35   28 1    
    56   57   28 1    
    57   30   29 1    
    58   58   29 1    
    59   59   29 1    
    60   31   30 1    
    61   60   30 1    
    62   61   30 1    
    63   32   31 1    
    64   62   31 1    
    65   63   31 1    
    66   33   32 2    
    67   34   32 2    
    68   35   32 1    
    69   64   35 1    
    70   65   35 1    
@<TRIPOS>SUBSTRUCTURE
     1 3W51000     1 GROUP   
@<TRIPOS>SET

