#    Name: 2f7z_6EA_1_INTS_M
#    Modification time : Tue Mar 25 12:21:35 2014

@<TRIPOS>MOLECULE
2f7z_6EA_1_INTS_M
   70     0     9     0     0
SMALL
NO_CHARGES


@<TRIPOS>ATOM
      1 N           1.6085    9.6720    4.8255 N.am      2 SEC2        0.0000 
      2 N           2.9020   10.0600    4.3680 N.am      8 SEL2        0.0000 
      3 N           0.3150    9.2840    5.2830 N.am      5 SEP2        0.0000 
      4 CA          1.3860   10.7605    3.6665 C.3       3 GLC5        0.0000 
      5 CA          3.2310   10.1650    3.0480 C.3       9 GLL5        0.0000 
      6 CA         -0.4590   11.3560    4.2850 C.3       6 GLP5        0.0000 
      7 CA          2.1795    8.6315    3.3500 C.3       3 GLC5        0.0000 
      8 CA          1.1280    7.0980    3.6520 C.3       6 GLP5        0.0000 
      9 CA          5.0280   11.0715    0.9090 C.3       3 GLC5        0.0000 
     10 CA          4.5410   10.0110    2.5760 C.3       9 GLL5        0.0000 
     11 CA          5.5150   12.1320   -0.7580 C.3       6 GLP5        0.0000 
     12 CA          2.5840    8.4030    5.1995 C.3       3 GLC5        0.0000 
     13 CA          3.9020    9.7920    5.2450 C.3       9 GLL5        0.0000 
     14 CA          1.2660    7.0140    5.1540 C.3       6 GLP5        0.0000 
     15 CA          4.6640    8.0465    5.7040 C.3       3 GLC5        0.0000 
     16 CA          5.4260    6.3010    6.1630 C.3       6 GLP5        0.0000 
     17 CA          7.1760   11.7670    2.9695 C.3       3 GLC5        0.0000 
     18 CA          6.9720    9.5540    2.9540 C.3       9 GLL5        0.0000 
     19 CA          7.3800   13.9800    2.9850 C.3       6 GLP5        0.0000 
     20 CA         10.9625   10.8025   -1.4990 C.3       3 GLC5        0.0000 
     21 CA         10.8320    9.2390   -0.3310 C.3       9 GLL5        0.0000 
     22 CA         11.0930   12.3660   -2.6670 C.3       6 GLP5        0.0000 
     23 N          10.4065   10.2515   -2.0935 N.am      2 SEC2        0.0000 
     24 N           9.7400    9.5540   -1.0860 N.am      8 SEL2        0.0000 
     25 N          11.0730   10.9490   -3.1010 N.am      5 SEP2        0.0000 
     26 CA          9.0980   11.3115   -1.5460 C.3       3 GLC5        0.0000 
     27 CA          8.5110    9.7130   -0.4950 C.3       9 GLL5        0.0000 
     28 CA          9.6850   12.9100   -2.5970 C.3       6 GLP5        0.0000 
     29 CA          9.2175    8.3415   -1.7730 C.3       3 GLC5        0.0000 
     30 CA          9.9240    6.9700   -3.0510 C.3       6 GLP5        0.0000 
     31 O          13.6130    6.0675    1.7640 O.2       1 ALC1        0.0000 
     32 O          14.9040    7.0930    2.1470 O.2       7 ALL1        0.0000 
     33 O          12.3220    5.0420    1.3810 O.2       4 ALP1        0.0000 
     34 CA          3.7920   11.6970    2.8685 C.3       3 GLC5        0.0000 
     35 CA          3.6980   13.3060    2.9250 C.3       6 GLP5        0.0000 
     36 CA          4.7330    8.2505    3.2555 C.3       3 GLC5        0.0000 
     37 CA          5.5800    6.4130    3.6990 C.3       6 GLP5        0.0000 
     38 CA          5.4953    8.0437    3.9323 C.3       3 GLC5        0.0000 
     39 CA          5.5800    9.7300    3.4830 C.3       9 GLL5        0.0000 
     40 CA          4.7918   11.3087    6.0503 C.3       3 GLC5        0.0000 
     41 CA          5.2410    9.6190    4.8480 C.3       9 GLL5        0.0000 
     42 CA          5.0120   12.9120    7.0540 C.3       6 GLP5        0.0000 
     43 CA          4.1771   11.5196    3.8151 C.3       3 GLC5        0.0000 
     44 CA          6.5570    7.9073    3.5240 C.3       3 GLC5        0.0000 
     45 CA          5.7811    8.1381    1.7299 C.3       3 GLC5        0.0000 
     46 CA          5.5460    6.5640    0.4680 C.3       6 GLP5        0.0000 
     47 CA          9.2145   11.5477    1.5155 C.3       3 GLC5        0.0000 
     48 CA          8.3610    9.5600    0.9160 C.3       9 GLL5        0.0000 
     49 CA          9.4900   13.6970    1.7180 C.3       6 GLP5        0.0000 
     50 CA          6.9755   10.8842   -0.2738 C.3       3 GLC5        0.0000 
     51 CA         10.9467    7.8063   -0.9045 C.3       3 GLC5        0.0000 
     52 CA         11.0810    6.4620   -2.1880 C.3       6 GLP5        0.0000 
     53 CA          7.8035    7.9904    0.0870 C.3       3 GLC5        0.0000 
     54 CA          6.8820    6.4250   -0.2350 C.3       6 GLP5        0.0000 
     55 CA         17.0052   11.9025    2.3830 C.3       3 GLC5        0.0000 
     56 CA         15.5050   10.3030    1.9940 C.3       9 GLL5        0.0000 
     57 CA         17.8740   13.5790    3.0430 C.3       6 GLP5        0.0000 
     58 CA         17.8650   12.7812   -0.5337 C.3       3 GLC5        0.0000 
     59 CA         15.8950   11.9620    0.4760 C.3       9 GLL5        0.0000 
     60 CA         19.9370   13.0350   -1.1480 C.3       6 GLP5        0.0000 
     61 CA         16.7116   12.9911    1.6747 C.3       3 GLC5        0.0000 
     62 CA         15.6910   13.0930   -0.3150 C.3       9 GLL5        0.0000 
     63 CA         13.3865   15.1367    1.4973 C.3       3 GLC5        0.0000 
     64 CA         14.4550   13.7860   -0.2210 C.3       9 GLL5        0.0000 
     65 CA         12.8280   16.7140    2.7690 C.3       6 GLP5        0.0000 
     66 CA         12.5190   12.9627   -1.2207 C.3       3 GLC5        0.0000 
     67 CA         13.4350   13.3330    0.6720 C.3       9 GLL5        0.0000 
     68 CA         14.7050   15.2931    0.0030 C.3       3 GLC5        0.0000 
     69 CA         15.1560   17.2000   -0.1960 C.3       6 GLP5        0.0000 
     70 CA         11.5158   13.2265    1.3970 C.3       3 GLC5        0.0000 
@<TRIPOS>BOND
@<TRIPOS>SUBSTRUCTURE
     1 ALC1       31 GROUP        1 X    ALC  0     ROOT ALC X 1
     2 SEC2        1 GROUP        1 X    SEC  0     **** SEC X 2
     3 GLC5        4 GROUP        1 X    GLC  0     **** GLC X 6
     4 ALP1       33 GROUP        1 Y    ALP  0     ROOT ALP Y 8
     5 SEP2        3 GROUP        1 Y    SEP  0     **** SEP Y 9
     6 GLP5        6 GROUP        1 Y    GLP  0     **** GLP Y 13
     7 ALL1       32 GROUP        1 Z    ALL  0     ROOT ALL Z 15
     8 SEL2        2 GROUP        1 Z    SEL  0     **** SEL Z 16
     9 GLL5        5 GROUP        1 Z    GLL  0     **** GLL Z 20
@<TRIPOS>SET

