#    Name: 2f7z_6EA_1_ligand
#    Modification time : Tue Mar 25 12:21:35 2014

@<TRIPOS>MOLECULE
2f7z_6EA_1_ligand
   52    56     1     0     0
SMALL
NO_CHARGES


@<TRIPOS>ATOM
      1 N1          2.9020   10.0600    4.3680 N.ar      1 6EA1000     0.0000 
      2 C2          3.2310   10.1650    3.0480 C.ar      1 6EA1000     0.0000 
      3 C3          4.5410   10.0110    2.5760 C.ar      1 6EA1000     0.0000 
      4 C4          5.5800    9.7300    3.4830 C.ar      1 6EA1000     0.0000 
      5 C5          5.2410    9.6190    4.8480 C.ar      1 6EA1000     0.0000 
      6 C6          3.9020    9.7920    5.2450 C.ar      1 6EA1000     0.0000 
      7 C11         6.9720    9.5540    2.9540 C.ar      1 6EA1000     0.0000 
      8 C12         8.0960    9.2490    3.7440 C.ar      1 6EA1000     0.0000 
      9 C13         9.3610    9.0880    3.1270 C.ar      1 6EA1000     0.0000 
     10 C14         9.5170    9.2370    1.7100 C.ar      1 6EA1000     0.0000 
     11 C15         8.3610    9.5600    0.9160 C.ar      1 6EA1000     0.0000 
     12 N16         7.1440    9.7000    1.5700 N.ar      1 6EA1000     0.0000 
     13 C19        10.7930    9.0620    1.0890 C.ar      1 6EA1000     0.0000 
     14 C20        10.8320    9.2390   -0.3310 C.ar      1 6EA1000     0.0000 
     15 N21         9.7400    9.5540   -1.0860 N.ar      1 6EA1000     0.0000 
     16 C22         8.5110    9.7130   -0.4950 C.ar      1 6EA1000     0.0000 
     17 O25        11.8800    8.7240    1.9190 O.3       1 6EA1000     0.0000 
     18 C26        13.1430    8.5150    1.3510 C.3       1 6EA1000     0.0000 
     19 C27        14.0390    8.1900    2.5350 C.3       1 6EA1000     0.0000 
     20 N30        14.9040    7.0930    2.1470 N.4       1 6EA1000     0.0000 
     21 C31        14.9100    9.3740    3.0400 C.3       1 6EA1000     0.0000 
     22 C33        15.5050   10.3030    1.9940 C.2       1 6EA1000     0.0000 
     23 C36        16.7680   10.1490    1.4520 C.2       1 6EA1000     0.0000 
     24 N37        17.0050   11.1430    0.5400 N.pl3     1 6EA1000     0.0000 
     25 C38        15.8950   11.9620    0.4760 C.ar      1 6EA1000     0.0000 
     26 C39        14.9200   11.4650    1.3800 C.ar      1 6EA1000     0.0000 
     27 C43        15.6910   13.0930   -0.3150 C.ar      1 6EA1000     0.0000 
     28 C44        14.4550   13.7860   -0.2210 C.ar      1 6EA1000     0.0000 
     29 C45        13.4350   13.3330    0.6720 C.ar      1 6EA1000     0.0000 
     30 C46        13.6480   12.1790    1.4800 C.ar      1 6EA1000     0.0000 
     31 H           2.4794   10.3701    2.3422 H         1 6EA1000     0.0000 
     32 H           4.7442   10.1016    1.5791 H         1 6EA1000     0.0000 
     33 H           5.9606    9.4153    5.5392 H         1 6EA1000     0.0000 
     34 H           3.6886    9.7057    6.2712 H         1 6EA1000     0.0000 
     35 H           8.0050    9.1439    4.7525 H         1 6EA1000     0.0000 
     36 H          10.1819    8.8614    3.6965 H         1 6EA1000     0.0000 
     37 H          11.7694    9.1131   -0.7937 H         1 6EA1000     0.0000 
     38 H           7.6778    9.9442   -1.0524 H         1 6EA1000     0.0000 
     39 H          13.5367    9.3957    0.8674 H         1 6EA1000     0.0000 
     40 H          13.1655    7.6737    0.6756 H         1 6EA1000     0.0000 
     41 H          13.4075    7.8662    3.3646 H         1 6EA1000     0.0000 
     42 H          15.7344    8.9492    3.6615 H         1 6EA1000     0.0000 
     43 H          14.2910    9.9732    3.7499 H         1 6EA1000     0.0000 
     44 H          17.3836    9.4451    1.6860 H         1 6EA1000     0.0000 
     45 H          17.8065   11.2569    0.0277 H         1 6EA1000     0.0000 
     46 H          16.4089   13.4250   -0.9523 H         1 6EA1000     0.0000 
     47 H          14.2898   14.6144   -0.7938 H         1 6EA1000     0.0000 
     48 H          12.5531   13.8386    0.7295 H         1 6EA1000     0.0000 
     49 H          12.9442   11.8469    2.1151 H         1 6EA1000     0.0000 
     50 H          15.4697    7.3278    1.3565 H         1 6EA1000     0.0000 
     51 H          15.5259    6.8315    2.8851 H         1 6EA1000     0.0000 
     52 H          14.3811    6.2768    1.9012 H         1 6EA1000     0.0000 
@<TRIPOS>BOND
     1    2    1 ar   
     2    6    1 ar   
     3    3    2 ar   
     4   31    2 1    
     5    4    3 ar   
     6   32    3 1    
     7    5    4 ar   
     8    7    4 1    
     9    6    5 ar   
    10   33    5 1    
    11   34    6 1    
    12    8    7 ar   
    13   12    7 ar   
    14    9    8 ar   
    15   35    8 1    
    16   10    9 ar   
    17   36    9 1    
    18   11   10 ar   
    19   13   10 ar   
    20   12   11 ar   
    21   16   11 ar   
    22   14   13 ar   
    23   17   13 1    
    24   15   14 ar   
    25   37   14 1    
    26   16   15 ar   
    27   38   16 1    
    28   18   17 1    
    29   19   18 1    
    30   39   18 1    
    31   40   18 1    
    32   20   19 1    
    33   21   19 1    
    34   41   19 1    
    35   50   20 1    
    36   51   20 1    
    37   52   20 1    
    38   22   21 1    
    39   42   21 1    
    40   43   21 1    
    41   23   22 2    
    42   26   22 1    
    43   24   23 1    
    44   44   23 1    
    45   25   24 1    
    46   45   24 1    
    47   26   25 ar   
    48   27   25 ar   
    49   30   26 ar   
    50   28   27 ar   
    51   46   27 1    
    52   29   28 ar   
    53   47   28 1    
    54   30   29 ar   
    55   48   29 1    
    56   49   30 1    
@<TRIPOS>SUBSTRUCTURE
     1 6EA1000     1 GROUP   
@<TRIPOS>SET

