#    Name: 2hs0_ATP_2_INTS_M
#    Modification time : Tue Mar 25 16:58:22 2014

@<TRIPOS>MOLECULE
2hs0_ATP_2_INTS_M
   42     0    12     0     0
SMALL
NO_CHARGES


@<TRIPOS>ATOM
      1 NZ         27.4220  -33.3150  131.0540 N.4       3 LYC4        0.0000 
      2 NZ         26.8890  -33.9090  129.5550 N.4      11 LYL4        0.0000 
      3 NZ         27.9550  -32.7210  132.5530 N.4       7 LYP4        0.0000 
      4 N          27.3860  -35.8020  129.0725 N.am      2 SEC2        0.0000 
      5 N          27.9530  -35.4890  127.8920 N.am     10 SEL2        0.0000 
      6 N          26.8190  -36.1150  130.2530 N.am      6 SEP2        0.0000 
      7 NZ         28.4295  -32.3790  131.3730 N.4       3 LYC4        0.0000 
      8 NZ         28.9040  -32.0370  130.1930 N.4      11 LYL4        0.0000 
      9 N          28.4295  -32.3790  131.3730 N.am      2 SEC2        0.0000 
     10 N          28.9040  -32.0370  130.1930 N.am     10 SEL2        0.0000 
     11 N          27.9550  -32.7210  132.5530 N.am      6 SEP2        0.0000 
     12 NZ         26.9085  -31.5590  131.7990 N.4       3 LYC4        0.0000 
     13 NZ         25.8620  -30.3970  131.0450 N.4      11 LYL4        0.0000 
     14 N          26.9085  -31.5590  131.7990 N.am      2 SEC2        0.0000 
     15 N          25.8620  -30.3970  131.0450 N.am     10 SEL2        0.0000 
     16 CA         24.9840  -27.8605  130.4450 C.3       4 GLC5        0.0000 
     17 CA         27.0120  -27.3980  130.2960 C.3      12 GLL5        0.0000 
     18 CA         22.9560  -28.3230  130.5940 C.3       8 GLP5        0.0000 
     19 N          29.3030  -29.7500  135.1605 N.am      2 SEC2        0.0000 
     20 N          29.6480  -29.0460  133.7800 N.am     10 SEL2        0.0000 
     21 N          28.9580  -30.4540  136.5410 N.am      6 SEP2        0.0000 
     22 O          24.6390  -29.3215  139.6525 O.2       1 ALC1        0.0000 
     23 O          24.2590  -28.6900  138.4680 O.2       9 ALL1        0.0000 
     24 O          25.0190  -29.9530  140.8370 O.2       5 ALP1        0.0000 
     25 N          26.7845  -28.5815  139.7395 N.am      2 SEC2        0.0000 
     26 N          26.3700  -27.7550  138.6600 N.am     10 SEL2        0.0000 
     27 N          27.1990  -29.4080  140.8190 N.am      6 SEP2        0.0000 
     28 CA         27.0885  -25.4985  137.3405 C.3       4 GLC5        0.0000 
     29 CA         27.4680  -27.2560  138.1130 C.3      12 GLL5        0.0000 
     30 CA         26.7090  -23.7410  136.5680 C.3       8 GLP5        0.0000 
     31 CA         27.2195  -26.0620  139.4505 C.3       4 GLC5        0.0000 
     32 CA         26.9710  -24.8680  140.7880 C.3       8 GLP5        0.0000 
     33 CA         28.7905  -27.4310  139.4265 C.3       4 GLC5        0.0000 
     34 CA         30.1130  -27.6060  140.7400 C.3       8 GLP5        0.0000 
     35 CA         27.5945  -29.0905  137.6070 C.3       4 GLC5        0.0000 
     36 CA         27.7210  -30.9250  137.1010 C.3       8 GLP5        0.0000 
     37 CA         25.0097  -29.8712  136.2140 C.3       4 GLC5        0.0000 
     38 CA         25.6330  -28.1610  136.4230 C.3      12 GLL5        0.0000 
     39 CA         24.5110  -31.5620  135.2770 C.3       8 GLP5        0.0000 
     40 CA         25.1664  -26.4306  136.0655 C.3       4 GLC5        0.0000 
     41 CA         24.1390  -24.9850  135.6020 C.3       8 GLP5        0.0000 
     42 CA         26.9574  -29.4006  136.8150 C.3       4 GLC5        0.0000 
@<TRIPOS>BOND
@<TRIPOS>SUBSTRUCTURE
     1 ALC1       22 GROUP        1 X    ALC  0     ROOT ALC X 1
     2 SEC2        4 GROUP        1 X    SEC  0     **** SEC X 2
     3 LYC4        1 GROUP        1 X    LYC  0     **** LYC X 4
     4 GLC5       16 GROUP        1 X    GLC  0     **** GLC X 6
     5 ALP1       24 GROUP        1 Y    ALP  0     ROOT ALP Y 8
     6 SEP2        6 GROUP        1 Y    SEP  0     **** SEP Y 9
     7 LYP4        3 GROUP        1 Y    LYP  0     **** LYP Y 11
     8 GLP5       18 GROUP        1 Y    GLP  0     **** GLP Y 13
     9 ALL1       23 GROUP        1 Z    ALL  0     ROOT ALL Z 15
    10 SEL2        5 GROUP        1 Z    SEL  0     **** SEL Z 16
    11 LYL4        2 GROUP        1 Z    LYL  0     **** LYL Z 18
    12 GLL5       17 GROUP        1 Z    GLL  0     **** GLL Z 20
@<TRIPOS>SET

