#    Name: 2hs0_ATP_2_ligand
#    Modification time : Tue Mar 25 16:58:22 2014

@<TRIPOS>MOLECULE
2hs0_ATP_2_ligand
   43    45     1     0     0
SMALL
NO_CHARGES


@<TRIPOS>ATOM
      1 PG         27.2500  -34.1620  128.1170 P.3       1 ATP1066     0.0000 
      2 O1G        26.8890  -33.9090  129.5550 O.co2     1 ATP1066     0.0000 
      3 O2G        26.1110  -33.8680  127.1550 O.co2     1 ATP1066     0.0000 
      4 O3G        27.9530  -35.4890  127.8920 O.co2     1 ATP1066     0.0000 
      5 PB         28.4090  -31.6670  128.8110 P.3       1 ATP1066     0.0000 
      6 O1B        28.9040  -32.0370  130.1930 O.co2     1 ATP1066     0.0000 
      7 O2B        29.2230  -30.6190  128.0710 O.co2     1 ATP1066     0.0000 
      8 O3B        28.3100  -32.9780  127.8630 O.3       1 ATP1066     0.0000 
      9 PA         26.2920  -29.8560  129.7010 P.3       1 ATP1066     0.0000 
     10 O1A        25.8620  -30.3970  131.0450 O.co2     1 ATP1066     0.0000 
     11 O2A        25.3110  -29.1870  128.7630 O.co2     1 ATP1066     0.0000 
     12 O3A        26.8820  -31.1450  128.9120 O.3       1 ATP1066     0.0000 
     13 O5'        27.4160  -28.7320  129.9720 O.3       1 ATP1066     0.0000 
     14 C5'        27.0120  -27.3980  130.2960 C.3       1 ATP1066     0.0000 
     15 C4'        27.9760  -26.8430  131.3340 C.3       1 ATP1066     0.0000 
     16 O4'        27.2360  -26.6040  132.5170 O.3       1 ATP1066     0.0000 
     17 C3'        28.9920  -27.9290  131.7000 C.3       1 ATP1066     0.0000 
     18 O3'        30.3250  -27.4100  131.8370 O.3       1 ATP1066     0.0000 
     19 C2'        28.5520  -28.4520  133.0550 C.3       1 ATP1066     0.0000 
     20 O2'        29.6480  -29.0460  133.7800 O.3       1 ATP1066     0.0000 
     21 C1'        27.9040  -27.1990  133.6390 C.3       1 ATP1066     0.0000 
     22 N9         26.8370  -27.6250  134.5670 N.pl3     1 ATP1066     0.0000 
     23 C8         25.6780  -28.1670  134.1840 C.2       1 ATP1066     0.0000 
     24 N7         24.9720  -28.4710  135.2940 N.2       1 ATP1066     0.0000 
     25 C5         25.6330  -28.1610  136.4230 C.ar      1 ATP1066     0.0000 
     26 C6         25.3840  -28.2000  137.8790 C.ar      1 ATP1066     0.0000 
     27 N6         24.2590  -28.6900  138.4680 N.pl3     1 ATP1066     0.0000 
     28 N1         26.3700  -27.7550  138.6600 N.ar      1 ATP1066     0.0000 
     29 C2         27.4680  -27.2560  138.1130 C.ar      1 ATP1066     0.0000 
     30 N3         27.7690  -27.1560  136.8200 N.ar      1 ATP1066     0.0000 
     31 C4         26.8790  -27.5720  135.9070 C.ar      1 ATP1066     0.0000 
     32 H          26.0068  -27.3714  130.7189 H         1 ATP1066     0.0000 
     33 H          27.0403  -26.7438  129.4235 H         1 ATP1066     0.0000 
     34 H          28.4668  -26.0044  130.9731 H         1 ATP1066     0.0000 
     35 H          28.9230  -28.7191  130.9987 H         1 ATP1066     0.0000 
     36 H          27.7476  -29.1571  132.8501 H         1 ATP1066     0.0000 
     37 H          28.5993  -26.5949  134.0698 H         1 ATP1066     0.0000 
     38 H          25.3879  -28.3185  133.2754 H         1 ATP1066     0.0000 
     39 H          24.3833  -29.1265  139.3590 H         1 ATP1066     0.0000 
     40 H          23.4073  -28.5703  137.9577 H         1 ATP1066     0.0000 
     41 H          28.2307  -26.8746  138.8148 H         1 ATP1066     0.0000 
     42 H          30.6552  -27.7720  132.7087 H         1 ATP1066     0.0000 
     43 H          29.6979  -29.9878  133.4476 H         1 ATP1066     0.0000 
@<TRIPOS>BOND
     1    2    1 ar   
     2    3    1 ar   
     3    4    1 ar   
     4    8    1 1    
     5    6    5 ar   
     6    7    5 ar   
     7    8    5 1    
     8   12    5 1    
     9   10    9 ar   
    10   11    9 ar   
    11   12    9 1    
    12   13    9 1    
    13   14   13 1    
    14   15   14 1    
    15   32   14 1    
    16   33   14 1    
    17   16   15 1    
    18   17   15 1    
    19   34   15 1    
    20   21   16 1    
    21   18   17 1    
    22   19   17 1    
    23   35   17 1    
    24   42   18 1    
    25   20   19 1    
    26   21   19 1    
    27   36   19 1    
    28   43   20 1    
    29   22   21 1    
    30   37   21 1    
    31   23   22 1    
    32   31   22 1    
    33   24   23 2    
    34   38   23 1    
    35   25   24 1    
    36   26   25 ar   
    37   31   25 ar   
    38   27   26 1    
    39   28   26 ar   
    40   39   27 1    
    41   40   27 1    
    42   29   28 ar   
    43   30   29 ar   
    44   41   29 1    
    45   31   30 ar   
@<TRIPOS>SUBSTRUCTURE
     1 ATP1066     1 GROUP   
@<TRIPOS>SET

