#    Name: 1xqc_AEJ_2_INTS_M
#    Modification time : Mon Apr  7 15:26:31 2014

@<TRIPOS>MOLECULE
1xqc_AEJ_2_INTS_M
   96     0    12     0     0
SMALL
NO_CHARGES


@<TRIPOS>ATOM
      1 N          22.6755    7.5775    2.3375 N.am      2 SEC2        0.0000 
      2 N          21.4560    7.0470    3.0070 N.am     10 SEL2        0.0000 
      3 N          23.8950    8.1080    1.6680 N.am      6 SEP2        0.0000 
      4 O          21.9215    6.0350    1.8205 O.2       1 ALC1        0.0000 
      5 O          21.4560    7.0470    3.0070 O.2       9 ALL1        0.0000 
      6 O          22.3870    5.0230    0.6340 O.2       5 ALP1        0.0000 
      7 O          20.8670    6.4120    1.9300 O.2       1 ALC1        0.0000 
      8 O          20.2780    5.7770    0.8530 O.2       5 ALP1        0.0000 
      9 CA         19.4010    8.6410    1.2140 C.3       4 GLC5        0.0000 
     10 CA         19.1680    7.7940    3.1190 C.3      12 GLL5        0.0000 
     11 CA         19.6340    9.4880   -0.6910 C.3       8 GLP5        0.0000 
     12 CA         16.6855    9.9065    3.2740 C.3       4 GLC5        0.0000 
     13 CA         18.0770    8.3060    3.8570 C.3      12 GLL5        0.0000 
     14 CA         15.2940   11.5070    2.6910 C.3       8 GLP5        0.0000 
     15 CA         16.1815   10.3255    4.3705 C.3       4 GLC5        0.0000 
     16 CA         17.0690    9.1440    6.0500 C.3      12 GLL5        0.0000 
     17 CA         18.5930   10.6160    5.4415 C.3       4 GLC5        0.0000 
     18 CA         20.1170   12.0880    4.8330 C.3       8 GLP5        0.0000 
     19 CA         12.7820   11.1850   11.2905 C.3       4 GLC5        0.0000 
     20 CA         14.2320   10.6330   10.0490 C.3      12 GLL5        0.0000 
     21 CA         11.3320   11.7370   12.5320 C.3       8 GLP5        0.0000 
     22 CA         12.9545    9.0775    9.2500 C.3       4 GLC5        0.0000 
     23 CA         11.6770    7.5220    8.4510 C.3       8 GLP5        0.0000 
     24 CA         16.6575    6.8255    9.1715 C.3       4 GLC5        0.0000 
     25 CA         15.6270    8.8010    9.3230 C.3      12 GLL5        0.0000 
     26 CA         17.6880    4.8500    9.0200 C.3       8 GLP5        0.0000 
     27 CA         19.1690    8.5565    9.8335 C.3       4 GLC5        0.0000 
     28 CA         18.5830    9.4930    7.9410 C.3      12 GLL5        0.0000 
     29 CA         19.7550    7.6200   11.7260 C.3       8 GLP5        0.0000 
     30 CA         18.9155   11.5500    8.4285 C.3       4 GLC5        0.0000 
     31 CA         19.2480   13.6070    8.9160 C.3       8 GLP5        0.0000 
     32 CA         20.6365    7.5810    8.7445 C.3       4 GLC5        0.0000 
     33 CA         19.6500    8.6600    7.2910 C.3      12 GLL5        0.0000 
     34 CA         21.6230    6.5020   10.1980 C.3       8 GLP5        0.0000 
     35 CA         13.1030    7.7750    3.3215 C.3       4 GLC5        0.0000 
     36 CA         13.6750    7.4540    5.2250 C.3      12 GLL5        0.0000 
     37 CA         12.5310    8.0960    1.4180 C.3       8 GLP5        0.0000 
     38 CA         13.1535   10.0520    5.6265 C.3       4 GLC5        0.0000 
     39 CA         14.6880    8.4560    5.4040 C.3      12 GLL5        0.0000 
     40 CA         11.6190   11.6480    5.8490 C.3       8 GLP5        0.0000 
     41 CA         14.9910    9.9815    4.0475 C.3       4 GLC5        0.0000 
     42 CA         11.5925    6.4920    6.7000 C.3       4 GLC5        0.0000 
     43 CA         11.5080    5.4620    4.9490 C.3      12 GLL5        0.0000 
     44 OD1        11.4290    2.9475    3.0040 O.co2     3 ASC3        0.0000 
     45 OD1        11.0600    2.9730    4.5380 O.co2    11 ASL3        0.0000 
     46 OD1        11.7980    2.9220    1.4700 O.co2     7 ASP3        0.0000 
     47 O          11.4290    2.9475    3.0040 O.2       1 ALC1        0.0000 
     48 O          11.0600    2.9730    4.5380 O.2       9 ALL1        0.0000 
     49 O          11.7980    2.9220    1.4700 O.2       5 ALP1        0.0000 
     50 CA         14.7255    4.6040    3.6675 C.3       4 GLC5        0.0000 
     51 CA         13.3380    3.8160    4.8200 C.3      12 GLL5        0.0000 
     52 CA         16.1130    5.3920    2.5150 C.3       8 GLP5        0.0000 
     53 CA         13.0775    4.5640    6.8600 C.3       4 GLC5        0.0000 
     54 CA         12.8170    5.3120    8.9000 C.3       8 GLP5        0.0000 
     55 CA         10.5765   -1.3285    3.1145 C.3       4 GLC5        0.0000 
     56 CA         10.5370    0.6390    4.1850 C.3      12 GLL5        0.0000 
     57 CA         10.6160   -3.2960    2.0440 C.3       8 GLP5        0.0000 
     58 CA         20.6320    5.8548    5.0845 C.3       4 GLC5        0.0000 
     59 CA         20.3960    7.5720    3.7540 C.3      12 GLL5        0.0000 
     60 CA         20.7920    3.9810    5.7510 C.3       8 GLP5        0.0000 
     61 CA         17.3678    6.7210    3.0015 C.3       4 GLC5        0.0000 
     62 CA         13.9625   12.1890    7.5152 C.3       4 GLC5        0.0000 
     63 CA         15.8800   10.9510    8.2630 C.3      12 GLL5        0.0000 
     64 CA         12.5540   13.1720    6.3460 C.3       8 GLP5        0.0000 
     65 CA         16.4865   12.6040    8.5682 C.3       4 GLC5        0.0000 
     66 CA         14.8620   11.4610    9.1060 C.3      12 GLL5        0.0000 
     67 CA         17.6020   14.0020    8.4520 C.3       8 GLP5        0.0000 
     68 CA         15.3283    8.4292   11.6835 C.3       4 GLC5        0.0000 
     69 CA         15.5360    7.8080   13.6270 C.3       8 GLP5        0.0000 
     70 CA         13.6267    7.7858    9.6390 C.3       4 GLC5        0.0000 
     71 CA         14.6140    9.3000   10.1570 C.3      12 GLL5        0.0000 
     72 CA         12.1330    6.5210    9.5380 C.3       8 GLP5        0.0000 
     73 CA         19.6167   10.5822    6.2245 C.3       4 GLC5        0.0000 
     74 CA         21.4804    9.5523    6.4791 C.3       4 GLC5        0.0000 
     75 CA         23.1380   10.7070    6.5850 C.3       8 GLP5        0.0000 
     76 CA         16.0740    6.4167    4.2495 C.3       4 GLC5        0.0000 
     77 CA         15.9340    8.1100    5.8520 C.3      12 GLL5        0.0000 
     78 CA         16.6717    5.5665    7.5255 C.3       4 GLC5        0.0000 
     79 CA         16.1360    6.7730    6.1160 C.3      12 GLL5        0.0000 
     80 CA         17.0552    4.8730    5.4715 C.3       4 GLC5        0.0000 
     81 CA         18.4550    3.4630    4.9120 C.3       8 GLP5        0.0000 
     82 CA         15.3170    5.6675    4.1165 C.3       4 GLC5        0.0000 
     83 CA         15.1750    5.7930    5.9460 C.3      12 GLL5        0.0000 
     84 CA         13.6690    5.6275    7.3090 C.3       4 GLC5        0.0000 
     85 CA         15.1472    6.6735    3.9148 C.3       4 GLC5        0.0000 
     86 CA         12.9292    7.7385    6.8827 C.3       4 GLC5        0.0000 
     87 CA         10.5895    6.0355    3.2957 C.3       4 GLC5        0.0000 
     88 CA         10.1770    7.1960    1.6460 C.3       8 GLP5        0.0000 
     89 CA         13.4522   -0.5182    3.6880 C.3       4 GLC5        0.0000 
     90 CA         12.9140    1.4050    4.6020 C.3      12 GLL5        0.0000 
     91 CA         14.4990   -1.8590    2.6960 C.3       8 GLP5        0.0000 
     92 CA         13.7466    2.3060    6.3036 C.3       4 GLC5        0.0000 
     93 CA         14.6090    2.2770    7.8080 C.3       8 GLP5        0.0000 
     94 CA         11.3075   -1.3212    5.4322 C.3       4 GLC5        0.0000 
     95 CA         11.8970    0.2400    4.7580 C.3      12 GLL5        0.0000 
     96 CA         11.3980   -3.0820    6.3930 C.3       8 GLP5        0.0000 
@<TRIPOS>BOND
@<TRIPOS>SUBSTRUCTURE
     1 ALC1        4 GROUP        1 X    ALC  0     ROOT ALC X 1
     2 SEC2        1 GROUP        1 X    SEC  0     **** SEC X 2
     3 ASC3       44 GROUP        1 X    ASC  0     **** ASC X 3
     4 GLC5        9 GROUP        1 X    GLC  0     **** GLC X 6
     5 ALP1        6 GROUP        1 Y    ALP  0     ROOT ALP Y 8
     6 SEP2        3 GROUP        1 Y    SEP  0     **** SEP Y 9
     7 ASP3       46 GROUP        1 Y    ASP  0     **** ASP Y 10
     8 GLP5       11 GROUP        1 Y    GLP  0     **** GLP Y 13
     9 ALL1        5 GROUP        1 Z    ALL  0     ROOT ALL Z 15
    10 SEL2        2 GROUP        1 Z    SEL  0     **** SEL Z 16
    11 ASL3       45 GROUP        1 Z    ASL  0     **** ASL Z 17
    12 GLL5       10 GROUP        1 Z    GLL  0     **** GLL Z 20
@<TRIPOS>SET

