#    Name: 1xqc_AEJ_2_ligand
#    Modification time : Mon Apr  7 15:26:31 2014

@<TRIPOS>MOLECULE
1xqc_AEJ_2_ligand
   67    72     1     0     0
SMALL
NO_CHARGES


@<TRIPOS>ATOM
      1 O42        21.4560    7.0470    3.0070 O.3       1 AEJ2001     0.0000 
      2 C39        20.3960    7.5720    3.7540 C.ar      1 AEJ2001     0.0000 
      3 C37        19.1680    7.7940    3.1190 C.ar      1 AEJ2001     0.0000 
      4 C35        18.0770    8.3060    3.8570 C.ar      1 AEJ2001     0.0000 
      5 C34        18.2100    8.6180    5.2230 C.ar      1 AEJ2001     0.0000 
      6 C33        19.4430    8.3850    5.8290 C.ar      1 AEJ2001     0.0000 
      7 C40        20.5480    7.8850    5.0820 C.ar      1 AEJ2001     0.0000 
      8 C24        17.0690    9.1440    6.0500 C.3       1 AEJ2001     0.0000 
      9 N26        17.2740    9.1230    7.5190 N.3       1 AEJ2001     0.0000 
     10 C44        16.2730    9.6060    8.3670 C.ar      1 AEJ2001     0.0000 
     11 C45        15.8800   10.9510    8.2630 C.ar      1 AEJ2001     0.0000 
     12 C47        14.8620   11.4610    9.1060 C.ar      1 AEJ2001     0.0000 
     13 C49        14.2320   10.6330   10.0490 C.ar      1 AEJ2001     0.0000 
     14 C51        14.6140    9.3000   10.1570 C.ar      1 AEJ2001     0.0000 
     15 C53        15.6270    8.8010    9.3230 C.ar      1 AEJ2001     0.0000 
     16 C27        18.5830    9.4930    7.9410 C.3       1 AEJ2001     0.0000 
     17 C30        19.6500    8.6600    7.2910 C.3       1 AEJ2001     0.0000 
     18 C19        15.9340    8.1100    5.8520 C.ar      1 AEJ2001     0.0000 
     19 C20        16.1360    6.7730    6.1160 C.ar      1 AEJ2001     0.0000 
     20 C22        15.1750    5.7930    5.9460 C.ar      1 AEJ2001     0.0000 
     21 C14        13.8670    6.0930    5.4900 C.ar      1 AEJ2001     0.0000 
     22 C15        13.6750    7.4540    5.2250 C.ar      1 AEJ2001     0.0000 
     23 C17        14.6880    8.4560    5.4040 C.ar      1 AEJ2001     0.0000 
     24 N7         12.9220    5.1230    5.3350 N.3       1 AEJ2001     0.0000 
     25 C8         11.5080    5.4620    4.9490 C.3       1 AEJ2001     0.0000 
     26 C11        10.4960    4.2880    4.9420 C.3       1 AEJ2001     0.0000 
     27 N1         11.0600    2.9730    4.5380 N.4       1 AEJ2001     0.0000 
     28 C2         12.3710    2.7140    5.1730 C.3       1 AEJ2001     0.0000 
     29 C4         13.3380    3.8160    4.8200 C.3       1 AEJ2001     0.0000 
     30 C55        12.9140    1.4050    4.6020 C.3       1 AEJ2001     0.0000 
     31 C58        11.8970    0.2400    4.7580 C.3       1 AEJ2001     0.0000 
     32 C61        10.5370    0.6390    4.1850 C.3       1 AEJ2001     0.0000 
     33 C64        10.1180    1.9090    4.9360 C.3       1 AEJ2001     0.0000 
     34 H          19.0551    7.5881    2.1245 H         1 AEJ2001     0.0000 
     35 H          17.1740    8.4518    3.3870 H         1 AEJ2001     0.0000 
     36 H          21.4496    7.7667    5.5582 H         1 AEJ2001     0.0000 
     37 H          16.7173   10.0612    5.7071 H         1 AEJ2001     0.0000 
     38 H          16.3261   11.5666    7.5797 H         1 AEJ2001     0.0000 
     39 H          14.5862   12.4460    9.0224 H         1 AEJ2001     0.0000 
     40 H          13.4969   11.0137   10.6504 H         1 AEJ2001     0.0000 
     41 H          14.1638    8.6831   10.8372 H         1 AEJ2001     0.0000 
     42 H          15.9095    7.8059    9.4137 H         1 AEJ2001     0.0000 
     43 H          18.6918    9.3930    9.0413 H         1 AEJ2001     0.0000 
     44 H          18.7912   10.5589    7.7106 H         1 AEJ2001     0.0000 
     45 H          20.6343    9.1617    7.4285 H         1 AEJ2001     0.0000 
     46 H          19.7324    7.6910    7.8328 H         1 AEJ2001     0.0000 
     47 H          17.0896    6.4736    6.4728 H         1 AEJ2001     0.0000 
     48 H          15.4050    4.8008    6.1553 H         1 AEJ2001     0.0000 
     49 H          12.7416    7.7755    4.8746 H         1 AEJ2001     0.0000 
     50 H          14.4463    9.4310    5.1861 H         1 AEJ2001     0.0000 
     51 H          11.4996    5.9229    3.9354 H         1 AEJ2001     0.0000 
     52 H          11.1133    6.2458    5.6344 H         1 AEJ2001     0.0000 
     53 H           9.6614    4.5683    4.2667 H         1 AEJ2001     0.0000 
     54 H          10.0562    4.2180    5.9583 H         1 AEJ2001     0.0000 
     55 H          11.1720    2.9509    3.4600 H         1 AEJ2001     0.0000 
     56 H          12.2795    2.6248    6.2191 H         1 AEJ2001     0.0000 
     57 H          14.3354    3.5485    5.2174 H         1 AEJ2001     0.0000 
     58 H          13.4402    3.8540    3.7189 H         1 AEJ2001     0.0000 
     59 H          13.8338    1.1338    5.1207 H         1 AEJ2001     0.0000 
     60 H          13.1349    1.5325    3.5420 H         1 AEJ2001     0.0000 
     61 H          11.7954    0.0066    5.8117 H         1 AEJ2001     0.0000 
     62 H          12.2770   -0.6260    4.2281 H         1 AEJ2001     0.0000 
     63 H           9.8260   -0.1363    4.3699 H         1 AEJ2001     0.0000 
     64 H          10.6337    0.8554    3.1435 H         1 AEJ2001     0.0000 
     65 H           9.1091    2.1602    4.6517 H         1 AEJ2001     0.0000 
     66 H          10.1764    1.7179    5.9952 H         1 AEJ2001     0.0000 
     67 H          21.0805    6.2348    2.5607 H         1 AEJ2001     0.0000 
@<TRIPOS>BOND
     1    2    1 1    
     2   67    1 1    
     3    3    2 ar   
     4    7    2 ar   
     5    4    3 ar   
     6   34    3 1    
     7    5    4 ar   
     8   35    4 1    
     9    6    5 ar   
    10    8    5 1    
    11    7    6 ar   
    12   17    6 1    
    13   36    7 1    
    14    9    8 1    
    15   18    8 1    
    16   37    8 1    
    17   10    9 1    
    18   16    9 1    
    19   11   10 ar   
    20   15   10 ar   
    21   12   11 ar   
    22   38   11 1    
    23   13   12 ar   
    24   39   12 1    
    25   14   13 ar   
    26   40   13 1    
    27   15   14 ar   
    28   41   14 1    
    29   42   15 1    
    30   17   16 1    
    31   43   16 1    
    32   44   16 1    
    33   45   17 1    
    34   46   17 1    
    35   19   18 ar   
    36   23   18 ar   
    37   20   19 ar   
    38   47   19 1    
    39   21   20 ar   
    40   48   20 1    
    41   22   21 ar   
    42   24   21 1    
    43   23   22 ar   
    44   49   22 1    
    45   50   23 1    
    46   25   24 1    
    47   29   24 1    
    48   26   25 1    
    49   51   25 1    
    50   52   25 1    
    51   27   26 1    
    52   53   26 1    
    53   54   26 1    
    54   28   27 1    
    55   33   27 1    
    56   55   27 1    
    57   29   28 1    
    58   30   28 1    
    59   56   28 1    
    60   57   29 1    
    61   58   29 1    
    62   31   30 1    
    63   59   30 1    
    64   60   30 1    
    65   32   31 1    
    66   61   31 1    
    67   62   31 1    
    68   33   32 1    
    69   63   32 1    
    70   64   32 1    
    71   65   33 1    
    72   66   33 1    
@<TRIPOS>SUBSTRUCTURE
     1 AEJ2001     1 GROUP   
@<TRIPOS>SET

