#    Name: 4j0r_1H2_1_INTS_M
#    Modification time : Tue Mar 25 04:58:48 2014

@<TRIPOS>MOLECULE
4j0r_1H2_1_INTS_M
   55     0     9     0     0
SMALL
NO_CHARGES


@<TRIPOS>ATOM
      1 CA         30.4675   15.7985    2.8215 C.3       3 GLC5        0.0000 
      2 CA         28.9850   15.9750    1.3560 C.3       9 GLL5        0.0000 
      3 CA         31.9500   15.6220    4.2870 C.3       6 GLP5        0.0000 
      4 CA         27.6775   12.8450   -1.4405 C.3       3 GLC5        0.0000 
      5 CA         27.5930   14.6740   -2.5520 C.3       9 GLL5        0.0000 
      6 CA         27.7620   11.0160   -0.3290 C.3       6 GLP5        0.0000 
      7 O          27.2385   15.4020    3.5455 O.2       1 ALC1        0.0000 
      8 O          26.8850   15.3520    2.2260 O.2       7 ALL1        0.0000 
      9 O          27.5920   15.4520    4.8650 O.2       4 ALP1        0.0000 
     10 CA         30.7440   18.0625   -0.9185 C.3       3 GLC5        0.0000 
     11 CA         31.1290   16.6460    0.4310 C.3       9 GLL5        0.0000 
     12 CA         30.3590   19.4790   -2.2680 C.3       6 GLP5        0.0000 
     13 CA         32.9090   13.0020   -0.3025 C.3       3 GLC5        0.0000 
     14 CA         32.4610   14.6970   -0.5630 C.3       9 GLL5        0.0000 
     15 CA         33.3570   11.3070   -0.0420 C.3       6 GLP5        0.0000 
     16 CA         34.4790   14.8240   -0.9420 C.3       3 GLC5        0.0000 
     17 CA         36.4970   14.9510   -1.3210 C.3       6 GLP5        0.0000 
     18 N          34.0880   17.6190   -0.9980 N.am      2 SEC2        0.0000 
     19 N          33.3720   16.9180    0.1810 N.am      8 SEL2        0.0000 
     20 N          34.8040   18.3200   -2.1770 N.am      5 SEP2        0.0000 
     21 CA         28.4690   18.8575    1.2650 C.3       3 GLC5        0.0000 
     22 CA         30.4610   18.8280    1.6960 C.3       9 GLL5        0.0000 
     23 CA         26.4770   18.8870    0.8340 C.3       6 GLP5        0.0000 
     24 CA         30.3405   20.6140    1.6900 C.3       3 GLC5        0.0000 
     25 CA         30.2200   22.4000    1.6840 C.3       6 GLP5        0.0000 
     26 CA         31.2055   17.2250    2.9915 C.3       3 GLC5        0.0000 
     27 CA         29.6850   19.1900   -0.0715 C.3       3 GLC5        0.0000 
     28 CA         28.9090   19.5520   -1.8390 C.3       6 GLP5        0.0000 
     29 CA         29.0150   13.7168    0.1663 C.3       3 GLC5        0.0000 
     30 CA         29.3800   15.6470   -0.9940 C.3       9 GLL5        0.0000 
     31 CA         29.3000   12.0630    1.4050 C.3       6 GLP5        0.0000 
     32 CA         29.2485   17.7092   -1.1023 C.3       3 GLC5        0.0000 
     33 CA         25.8240   18.3720   -1.7767 C.3       3 GLC5        0.0000 
     34 CA         26.3650   16.8860   -2.9600 C.3       9 GLL5        0.0000 
     35 CA         25.4610   19.3170   -0.1780 C.3       6 GLP5        0.0000 
     36 CA         27.5862   18.7910   -3.1333 C.3       3 GLC5        0.0000 
     37 CA         26.0090   17.9680   -3.7910 C.3       9 GLL5        0.0000 
     38 CA         26.0403   19.7645   -4.2877 C.3       3 GLC5        0.0000 
     39 CA         25.8170   21.4990   -4.1480 C.3       6 GLP5        0.0000 
     40 CA         26.9688   17.0505    0.6952 C.3       3 GLC5        0.0000 
     41 CA         27.2270   14.9920   -0.0710 C.3       9 GLL5        0.0000 
     42 CA         28.3803   13.6385    0.9808 C.3       3 GLC5        0.0000 
     43 CA         27.6940   15.4360    1.1840 C.3       9 GLL5        0.0000 
     44 CA         29.1318   17.9945   -4.4563 C.3       3 GLC5        0.0000 
     45 CA         27.8630   16.0610   -4.7090 C.3       9 GLL5        0.0000 
     46 CA         30.5990   19.3820   -3.7810 C.3       6 GLP5        0.0000 
     47 CA         27.9337   17.4588    0.8217 C.3       3 GLC5        0.0000 
     48 CA         29.7960   16.0860    0.2630 C.3       9 GLL5        0.0000 
     49 CA         29.3453   14.0467    1.1073 C.3       3 GLC5        0.0000 
     50 CA         27.8695   17.9758   -2.5132 C.3       3 GLC5        0.0000 
     51 CA         27.2950   15.9130   -3.4150 C.3       9 GLL5        0.0000 
     52 CA         27.4750   18.8528   -6.8215 C.3       3 GLC5        0.0000 
     53 CA         26.5180   18.0920   -5.0640 C.3       9 GLL5        0.0000 
     54 CA         27.9580   20.0830   -8.3340 C.3       6 GLP5        0.0000 
     55 CA         31.8230   15.9893    2.2470 C.3       3 GLC5        0.0000 
@<TRIPOS>BOND
@<TRIPOS>SUBSTRUCTURE
     1 ALC1        7 GROUP        1 X    ALC  0     ROOT ALC X 1
     2 SEC2       18 GROUP        1 X    SEC  0     **** SEC X 2
     3 GLC5        1 GROUP        1 X    GLC  0     **** GLC X 6
     4 ALP1        9 GROUP        1 Y    ALP  0     ROOT ALP Y 8
     5 SEP2       20 GROUP        1 Y    SEP  0     **** SEP Y 9
     6 GLP5        3 GROUP        1 Y    GLP  0     **** GLP Y 13
     7 ALL1        8 GROUP        1 Z    ALL  0     ROOT ALL Z 15
     8 SEL2       19 GROUP        1 Z    SEL  0     **** SEL Z 16
     9 GLL5        2 GROUP        1 Z    GLL  0     **** GLL Z 20
@<TRIPOS>SET

