#    Name: 4j0r_1H2_1_ligand
#    Modification time : Tue Mar 25 04:58:48 2014

@<TRIPOS>MOLECULE
4j0r_1H2_1_ligand
   39    41     1     0     0
SMALL
NO_CHARGES


@<TRIPOS>ATOM
      1 C4         29.3800   15.6470   -0.9940 C.ar      1 1H2205      0.0000 
      2 C14        26.0090   17.9680   -3.7910 C.ar      1 1H2205      0.0000 
      3 C5         28.0800   15.0940   -1.1510 C.ar      1 1H2205      0.0000 
      4 C6         27.2270   14.9920   -0.0710 C.ar      1 1H2205      0.0000 
      5 C11        27.8630   16.0610   -4.7090 C.ar      1 1H2205      0.0000 
      6 C7         27.6940   15.4360    1.1840 C.ar      1 1H2205      0.0000 
      7 C8         28.9850   15.9750    1.3560 C.ar      1 1H2205      0.0000 
      8 C9         27.5930   14.6740   -2.5520 C.3       1 1H2205      0.0000 
      9 C10        27.2950   15.9130   -3.4150 C.ar      1 1H2205      0.0000 
     10 C12        27.4660   17.1530   -5.5540 C.ar      1 1H2205      0.0000 
     11 C13        26.5180   18.0920   -5.0640 C.ar      1 1H2205      0.0000 
     12 C3         29.7960   16.0860    0.2630 C.ar      1 1H2205      0.0000 
     13 O1         28.6100   13.8550   -3.1450 O.3       1 1H2205      0.0000 
     14 C15        26.3650   16.8860   -2.9600 C.ar      1 1H2205      0.0000 
     15 O          26.8850   15.3520    2.2260 O.3       1 1H2205      0.0000 
     16 C2         31.1290   16.6460    0.4310 C.2       1 1H2205      0.0000 
     17 C16        32.2630   16.0670   -0.0170 C.2       1 1H2205      0.0000 
     18 C17        32.4610   14.6970   -0.5630 C.3       1 1H2205      0.0000 
     19 O2         33.3720   16.9180    0.1810 O.3       1 1H2205      0.0000 
     20 N          32.8010   18.0980    0.8520 N.2       1 1H2205      0.0000 
     21 C1         31.4440   17.9120    1.0110 C.2       1 1H2205      0.0000 
     22 C          30.4610   18.8280    1.6960 C.3       1 1H2205      0.0000 
     23 H          29.9965   15.7173   -1.8035 H         1 1H2205      0.0000 
     24 H          25.3488   18.6778   -3.4221 H         1 1H2205      0.0000 
     25 H          26.2929   14.6126   -0.1615 H         1 1H2205      0.0000 
     26 H          28.5545   15.3943   -5.0451 H         1 1H2205      0.0000 
     27 H          29.2874   16.2694    2.2837 H         1 1H2205      0.0000 
     28 H          26.6750   14.1195   -2.4225 H         1 1H2205      0.0000 
     29 H          27.8573   17.2457   -6.4780 H         1 1H2205      0.0000 
     30 H          26.2233   18.8614   -5.6794 H         1 1H2205      0.0000 
     31 H          25.9563   16.7972   -2.0286 H         1 1H2205      0.0000 
     32 H          33.4139   14.5329   -0.8179 H         1 1H2205      0.0000 
     33 H          32.2098   13.9927    0.1010 H         1 1H2205      0.0000 
     34 H          31.9075   14.5396   -1.3809 H         1 1H2205      0.0000 
     35 H          30.8996   19.6645    2.0244 H         1 1H2205      0.0000 
     36 H          29.7223   19.1060    1.0819 H         1 1H2205      0.0000 
     37 H          30.0349   18.3902    2.4877 H         1 1H2205      0.0000 
     38 H          28.2266   13.5596   -4.0201 H         1 1H2205      0.0000 
     39 H          27.4842   15.4125    3.0243 H         1 1H2205      0.0000 
@<TRIPOS>BOND
     1    3    1 ar   
     2   12    1 ar   
     3   23    1 1    
     4   11    2 ar   
     5   14    2 ar   
     6   24    2 1    
     7    4    3 ar   
     8    8    3 1    
     9    6    4 ar   
    10   25    4 1    
    11    9    5 ar   
    12   10    5 ar   
    13   26    5 1    
    14    7    6 ar   
    15   15    6 1    
    16   12    7 ar   
    17   27    7 1    
    18    9    8 1    
    19   13    8 1    
    20   28    8 1    
    21   14    9 ar   
    22   11   10 ar   
    23   29   10 1    
    24   30   11 1    
    25   16   12 1    
    26   38   13 1    
    27   31   14 1    
    28   39   15 1    
    29   17   16 2    
    30   21   16 1    
    31   18   17 1    
    32   19   17 1    
    33   32   18 1    
    34   33   18 1    
    35   34   18 1    
    36   20   19 1    
    37   21   20 2    
    38   22   21 1    
    39   35   22 1    
    40   36   22 1    
    41   37   22 1    
@<TRIPOS>SUBSTRUCTURE
     1 1H2205      1 GROUP   
@<TRIPOS>SET

