#    Name: 2cke_IQU_1_INTS_M
#    Modification time : Tue Mar 25 00:56:38 2014

@<TRIPOS>MOLECULE
2cke_IQU_1_INTS_M
   41     0     9     0     0
SMALL
NO_CHARGES


@<TRIPOS>ATOM
      1 CA          9.8915   -4.4775    7.3935 C.3       3 GLC5        0.0000 
      2 CA          8.8970   -4.7540    9.3070 C.3       9 GLL5        0.0000 
      3 CA         10.8860   -4.2010    5.4800 C.3       6 GLP5        0.0000 
      4 N          11.1595   -4.7760    8.2935 N.am      2 SEC2        0.0000 
      5 N          10.1380   -4.2450    9.3130 N.am      8 SEL2        0.0000 
      6 N          12.1810   -5.3070    7.2740 N.am      5 SEP2        0.0000 
      7 CA         10.4390   -4.6795   10.9935 C.3       3 GLC5        0.0000 
      8 CA         10.4010   -3.0020    9.7500 C.3       9 GLL5        0.0000 
      9 CA         10.4770   -6.3570   12.2370 C.3       6 GLP5        0.0000 
     10 CA         12.1415   -4.0205   10.2750 C.3       3 GLC5        0.0000 
     11 CA         13.8820   -5.0390   10.8000 C.3       6 GLP5        0.0000 
     12 CA         11.3305   -3.6880    7.9545 C.3       3 GLC5        0.0000 
     13 CA         12.2600   -4.3740    6.1590 C.3       6 GLP5        0.0000 
     14 CA          6.1145    1.1265   13.7805 C.3       3 GLC5        0.0000 
     15 CA          4.8110    0.4480   12.5540 C.3       9 GLL5        0.0000 
     16 CA          7.4180    1.8050   15.0070 C.3       6 GLP5        0.0000 
     17 CA          5.1450   -1.3750   13.5235 C.3       3 GLC5        0.0000 
     18 CA          5.4790   -3.1980   14.4930 C.3       6 GLP5        0.0000 
     19 O           2.7100    1.5935   14.2895 O.2       1 ALC1        0.0000 
     20 O           2.5210    0.6280   13.4550 O.2       7 ALL1        0.0000 
     21 O           2.8990    2.5590   15.1240 O.2       4 ALP1        0.0000 
     22 CA          5.6092   -1.8702    9.0613 C.3       3 GLC5        0.0000 
     23 CA          6.9090   -1.8210   10.7330 C.3       9 GLL5        0.0000 
     24 CA          4.9390   -1.6180    7.4080 C.3       6 GLP5        0.0000 
     25 CA          5.5198   -3.1360   12.4767 C.3       3 GLC5        0.0000 
     26 CA          5.6500   -2.4240   10.6960 C.3       9 GLL5        0.0000 
     27 CA          5.4707   -2.8638    8.7022 C.3       3 GLC5        0.0000 
     28 CA          5.4710   -3.7240   10.2250 C.3       9 GLL5        0.0000 
     29 CA          9.4198   -5.3650   10.8860 C.3       3 GLC5        0.0000 
     30 CA          7.8280   -3.9920    9.7630 C.3       9 GLL5        0.0000 
     31 CA          6.4465   -2.4610    8.7075 C.3       3 GLC5        0.0000 
     32 CA          7.3545   -5.9534    8.5161 C.3       3 GLC5        0.0000 
     33 CA          6.5340   -4.4950    9.7680 C.3       9 GLL5        0.0000 
     34 CA          6.6700   -7.4080    7.4960 C.3       6 GLP5        0.0000 
     35 CA         11.0008   -2.6540   11.3703 C.3       3 GLC5        0.0000 
     36 CA         12.1030   -2.7260   12.7530 C.3       6 GLP5        0.0000 
     37 CA          9.6623   -1.1475    8.5288 C.3       3 GLC5        0.0000 
     38 CA          9.4260    0.2870    7.0700 C.3       6 GLP5        0.0000 
     39 CA          8.2063   -3.1888   12.1156 C.3       3 GLC5        0.0000 
     40 CA          9.3960   -2.1620   10.2250 C.3       9 GLL5        0.0000 
     41 CA          7.8840   -3.7440   14.0550 C.3       6 GLP5        0.0000 
@<TRIPOS>BOND
@<TRIPOS>SUBSTRUCTURE
     1 ALC1       19 GROUP        1 X    ALC  0     ROOT ALC X 1
     2 SEC2        4 GROUP        1 X    SEC  0     **** SEC X 2
     3 GLC5        1 GROUP        1 X    GLC  0     **** GLC X 6
     4 ALP1       21 GROUP        1 Y    ALP  0     ROOT ALP Y 8
     5 SEP2        6 GROUP        1 Y    SEP  0     **** SEP Y 9
     6 GLP5        3 GROUP        1 Y    GLP  0     **** GLP Y 13
     7 ALL1       20 GROUP        1 Z    ALL  0     ROOT ALL Z 15
     8 SEL2        5 GROUP        1 Z    SEL  0     **** SEL Z 16
     9 GLL5        2 GROUP        1 Z    GLL  0     **** GLL Z 20
@<TRIPOS>SET

