#    Name: 2cke_IQU_1_ligand
#    Modification time : Tue Mar 25 00:56:38 2014

@<TRIPOS>MOLECULE
2cke_IQU_1_ligand
   31    32     1     0     0
SMALL
NO_CHARGES


@<TRIPOS>ATOM
      1 C1          6.9090   -1.8210   10.7330 C.ar      1 IQU1302     0.0000 
      2 C2          5.6500   -2.4240   10.6960 C.ar      1 IQU1302     0.0000 
      3 C3          5.4710   -3.7240   10.2250 C.ar      1 IQU1302     0.0000 
      4 C4          6.5340   -4.4950    9.7680 C.ar      1 IQU1302     0.0000 
      5 C5          7.8280   -3.9920    9.7630 C.ar      1 IQU1302     0.0000 
      6 C6          8.8970   -4.7540    9.3070 C.ar      1 IQU1302     0.0000 
      7 N7         10.1380   -4.2450    9.3130 N.ar      1 IQU1302     0.0000 
      8 C8         10.4010   -3.0020    9.7500 C.ar      1 IQU1302     0.0000 
      9 C9          9.3960   -2.1620   10.2250 C.ar      1 IQU1302     0.0000 
     10 C10         8.0800   -2.6160   10.2510 C.ar      1 IQU1302     0.0000 
     11 S           7.0500   -0.3240   11.2870 S.o2      1 IQU1302     0.0000 
     12 O1          7.6430   -0.3580   12.5930 O.2       1 IQU1302     0.0000 
     13 O2          7.8830    0.4530   10.4110 O.2       1 IQU1302     0.0000 
     14 N1'         5.6070    0.3880   11.3380 N.pl3     1 IQU1302     0.0000 
     15 C2'         4.8110    0.4480   12.5540 C.3       1 IQU1302     0.0000 
     16 C3'         3.3150    0.4280   12.2560 C.3       1 IQU1302     0.0000 
     17 N4'         2.5210    0.6280   13.4550 N.4       1 IQU1302     0.0000 
     18 H           4.8239   -1.8880   11.0291 H         1 IQU1302     0.0000 
     19 H           4.5110   -4.1285   10.2158 H         1 IQU1302     0.0000 
     20 H           6.3575   -5.4559    9.4274 H         1 IQU1302     0.0000 
     21 H           8.7123   -5.7165    8.9655 H         1 IQU1302     0.0000 
     22 H          11.3829   -2.6340    9.7420 H         1 IQU1302     0.0000 
     23 H           9.6236   -1.2191   10.5520 H         1 IQU1302     0.0000 
     24 H           5.3027    0.7844   10.4699 H         1 IQU1302     0.0000 
     25 H           5.0329    1.3651   13.1232 H         1 IQU1302     0.0000 
     26 H           5.0385   -0.4045   13.2142 H         1 IQU1302     0.0000 
     27 H           3.0754   -0.5381   11.7820 H         1 IQU1302     0.0000 
     28 H           3.1061    1.2127   11.5103 H         1 IQU1302     0.0000 
     29 H           2.3362    1.5967   13.6208 H         1 IQU1302     0.0000 
     30 H           1.6358    0.1668   13.3954 H         1 IQU1302     0.0000 
     31 H           2.9817    0.2740   14.2689 H         1 IQU1302     0.0000 
@<TRIPOS>BOND
     1    2    1 ar   
     2   10    1 ar   
     3   11    1 1    
     4    3    2 ar   
     5   18    2 1    
     6    4    3 ar   
     7   19    3 1    
     8    5    4 ar   
     9   20    4 1    
    10    6    5 ar   
    11   10    5 ar   
    12    7    6 ar   
    13   21    6 1    
    14    8    7 ar   
    15    9    8 ar   
    16   22    8 1    
    17   10    9 ar   
    18   23    9 1    
    19   12   11 2    
    20   13   11 2    
    21   14   11 1    
    22   15   14 1    
    23   24   14 1    
    24   16   15 1    
    25   25   15 1    
    26   26   15 1    
    27   17   16 1    
    28   27   16 1    
    29   28   16 1    
    30   29   17 1    
    31   30   17 1    
    32   31   17 1    
@<TRIPOS>SUBSTRUCTURE
     1 IQU1302     1 GROUP   
@<TRIPOS>SET

