#    Name: 1jhq_PMO_1_INTS_M
#    Modification time : Tue Mar 25 08:55:52 2014

@<TRIPOS>MOLECULE
1jhq_PMO_1_INTS_M
   57     0     9     0     0
SMALL
NO_CHARGES


@<TRIPOS>ATOM
      1 N          55.7055   41.6380   15.1475 N.am      2 SEC2        0.0000 
      2 N          56.2990   41.4010   14.0420 N.am      8 SEL2        0.0000 
      3 N          55.1120   41.8750   16.2530 N.am      5 SEP2        0.0000 
      4 CA         59.3025   40.4090   12.7095 C.3       3 GLC5        0.0000 
      5 CA         57.7000   41.6680   12.3270 C.3       9 GLL5        0.0000 
      6 CA         60.9050   39.1500   13.0920 C.3       6 GLP5        0.0000 
      7 CA         55.6745   43.0625   13.5120 C.3       3 GLC5        0.0000 
      8 CA         57.4650   42.0330   13.6400 C.3       9 GLL5        0.0000 
      9 CA         53.8840   44.0920   13.3840 C.3       6 GLP5        0.0000 
     10 CA         58.5205   42.0040   16.1575 C.3       3 GLC5        0.0000 
     11 CA         58.3190   42.9080   14.3140 C.3       9 GLL5        0.0000 
     12 CA         58.7220   41.1000   18.0010 C.3       6 GLP5        0.0000 
     13 CA         58.6900   42.6555    9.6625 C.3       3 GLC5        0.0000 
     14 CA         58.8380   42.1620   11.6770 C.3       9 GLL5        0.0000 
     15 CA         58.5420   43.1490    7.6480 C.3       6 GLP5        0.0000 
     16 CA         61.4340   43.3710   15.1275 C.3       3 GLC5        0.0000 
     17 CA         60.1040   44.6980   15.4660 C.3       9 GLL5        0.0000 
     18 CA         62.7640   42.0440   14.7890 C.3       6 GLP5        0.0000 
     19 N          58.2185   36.7915    5.2115 N.am      2 SEC2        0.0000 
     20 N          58.9980   38.1260    5.3200 N.am      8 SEL2        0.0000 
     21 N          57.4390   35.4570    5.1030 N.am      5 SEP2        0.0000 
     22 N          58.1385   38.0455    4.3660 N.am      2 SEC2        0.0000 
     23 N          57.2790   37.9650    3.4120 N.am      5 SEP2        0.0000 
     24 N          58.6235   41.5435    5.3050 N.am      2 SEC2        0.0000 
     25 N          59.6280   40.4890    5.2080 N.am      8 SEL2        0.0000 
     26 N          57.6190   42.5980    5.4020 N.am      5 SEP2        0.0000 
     27 N          59.7590   40.4625    3.8840 N.am      2 SEC2        0.0000 
     28 N          59.8900   40.4360    2.5600 N.am      5 SEP2        0.0000 
     29 N          61.0830   38.0015    7.2800 N.am      2 SEC2        0.0000 
     30 N          60.5080   39.1890    7.0990 N.am      8 SEL2        0.0000 
     31 N          61.6580   36.8140    7.4610 N.am      5 SEP2        0.0000 
     32 N          57.8235   41.1085    6.1655 N.am      2 SEC2        0.0000 
     33 N          58.0280   39.6190    6.9290 N.am      8 SEL2        0.0000 
     34 CA         56.5905   38.2380    6.5170 C.3       3 GLC5        0.0000 
     35 CA         57.5420   38.6740    7.8900 C.3       9 GLL5        0.0000 
     36 CA         55.6390   37.8020    5.1440 C.3       6 GLP5        0.0000 
     37 CA         60.0155   38.1335    9.5540 C.3       3 GLC5        0.0000 
     38 CA         58.0550   39.0570    9.2670 C.3       9 GLL5        0.0000 
     39 CA         61.9760   37.2100    9.8410 C.3       6 GLP5        0.0000 
     40 CA         58.2985   41.1030    8.4575 C.3       3 GLC5        0.0000 
     41 CA         58.7750   36.4800   11.1710 C.3       3 GLC5        0.0000 
     42 CA         57.6220   38.1250   10.3890 C.3       9 GLL5        0.0000 
     43 CA         59.9280   34.8350   11.9530 C.3       6 GLP5        0.0000 
     44 CA         59.2635   38.6375   11.7405 C.3       3 GLC5        0.0000 
     45 N          58.6095   36.8765   12.1060 N.am      2 SEC2        0.0000 
     46 N          58.4000   38.2690   11.5860 N.am      8 SEL2        0.0000 
     47 N          58.8190   35.4840   12.6260 N.am      5 SEP2        0.0000 
     48 O          55.2500   37.1035   11.6520 O.2       1 ALC1        0.0000 
     49 O          55.7520   38.2440   11.9090 O.2       7 ALL1        0.0000 
     50 O          54.7480   35.9630   11.3950 O.2       4 ALP1        0.0000 
     51 CA         57.6082   40.1813   14.2437 C.3       3 GLC5        0.0000 
     52 CA         57.6340   38.5120   15.5040 C.3       6 GLP5        0.0000 
     53 CA         61.1737   42.6217   13.9038 C.3       3 GLC5        0.0000 
     54 CA         59.4620   43.3810   13.6920 C.3       9 GLL5        0.0000 
     55 CA         60.5427   41.1945   11.8245 C.3       3 GLC5        0.0000 
     56 CA         59.7050   43.0180   12.3450 C.3       9 GLL5        0.0000 
     57 CA         61.8140   39.7990   11.6380 C.3       6 GLP5        0.0000 
@<TRIPOS>BOND
@<TRIPOS>SUBSTRUCTURE
     1 ALC1       48 GROUP        1 X    ALC  0     ROOT ALC X 1
     2 SEC2        1 GROUP        1 X    SEC  0     **** SEC X 2
     3 GLC5        4 GROUP        1 X    GLC  0     **** GLC X 6
     4 ALP1       50 GROUP        1 Y    ALP  0     ROOT ALP Y 8
     5 SEP2        3 GROUP        1 Y    SEP  0     **** SEP Y 9
     6 GLP5        6 GROUP        1 Y    GLP  0     **** GLP Y 13
     7 ALL1       49 GROUP        1 Z    ALL  0     ROOT ALL Z 15
     8 SEL2        2 GROUP        1 Z    SEL  0     **** SEL Z 16
     9 GLL5        5 GROUP        1 Z    GLL  0     **** GLL Z 20
@<TRIPOS>SET

