#    Name: 1jhq_PMO_1_ligand
#    Modification time : Tue Mar 25 08:55:52 2014

@<TRIPOS>MOLECULE
1jhq_PMO_1_ligand
   39    41     1     0     0
SMALL
NO_CHARGES


@<TRIPOS>ATOM
      1 N3         56.2990   41.4010   14.0420 N.2       1 PMO990      0.0000 
      2 N1         56.6380   40.8340   11.8820 N.pl3     1 PMO990      0.0000 
      3 C2         55.8530   40.7170   12.9820 C.2       1 PMO990      0.0000 
      4 C7A        57.7000   41.6680   12.3270 C.ar      1 PMO990      0.0000 
      5 C3A        57.4650   42.0330   13.6400 C.ar      1 PMO990      0.0000 
      6 C4         58.3190   42.9080   14.3140 C.ar      1 PMO990      0.0000 
      7 C5         59.4620   43.3810   13.6920 C.ar      1 PMO990      0.0000 
      8 C6         59.7050   43.0180   12.3450 C.ar      1 PMO990      0.0000 
      9 C7         58.8380   42.1620   11.6770 C.ar      1 PMO990      0.0000 
     10 O10        60.4090   44.2570   14.1570 O.3       1 PMO990      0.0000 
     11 C11        60.1040   44.6980   15.4660 C.3       1 PMO990      0.0000 
     12 P          59.3970   39.3310    6.1030 P.3       1 PMO990      0.0000 
     13 O1P        58.9980   38.1260    5.3200 O.co2     1 PMO990      0.0000 
     14 O2P        59.6280   40.4890    5.2080 O.co2     1 PMO990      0.0000 
     15 O3P        60.5080   39.1890    7.0990 O.co2     1 PMO990      0.0000 
     16 O5'        58.0280   39.6190    6.9290 O.3       1 PMO990      0.0000 
     17 C5'        57.5420   38.6740    7.8900 C.3       1 PMO990      0.0000 
     18 C4'        58.0550   39.0570    9.2670 C.3       1 PMO990      0.0000 
     19 O4'        57.5090   40.3700    9.6420 O.3       1 PMO990      0.0000 
     20 C3'        57.6220   38.1250   10.3890 C.3       1 PMO990      0.0000 
     21 O3'        58.4000   38.2690   11.5860 O.3       1 PMO990      0.0000 
     22 C2'        56.2070   38.6900   10.6080 C.3       1 PMO990      0.0000 
     23 O2'        55.7520   38.2440   11.9090 O.3       1 PMO990      0.0000 
     24 C1'        56.4200   40.2110   10.5510 C.3       1 PMO990      0.0000 
     25 H          55.0162   40.1656   12.9903 H         1 PMO990      0.0000 
     26 H          58.0939   43.1991   15.2754 H         1 PMO990      0.0000 
     27 H          60.5329   43.3971   11.8676 H         1 PMO990      0.0000 
     28 H          59.0276   41.8882   10.7051 H         1 PMO990      0.0000 
     29 H          57.8877   37.6603    7.6680 H         1 PMO990      0.0000 
     30 H          56.4488   38.6620    7.9254 H         1 PMO990      0.0000 
     31 H          59.1267   39.1150    9.2601 H         1 PMO990      0.0000 
     32 H          57.5255   37.1601   10.0164 H         1 PMO990      0.0000 
     33 H          55.6035   38.3870    9.8142 H         1 PMO990      0.0000 
     34 H          55.5086   40.6202   10.0917 H         1 PMO990      0.0000 
     35 H          60.0602   43.9372   16.1135 H         1 PMO990      0.0000 
     36 H          60.7903   45.3379   15.8117 H         1 PMO990      0.0000 
     37 H          59.2213   45.1663   15.5039 H         1 PMO990      0.0000 
     38 H          57.7287   38.3522   12.3225 H         1 PMO990      0.0000 
     39 H          55.7991   37.2458   11.8713 H         1 PMO990      0.0000 
@<TRIPOS>BOND
     1    3    1 2    
     2    5    1 1    
     3    3    2 1    
     4    4    2 1    
     5   24    2 1    
     6   25    3 1    
     7    5    4 ar   
     8    9    4 ar   
     9    6    5 ar   
    10    7    6 ar   
    11   26    6 1    
    12    8    7 ar   
    13   10    7 1    
    14    9    8 ar   
    15   27    8 1    
    16   28    9 1    
    17   11   10 1    
    18   35   11 1    
    19   36   11 1    
    20   37   11 1    
    21   13   12 ar   
    22   14   12 ar   
    23   15   12 ar   
    24   16   12 1    
    25   17   16 1    
    26   18   17 1    
    27   29   17 1    
    28   30   17 1    
    29   19   18 1    
    30   20   18 1    
    31   31   18 1    
    32   24   19 1    
    33   21   20 1    
    34   22   20 1    
    35   32   20 1    
    36   38   21 1    
    37   23   22 1    
    38   24   22 1    
    39   33   22 1    
    40   39   23 1    
    41   34   24 1    
@<TRIPOS>SUBSTRUCTURE
     1 PMO990      1 GROUP   
@<TRIPOS>SET

