#    Name: 4aa5_NQB_1_INTS_M
#    Modification time : Tue Mar 25 05:22:24 2014

@<TRIPOS>MOLECULE
4aa5_NQB_1_INTS_M
   76     0     9     0     0
SMALL
NO_CHARGES


@<TRIPOS>ATOM
      1 CA         -4.0665    0.8775   26.3580 C.3       3 GLC5        0.0000 
      2 CA         -1.8880    0.9780   26.3390 C.3       9 GLL5        0.0000 
      3 CA         -6.2450    0.7770   26.3770 C.3       6 GLP5        0.0000 
      4 CA         -4.6060    2.4955   22.2120 C.3       3 GLC5        0.0000 
      5 CA         -2.9130    1.5970   22.7000 C.3       9 GLL5        0.0000 
      6 CA         -6.2990    3.3940   21.7240 C.3       6 GLP5        0.0000 
      7 CA         -4.8265    1.1005   23.3950 C.3       3 GLC5        0.0000 
      8 CA         -2.7100    0.9730   23.9540 C.3       9 GLL5        0.0000 
      9 CA         -6.9430    1.2280   22.8360 C.3       6 GLP5        0.0000 
     10 CA         -4.1535   -2.7665   23.4340 C.3       3 GLC5        0.0000 
     11 CA         -2.9340   -1.2150   22.8170 C.3       9 GLL5        0.0000 
     12 CA         -5.3730   -4.3180   24.0510 C.3       6 GLP5        0.0000 
     13 CA         -2.7685    1.2315   13.6330 C.3       3 GLC5        0.0000 
     14 CA         -2.7190    1.9480   15.7260 C.3       9 GLL5        0.0000 
     15 CA         -2.8180    0.5150   11.5400 C.3       6 GLP5        0.0000 
     16 CA         -4.4205    2.0720   13.3250 C.3       3 GLC5        0.0000 
     17 CA         -4.0530    2.0670   15.2410 C.3       9 GLL5        0.0000 
     18 CA         -4.7880    2.0770   11.4090 C.3       6 GLP5        0.0000 
     19 CA         -5.7165    3.1090   14.1485 C.3       3 GLC5        0.0000 
     20 CA         -7.3800    4.1510   13.0560 C.3       6 GLP5        0.0000 
     21 CA         -0.2720    5.4030   13.5600 C.3       3 GLC5        0.0000 
     22 CA         -0.4810    3.5000   12.9720 C.3       9 GLL5        0.0000 
     23 CA         -0.0630    7.3060   14.1480 C.3       6 GLP5        0.0000 
     24 CA         -0.6505    3.3485    9.6185 C.3       3 GLC5        0.0000 
     25 CA         -0.6000    3.2540   11.4870 C.3       9 GLL5        0.0000 
     26 CA         -0.7010    3.4430    7.7500 C.3       6 GLP5        0.0000 
     27 CA          0.8545    2.1590   10.7500 C.3       3 GLC5        0.0000 
     28 CA          2.3090    1.0640   10.0130 C.3       6 GLP5        0.0000 
     29 CA         -0.4325    5.4815   11.5900 C.3       3 GLC5        0.0000 
     30 CA         -0.2650    7.7090   11.6930 C.3       6 GLP5        0.0000 
     31 CA          0.1555    0.5570   13.2525 C.3       3 GLC5        0.0000 
     32 CA          0.3790    2.4760   12.3290 C.3       9 GLL5        0.0000 
     33 CA         -0.0680   -1.3620   14.1760 C.3       6 GLP5        0.0000 
     34 CA          1.2285    1.2500   11.6195 C.3       3 GLC5        0.0000 
     35 CA          2.0780    0.0240   10.9100 C.3       6 GLP5        0.0000 
     36 O          -3.1305    3.0345   27.9000 O.2       1 ALC1        0.0000 
     37 O          -1.7190    3.1280   27.6270 O.2       7 ALL1        0.0000 
     38 O          -4.5420    2.9410   28.1730 O.2       4 ALP1        0.0000 
     39 CA         -3.7275    4.7575   27.2425 C.3       3 GLC5        0.0000 
     40 CA         -1.8140    3.9390   26.4010 C.3       9 GLL5        0.0000 
     41 CA         -5.6410    5.5760   28.0840 C.3       6 GLP5        0.0000 
     42 CA         -6.9310    1.9860   15.0185 C.3       3 GLC5        0.0000 
     43 CA         -5.1120    1.6920   16.0560 C.3       9 GLL5        0.0000 
     44 CA         -8.7500    2.2800   13.9810 C.3       6 GLP5        0.0000 
     45 CA         -6.1755    2.0705   19.9670 C.3       3 GLC5        0.0000 
     46 CA         -6.0520    0.7470   18.2100 C.3       9 GLL5        0.0000 
     47 CA         -6.2800   -0.6855   19.5090 C.3       3 GLC5        0.0000 
     48 CA         -6.5080   -2.1180   20.8080 C.3       6 GLP5        0.0000 
     49 N           0.8530    2.2435   15.4015 N.am      2 SEC2        0.0000 
     50 N          -0.4790    1.7730   15.3020 N.am      8 SEL2        0.0000 
     51 N           2.1850    2.7140   15.5010 N.am      5 SEP2        0.0000 
     52 O          -2.7535    4.0755   13.9700 O.2       1 ALC1        0.0000 
     53 O          -1.5610    3.1110   13.8350 O.2       7 ALL1        0.0000 
     54 O          -3.9460    5.0400   14.1050 O.2       4 ALP1        0.0000 
     55 CA         -4.4853    0.5225   25.1687 C.3       3 GLC5        0.0000 
     56 CA         -4.7652   -1.5110   21.5057 C.3       3 GLC5        0.0000 
     57 CA         -1.4592    0.4905   18.3788 C.3       3 GLC5        0.0000 
     58 CA         -3.5770    1.0110   17.8070 C.3       9 GLL5        0.0000 
     59 CA          0.1170   -0.2220   19.3510 C.3       6 GLP5        0.0000 
     60 CA         -5.1392    3.5667   16.2142 C.3       3 GLC5        0.0000 
     61 CA         -5.6960    5.2540   16.7800 C.3       6 GLP5        0.0000 
     62 CA         -4.9958    0.0117   15.4367 C.3       3 GLC5        0.0000 
     63 CA         -5.4090   -1.8560   15.2250 C.3       6 GLP5        0.0000 
     64 CA         -2.1298    4.4985   12.0213 C.3       3 GLC5        0.0000 
     65 CA         -3.7190    5.6200   11.8130 C.3       6 GLP5        0.0000 
     66 CA          1.1265    3.5865   14.0403 C.3       3 GLC5        0.0000 
     67 CA          2.3040    4.1850   15.4300 C.3       6 GLP5        0.0000 
     68 CA         -1.4494    1.7208   11.9096 C.3       3 GLC5        0.0000 
     69 CA         -6.7422    2.3542   18.0885 C.3       3 GLC5        0.0000 
     70 CA         -4.9010    1.1660   17.3500 C.3       9 GLL5        0.0000 
     71 CA         -8.0080    3.7520   18.3970 C.3       6 GLP5        0.0000 
     72 CA         -4.9679   -0.4361   16.5093 C.3       3 GLC5        0.0000 
     73 CA         -5.0237    0.6710   22.1977 C.3       3 GLC5        0.0000 
     74 CA         -3.1110   -0.5930   21.5900 C.3       9 GLL5        0.0000 
     75 CA         -1.4937   -0.0540   20.4552 C.3       3 GLC5        0.0000 
     76 CA         -3.0980    0.8210   21.5290 C.3       9 GLL5        0.0000 
@<TRIPOS>BOND
@<TRIPOS>SUBSTRUCTURE
     1 ALC1       36 GROUP        1 X    ALC  0     ROOT ALC X 1
     2 SEC2       49 GROUP        1 X    SEC  0     **** SEC X 2
     3 GLC5        1 GROUP        1 X    GLC  0     **** GLC X 6
     4 ALP1       38 GROUP        1 Y    ALP  0     ROOT ALP Y 8
     5 SEP2       51 GROUP        1 Y    SEP  0     **** SEP Y 9
     6 GLP5        3 GROUP        1 Y    GLP  0     **** GLP Y 13
     7 ALL1       37 GROUP        1 Z    ALL  0     ROOT ALL Z 15
     8 SEL2       50 GROUP        1 Z    SEL  0     **** SEL Z 16
     9 GLL5        2 GROUP        1 Z    GLL  0     **** GLL Z 20
@<TRIPOS>SET

