#    Name: 4aa5_NQB_1_ligand
#    Modification time : Tue Mar 25 05:22:24 2014

@<TRIPOS>MOLECULE
4aa5_NQB_1_ligand
   59    63     1     0     0
SMALL
NO_CHARGES


@<TRIPOS>ATOM
      1 C1         -1.8880    0.9780   26.3390 C.3       1 NQB1353     0.0000 
      2 C2         -1.0510    1.8380   27.3070 C.3       1 NQB1353     0.0000 
      3 C8         -1.0950    3.8890   28.7120 C.3       1 NQB1353     0.0000 
      4 C9         -2.9130    1.5970   22.7000 C.ar      1 NQB1353     0.0000 
      5 C10        -2.7100    0.9730   23.9540 C.ar      1 NQB1353     0.0000 
      6 C11        -2.7410   -0.4370   23.9670 C.ar      1 NQB1353     0.0000 
      7 C12        -2.9340   -1.2150   22.8170 C.ar      1 NQB1353     0.0000 
      8 C14        -2.4940    1.3950   17.0060 C.ar      1 NQB1353     0.0000 
      9 C15        -2.7190    1.9480   15.7260 C.ar      1 NQB1353     0.0000 
     10 C16        -4.0530    2.0670   15.2410 C.ar      1 NQB1353     0.0000 
     11 C19        -1.4930    2.2910   14.9380 C.2       1 NQB1353     0.0000 
     12 C20        -0.4810    3.5000   12.9720 C.3       1 NQB1353     0.0000 
     13 C21        -0.6000    3.2540   11.4870 C.3       1 NQB1353     0.0000 
     14 C22         0.3790    2.4760   12.3290 C.3       1 NQB1353     0.0000 
     15 N29        -3.3920    0.5290   19.1270 N.am      1 NQB1353     0.0000 
     16 C30        -3.2740    1.4280   20.1820 C.2       1 NQB1353     0.0000 
     17 N3         -1.7190    3.1280   27.6270 N.4       1 NQB1353     0.0000 
     18 C4         -1.8140    3.9390   26.4010 C.3       1 NQB1353     0.0000 
     19 C5         -2.4380    3.2220   25.1550 C.3       1 NQB1353     0.0000 
     20 C17        -5.1120    1.6920   16.0560 C.ar      1 NQB1353     0.0000 
     21 C18        -4.9010    1.1660   17.3500 C.ar      1 NQB1353     0.0000 
     22 C23        -6.0520    0.7470   18.2100 C.3       1 NQB1353     0.0000 
     23 O24        -0.4790    1.7730   15.3020 O.2       1 NQB1353     0.0000 
     24 C13        -3.5770    1.0110   17.8070 C.ar      1 NQB1353     0.0000 
     25 C25        -3.0980    0.8210   21.5290 C.ar      1 NQB1353     0.0000 
     26 C26        -3.1110   -0.5930   21.5900 C.ar      1 NQB1353     0.0000 
     27 N27        -3.2850   -1.4150   20.4920 N.2       1 NQB1353     0.0000 
     28 C28        -3.4000   -0.8370   19.3480 C.2       1 NQB1353     0.0000 
     29 N5         -2.4970    1.7220   25.1670 N.3       1 NQB1353     0.0000 
     30 O29        -3.2420    2.6220   20.0660 O.2       1 NQB1353     0.0000 
     31 N32        -1.5610    3.1110   13.8350 N.am      1 NQB1353     0.0000 
     32 H          -2.6955    0.4882   26.9201 H         1 NQB1353     0.0000 
     33 H          -1.2445    0.1595   25.9575 H         1 NQB1353     0.0000 
     34 H          -0.0732    2.0199   26.8443 H         1 NQB1353     0.0000 
     35 H          -0.8845    1.2578   28.2230 H         1 NQB1353     0.0000 
     36 H          -2.9264    2.6193   22.6376 H         1 NQB1353     0.0000 
     37 H          -2.6129   -0.9246   24.8850 H         1 NQB1353     0.0000 
     38 H          -2.9432   -2.2368   22.8894 H         1 NQB1353     0.0000 
     39 H          -1.5348    1.2766   17.3446 H         1 NQB1353     0.0000 
     40 H          -4.2115    2.4266   14.3003 H         1 NQB1353     0.0000 
     41 H           0.0868    4.3163   13.0441 H         1 NQB1353     0.0000 
     42 H          -0.1217    3.9382   11.0394 H         1 NQB1353     0.0000 
     43 H          -1.3602    2.7077   11.3425 H         1 NQB1353     0.0000 
     44 H           0.0079    1.6137   12.4918 H         1 NQB1353     0.0000 
     45 H           1.2465    2.8442   12.1887 H         1 NQB1353     0.0000 
     46 H          -2.7688    2.8863   27.9296 H         1 NQB1353     0.0000 
     47 H          -0.8081    4.3035   26.0942 H         1 NQB1353     0.0000 
     48 H          -2.4194    4.8549   26.5839 H         1 NQB1353     0.0000 
     49 H          -1.8687    3.5689   24.2565 H         1 NQB1353     0.0000 
     50 H          -3.4675    3.6379   25.0175 H         1 NQB1353     0.0000 
     51 H          -6.0859    1.7963   15.7165 H         1 NQB1353     0.0000 
     52 H          -3.5155   -1.4424   18.4526 H         1 NQB1353     0.0000 
     53 H          -2.5215    3.5177   13.5710 H         1 NQB1353     0.0000 
     54 H          -0.1475    4.1286   28.5004 H         1 NQB1353     0.0000 
     55 H          -1.5804    4.7445   28.8925 H         1 NQB1353     0.0000 
     56 H          -1.0825    3.3727   29.5683 H         1 NQB1353     0.0000 
     57 H          -5.7460    0.3973   19.0955 H         1 NQB1353     0.0000 
     58 H          -6.6741    1.5079   18.3945 H         1 NQB1353     0.0000 
     59 H          -6.5928    0.0239   17.7803 H         1 NQB1353     0.0000 
@<TRIPOS>BOND
     1    2    1 1    
     2   29    1 1    
     3   32    1 1    
     4   33    1 1    
     5   17    2 1    
     6   34    2 1    
     7   35    2 1    
     8   17    3 1    
     9   54    3 1    
    10   55    3 1    
    11   56    3 1    
    12    5    4 ar   
    13   25    4 ar   
    14   36    4 1    
    15    6    5 ar   
    16   29    5 1    
    17    7    6 ar   
    18   37    6 1    
    19   26    7 ar   
    20   38    7 1    
    21    9    8 ar   
    22   24    8 ar   
    23   39    8 1    
    24   10    9 ar   
    25   11    9 1    
    26   20   10 ar   
    27   40   10 1    
    28   23   11 2    
    29   31   11 am   
    30   13   12 1    
    31   14   12 1    
    32   31   12 1    
    33   41   12 1    
    34   14   13 1    
    35   42   13 1    
    36   43   13 1    
    37   44   14 1    
    38   45   14 1    
    39   16   15 am   
    40   24   15 1    
    41   28   15 1    
    42   25   16 1    
    43   30   16 2    
    44   18   17 1    
    45   46   17 1    
    46   19   18 1    
    47   47   18 1    
    48   48   18 1    
    49   29   19 1    
    50   49   19 1    
    51   50   19 1    
    52   21   20 ar   
    53   51   20 1    
    54   22   21 1    
    55   24   21 ar   
    56   57   22 1    
    57   58   22 1    
    58   59   22 1    
    59   26   25 ar   
    60   27   26 1    
    61   28   27 2    
    62   52   28 1    
    63   53   31 1    
@<TRIPOS>SUBSTRUCTURE
     1 NQB1353     1 GROUP   
@<TRIPOS>SET

