#    Name: 4fhv_CTP_1_INTS_M
#    Modification time : Mon Mar 24 20:03:33 2014

@<TRIPOS>MOLECULE
4fhv_CTP_1_INTS_M
   47     0    15     0     0
SMALL
NO_CHARGES


@<TRIPOS>ATOM
      1 N         -21.8490    2.8840  -10.4760 N.am      2 SEC2        0.0000 
      2 N         -21.4990    3.5170   -9.1600 N.am     12 SEL2        0.0000 
      3 N         -22.1990    2.2510  -11.7920 N.am      7 SEP2        0.0000 
      4 O         -20.8165    8.7185  -10.4660 O.2       1 ALC1        0.0000 
      5 O         -19.8340    7.7770   -9.8160 O.2      11 ALL1        0.0000 
      6 O         -21.7990    9.6600  -11.1160 O.2       6 ALP1        0.0000 
      7 CA        -19.8870    1.5695   -6.0695 C.3       5 GLC5        0.0000 
      8 CA        -19.3570    2.7670   -7.5070 C.3      15 GLL5        0.0000 
      9 CA        -20.4170    0.3720   -4.6320 C.3      10 GLP5        0.0000 
     10 CA        -21.1285    1.6765   -7.3270 C.3       5 GLC5        0.0000 
     11 CA        -22.9000    0.5860   -7.1470 C.3      10 GLP5        0.0000 
     12 CA        -18.8935    1.2090   -5.5675 C.3       5 GLC5        0.0000 
     13 CA        -17.3700    2.0460   -6.5030 C.3      15 GLL5        0.0000 
     14 N         -13.6425    5.7870   -8.4070 N.am      2 SEC2        0.0000 
     15 N         -14.2270    5.7280   -7.0310 N.am     12 SEL2        0.0000 
     16 N         -13.0580    5.8460   -9.7830 N.am      7 SEP2        0.0000 
     17 NZ        -10.9290    1.4030   -6.9230 N.4       3 LYC4        0.0000 
     18 NZ        -11.9430    1.4520   -5.5050 N.4      13 LYL4        0.0000 
     19 NZ         -9.9150    1.3540   -8.3410 N.4       8 LYP4        0.0000 
     20 N         -11.7710    0.2880   -5.3170 N.am      2 SEC2        0.0000 
     21 N         -11.9430    1.4520   -5.5050 N.am     12 SEL2        0.0000 
     22 N         -11.5990   -0.8760   -5.1290 N.am      7 SEP2        0.0000 
     23 N         -10.9290    1.4030   -6.9230 N.am      2 SEC2        0.0000 
     24 N          -9.9150    1.3540   -8.3410 N.am      7 SEP2        0.0000 
     25 Zn        -13.6775    1.6880   -3.9470 Zn        4 ZIC7        0.0000 
     26 Zn        -13.0650    2.7640   -3.7420 Zn       14 ZIL7        0.0000 
     27 Zn        -14.2900    0.6120   -4.1520 Zn        9 ZIP7        0.0000 
     28 NZ         -9.6715    1.6410   -6.9350 N.4       3 LYC4        0.0000 
     29 NZ         -9.4280    1.9280   -5.5290 N.4      13 LYL4        0.0000 
     30 N          -9.6715    1.6410   -6.9350 N.am      2 SEC2        0.0000 
     31 N          -9.4280    1.9280   -5.5290 N.am     12 SEL2        0.0000 
     32 NZ         -7.6330    4.9840   -5.3190 N.4       3 LYC4        0.0000 
     33 NZ         -8.6290    4.2560   -5.3830 N.4      13 LYL4        0.0000 
     34 NZ         -6.6370    5.7120   -5.2550 N.4       8 LYP4        0.0000 
     35 N          -7.6330    4.9840   -5.3190 N.am      2 SEC2        0.0000 
     36 N          -8.6290    4.2560   -5.3830 N.am     12 SEL2        0.0000 
     37 N          -6.6370    5.7120   -5.2550 N.am      7 SEP2        0.0000 
     38 N          -9.1880    5.2375   -6.1065 N.am      2 SEC2        0.0000 
     39 N          -9.7470    6.2190   -6.8300 N.am      7 SEP2        0.0000 
     40 CA        -17.0922    5.4665   -9.0947 C.3       5 GLC5        0.0000 
     41 CA        -18.8640    5.1840   -7.5430 C.3      15 GLL5        0.0000 
     42 CA        -15.3760    5.1880  -10.2440 C.3      10 GLP5        0.0000 
     43 CA        -17.0742    2.6947  -10.0140 C.3       5 GLC5        0.0000 
     44 CA        -17.1470    2.0030   -8.0130 C.3      15 GLL5        0.0000 
     45 CA        -16.3000    3.3590  -11.7300 C.3      10 GLP5        0.0000 
     46 CA        -16.5559    0.3004   -6.3952 C.3       5 GLC5        0.0000 
     47 CA        -16.3660   -1.7580   -6.3060 C.3      10 GLP5        0.0000 
@<TRIPOS>BOND
@<TRIPOS>SUBSTRUCTURE
     1 ALC1        4 GROUP        1 X    ALC  0     ROOT ALC X 1
     2 SEC2        1 GROUP        1 X    SEC  0     **** SEC X 2
     3 LYC4       17 GROUP        1 X    LYC  0     **** LYC X 4
     4 ZIC7       25 GROUP        1 X    ZIC  0     **** ZIC X 5
     5 GLC5        7 GROUP        1 X    GLC  0     **** GLC X 6
     6 ALP1        6 GROUP        1 Y    ALP  0     ROOT ALP Y 8
     7 SEP2        3 GROUP        1 Y    SEP  0     **** SEP Y 9
     8 LYP4       19 GROUP        1 Y    LYP  0     **** LYP Y 11
     9 ZIP7       27 GROUP        1 Y    ZIP  0     **** ZIP Y 12
    10 GLP5        9 GROUP        1 Y    GLP  0     **** GLP Y 13
    11 ALL1        5 GROUP        1 Z    ALL  0     ROOT ALL Z 15
    12 SEL2        2 GROUP        1 Z    SEL  0     **** SEL Z 16
    13 LYL4       18 GROUP        1 Z    LYL  0     **** LYL Z 18
    14 ZIL7       26 GROUP        1 Z    ZIL  0     **** ZIL Z 19
    15 GLL5        8 GROUP        1 Z    GLL  0     **** GLL Z 20
@<TRIPOS>SET

