#    Name: 4fhv_CTP_1_ligand
#    Modification time : Mon Mar 24 20:03:33 2014

@<TRIPOS>MOLECULE
4fhv_CTP_1_ligand
   41    42     1     0     0
SMALL
NO_CHARGES


@<TRIPOS>ATOM
      1 N1        -19.6660    4.1470   -7.9480 N.am      1 CTP401      0.0000 
      2 C2        -20.6380    4.3730   -8.9230 C.2       1 CTP401      0.0000 
      3 N3        -20.6340    5.5660   -9.6370 N.2       1 CTP401      0.0000 
      4 C4        -19.7490    6.5670   -9.2810 C.2       1 CTP401      0.0000 
      5 C5        -18.7530    6.3060   -8.3480 C.2       1 CTP401      0.0000 
      6 C6        -18.8640    5.1840   -7.5430 C.2       1 CTP401      0.0000 
      7 O2        -21.4990    3.5170   -9.1600 O.2       1 CTP401      0.0000 
      8 N4        -19.8340    7.7770   -9.8160 N.pl3     1 CTP401      0.0000 
      9 C1'       -19.3570    2.7670   -7.5070 C.3       1 CTP401      0.0000 
     10 C2'       -18.5500    2.0580   -8.5830 C.3       1 CTP401      0.0000 
     11 O2'       -19.0950    0.7720   -8.7680 O.3       1 CTP401      0.0000 
     12 C3'       -17.1470    2.0030   -8.0130 C.3       1 CTP401      0.0000 
     13 C4'       -17.3700    2.0460   -6.5030 C.3       1 CTP401      0.0000 
     14 O4'       -18.5770    2.7680   -6.3220 O.3       1 CTP401      0.0000 
     15 O3'       -16.4630    0.8430   -8.4210 O.3       1 CTP401      0.0000 
     16 C5'       -16.2330    2.6930   -5.7110 C.3       1 CTP401      0.0000 
     17 O5'       -15.8900    3.9480   -6.2530 O.3       1 CTP401      0.0000 
     18 PA        -14.4350    4.6090   -6.0330 P.3       1 CTP401      0.0000 
     19 O1A       -14.2270    5.7280   -7.0310 O.co2     1 CTP401      0.0000 
     20 O2A       -14.3430    5.1280   -4.6170 O.co2     1 CTP401      0.0000 
     21 O3A       -13.3700    3.4070   -6.2510 O.3       1 CTP401      0.0000 
     22 PB        -12.3890    2.8270   -5.0960 P.3       1 CTP401      0.0000 
     23 O1B       -11.9430    1.4520   -5.5050 O.co2     1 CTP401      0.0000 
     24 O2B       -13.0650    2.7640   -3.7420 O.co2     1 CTP401      0.0000 
     25 O3B       -11.1170    3.8140   -5.0710 O.3       1 CTP401      0.0000 
     26 PG         -9.6220    3.2570   -4.8310 P.3       1 CTP401      0.0000 
     27 O1G        -9.4280    1.9280   -5.5290 O.co2     1 CTP401      0.0000 
     28 O2G        -9.3680    3.0980   -3.3480 O.co2     1 CTP401      0.0000 
     29 O3G        -8.6290    4.2560   -5.3830 O.co2     1 CTP401      0.0000 
     30 H         -17.9510    6.9337   -8.2584 H         1 CTP401      0.0000 
     31 H         -18.3502    5.1349   -6.6557 H         1 CTP401      0.0000 
     32 H         -20.7424    8.0587  -10.1249 H         1 CTP401      0.0000 
     33 H         -18.9820    8.2985   -9.8623 H         1 CTP401      0.0000 
     34 H         -20.2725    2.2145   -7.3713 H         1 CTP401      0.0000 
     35 H         -18.5524    2.6607   -9.4479 H         1 CTP401      0.0000 
     36 H         -16.6502    2.9159   -8.2888 H         1 CTP401      0.0000 
     37 H         -17.4979    1.0219   -6.1611 H         1 CTP401      0.0000 
     38 H         -15.3829    1.9892   -5.7232 H         1 CTP401      0.0000 
     39 H         -16.5671    2.7712   -4.6620 H         1 CTP401      0.0000 
     40 H         -18.3147    0.1494   -8.7090 H         1 CTP401      0.0000 
     41 H         -15.9417    1.1204   -9.2280 H         1 CTP401      0.0000 
@<TRIPOS>BOND
     1    2    1 am   
     2    6    1 1    
     3    9    1 1    
     4    3    2 1    
     5    7    2 2    
     6    4    3 2    
     7    5    4 1    
     8    8    4 1    
     9    6    5 2    
    10   30    5 1    
    11   31    6 1    
    12   32    8 1    
    13   33    8 1    
    14   10    9 1    
    15   14    9 1    
    16   34    9 1    
    17   11   10 1    
    18   12   10 1    
    19   35   10 1    
    20   40   11 1    
    21   13   12 1    
    22   15   12 1    
    23   36   12 1    
    24   14   13 1    
    25   16   13 1    
    26   37   13 1    
    27   41   15 1    
    28   17   16 1    
    29   38   16 1    
    30   39   16 1    
    31   18   17 1    
    32   19   18 ar   
    33   20   18 ar   
    34   21   18 1    
    35   22   21 1    
    36   23   22 ar   
    37   24   22 ar   
    38   25   22 1    
    39   26   25 1    
    40   27   26 ar   
    41   28   26 ar   
    42   29   26 ar   
@<TRIPOS>SUBSTRUCTURE
     1 CTP401      1 GROUP   
@<TRIPOS>SET

