#    Name: 3zrl_ZRL_1_INTS_M
#    Modification time : Tue Mar 25 03:51:40 2014

@<TRIPOS>MOLECULE
3zrl_ZRL_1_INTS_M
   43     0     6     0     0
SMALL
NO_CHARGES


@<TRIPOS>ATOM
      1 CA        100.5695   25.4325  -11.5805 C.3       2 GLC5        0.0000 
      2 CA        102.1890   26.8110  -11.8400 C.3       6 GLL5        0.0000 
      3 CA         98.9500   24.0540  -11.3210 C.3       4 GLP5        0.0000 
      4 CA        104.8330   26.6565  -14.8650 C.3       2 GLC5        0.0000 
      5 CA        104.2630   27.3180  -12.8850 C.3       6 GLL5        0.0000 
      6 CA        105.4030   25.9950  -16.8450 C.3       4 GLP5        0.0000 
      7 CA        103.5540   25.4330   -9.0180 C.3       2 GLC5        0.0000 
      8 CA        103.4450   24.3190  -10.7620 C.3       6 GLL5        0.0000 
      9 CA        103.6630   26.5470   -7.2740 C.3       4 GLP5        0.0000 
     10 CA        100.0950   28.1575  -10.9715 C.3       2 GLC5        0.0000 
     11 CA        101.7160   28.0170  -12.3190 C.3       6 GLL5        0.0000 
     12 CA         98.4740   28.2980   -9.6240 C.3       4 GLP5        0.0000 
     13 CA        100.9740   29.3190  -13.7750 C.3       2 GLC5        0.0000 
     14 CA        100.2320   30.6210  -15.2310 C.3       4 GLP5        0.0000 
     15 CA        101.9625   29.5590  -14.2735 C.3       2 GLC5        0.0000 
     16 CA        103.6930   28.4970  -13.3160 C.3       6 GLL5        0.0000 
     17 N         102.0975   30.2780  -13.3655 N.am      1 SEC2        0.0000 
     18 N         102.4330   28.8760  -13.0550 N.am      5 SEL2        0.0000 
     19 N         101.7620   31.6800  -13.6760 N.am      3 SEP2        0.0000 
     20 N         102.3505   20.5640   -8.7370 N.am      1 SEC2        0.0000 
     21 N         102.9370   22.0370   -9.0020 N.am      5 SEL2        0.0000 
     22 N         101.7640   19.0910   -8.4720 N.am      3 SEP2        0.0000 
     23 CA        108.5150   22.0130  -13.8715 C.3       2 GLC5        0.0000 
     24 CA        108.0750   22.5920  -11.9870 C.3       6 GLL5        0.0000 
     25 CA        108.9550   21.4340  -15.7560 C.3       4 GLP5        0.0000 
     26 CA        107.4790   20.5905  -12.1305 C.3       2 GLC5        0.0000 
     27 CA        106.8830   18.5890  -12.2740 C.3       4 GLP5        0.0000 
     28 CA        106.2630   21.7850  -12.8975 C.3       2 GLC5        0.0000 
     29 CA        104.4510   20.9780  -13.8080 C.3       4 GLP5        0.0000 
     30 CA        104.4545   28.7553  -11.1872 C.3       2 GLC5        0.0000 
     31 CA        104.9310   29.6030   -9.2740 C.3       4 GLP5        0.0000 
     32 CA        102.5824   28.2327  -10.6516 C.3       2 GLC5        0.0000 
     33 CA        102.4440   29.5320   -9.1960 C.3       4 GLP5        0.0000 
     34 CA        104.6658   22.1120  -12.2980 C.3       2 GLC5        0.0000 
     35 CA        104.2780   23.2150  -10.4620 C.3       6 GLL5        0.0000 
     36 CA        104.1605   23.8932  -13.5107 C.3       2 GLC5        0.0000 
     37 CA        105.5870   24.6720  -12.1060 C.3       6 GLL5        0.0000 
     38 CA        103.5170   22.8450  -15.1480 C.3       4 GLP5        0.0000 
     39 CA        105.4125   21.4025  -12.2055 C.3       2 GLC5        0.0000 
     40 CA        106.5040   22.3390  -11.0100 C.3       6 GLL5        0.0000 
     41 CA        102.1992   26.6858  -14.0404 C.3       2 GLC5        0.0000 
     42 CA        103.4890   26.4530  -12.1350 C.3       6 GLL5        0.0000 
     43 CA        101.0490   25.9510  -15.4770 C.3       4 GLP5        0.0000 
@<TRIPOS>BOND
@<TRIPOS>SUBSTRUCTURE
     1 SEC2       17 GROUP        1 X    SEC  0     ROOT SEC X 2
     2 GLC5        1 GROUP        1 X    GLC  0     **** GLC X 6
     3 SEP2       19 GROUP        1 Y    SEP  0     ROOT SEP Y 9
     4 GLP5        3 GROUP        1 Y    GLP  0     **** GLP Y 13
     5 SEL2       18 GROUP        1 Z    SEL  0     ROOT SEL Z 16
     6 GLL5        2 GROUP        1 Z    GLL  0     **** GLL Z 20
@<TRIPOS>SET

