#    Name: 3zrl_ZRL_1_ligand
#    Modification time : Tue Mar 25 03:51:40 2014

@<TRIPOS>MOLECULE
3zrl_ZRL_1_ligand
   24    26     1     0     0
SMALL
NO_CHARGES


@<TRIPOS>ATOM
      1 C13       102.1890   26.8110  -11.8400 C.ar      1 ZRL1390     0.0000 
      2 C17       104.2630   27.3180  -12.8850 C.ar      1 ZRL1390     0.0000 
      3 C8        103.4450   24.3190  -10.7620 C.2       1 ZRL1390     0.0000 
      4 C14       101.7160   28.0170  -12.3190 C.ar      1 ZRL1390     0.0000 
      5 C16       103.6930   28.4970  -13.3160 C.ar      1 ZRL1390     0.0000 
      6 C12       103.4890   26.4530  -12.1350 C.ar      1 ZRL1390     0.0000 
      7 C7        104.2780   23.2150  -10.4620 C.2       1 ZRL1390     0.0000 
      8 C9        104.0210   25.2110  -11.6410 C.2       1 ZRL1390     0.0000 
      9 C11       105.4830   23.2770  -11.1140 C.2       1 ZRL1390     0.0000 
     10 C3        106.2440   21.3150  -10.1960 C.2       1 ZRL1390     0.0000 
     11 C5        104.0030   22.1200   -9.5910 C.2       1 ZRL1390     0.0000 
     12 C2        106.5040   22.3390  -11.0100 C.2       1 ZRL1390     0.0000 
     13 N15       102.4330   28.8760  -13.0550 N.ar      1 ZRL1390     0.0000 
     14 N4        105.0470   21.2100   -9.5170 N.am      1 ZRL1390     0.0000 
     15 O6        102.9370   22.0370   -9.0020 O.2       1 ZRL1390     0.0000 
     16 S10       105.5870   24.6720  -12.1060 S.3       1 ZRL1390     0.0000 
     17 BR1       108.0750   22.5920  -11.9870 Br        1 ZRL1390     0.0000 
     18 H         101.5921   26.2002  -11.2820 H         1 ZRL1390     0.0000 
     19 H         105.2301   27.0888  -13.1128 H         1 ZRL1390     0.0000 
     20 H         102.5516   24.4216  -10.3740 H         1 ZRL1390     0.0000 
     21 H         100.7042   28.2671  -12.0760 H         1 ZRL1390     0.0000 
     22 H         104.3128   29.1467  -13.9000 H         1 ZRL1390     0.0000 
     23 H         106.9586   20.5555  -10.0540 H         1 ZRL1390     0.0000 
     24 H         104.9113   20.3616   -8.8836 H         1 ZRL1390     0.0000 
@<TRIPOS>BOND
     1    4    1 ar   
     2    6    1 ar   
     3   18    1 1    
     4    5    2 ar   
     5    6    2 ar   
     6   19    2 1    
     7    7    3 1    
     8    8    3 2    
     9   20    3 1    
    10   13    4 ar   
    11   21    4 1    
    12   13    5 ar   
    13   22    5 1    
    14    8    6 1    
    15    9    7 2    
    16   11    7 1    
    17   16    8 1    
    18   12    9 1    
    19   16    9 1    
    20   12   10 2    
    21   14   10 1    
    22   23   10 1    
    23   14   11 am   
    24   15   11 2    
    25   17   12 1    
    26   24   14 1    
@<TRIPOS>SUBSTRUCTURE
     1 ZRL1390     1 GROUP   
@<TRIPOS>SET

