#    Name: 1yye_196_1_INTS_M
#    Modification time : Tue Mar 25 11:22:29 2014

@<TRIPOS>MOLECULE
1yye_196_1_INTS_M
   71     0     9     0     0
SMALL
NO_CHARGES


@<TRIPOS>ATOM
      1 CA         29.2725   34.2085   42.0290 C.3       3 GLC5        0.0000 
      2 CA         28.6880   36.0150   41.7110 C.3       9 GLL5        0.0000 
      3 CA         29.8570   32.4020   42.3470 C.3       6 GLP5        0.0000 
      4 CA         27.6960   36.6390   44.2630 C.3       3 GLC5        0.0000 
      5 CA         27.5000   35.9160   42.5040 C.3       9 GLL5        0.0000 
      6 CA         27.8920   37.3620   46.0220 C.3       6 GLP5        0.0000 
      7 CA         28.3225   34.0825   43.0905 C.3       3 GLC5        0.0000 
      8 CA         29.1450   32.2490   43.6770 C.3       6 GLP5        0.0000 
      9 CA         26.8585   33.9960   41.5375 C.3       3 GLC5        0.0000 
     10 CA         26.2170   32.0760   40.5710 C.3       6 GLP5        0.0000 
     11 N          24.0190   37.0385   43.4930 N.am      2 SEC2        0.0000 
     12 N          25.0840   36.1150   42.6680 N.am      8 SEL2        0.0000 
     13 N          22.9540   37.9620   44.3180 N.am      5 SEP2        0.0000 
     14 O          24.2495   35.2430   43.9110 O.2       1 ALC1        0.0000 
     15 O          25.0840   36.1150   42.6680 O.2       7 ALL1        0.0000 
     16 O          23.4150   34.3710   45.1540 O.2       4 ALP1        0.0000 
     17 O          25.3075   35.4225   43.6865 O.2       1 ALC1        0.0000 
     18 O          25.5310   34.7300   44.7050 O.2       4 ALP1        0.0000 
     19 CA         23.6885   36.8405   38.9585 C.3       3 GLC5        0.0000 
     20 CA         24.9920   36.8690   39.9840 C.3       9 GLL5        0.0000 
     21 CA         22.3850   36.8120   37.9330 C.3       6 GLP5        0.0000 
     22 CA         23.8465   38.1695   40.4180 C.3       3 GLC5        0.0000 
     23 CA         22.7010   39.4700   40.8520 C.3       6 GLP5        0.0000 
     24 CA         26.4395   38.4620   40.5595 C.3       3 GLC5        0.0000 
     25 CA         27.8870   40.0550   41.1350 C.3       6 GLP5        0.0000 
     26 CA         30.4915   34.1185   41.0855 C.3       3 GLC5        0.0000 
     27 CA         31.1260   35.8350   39.8240 C.3       9 GLL5        0.0000 
     28 CA         32.5745   38.3375   39.3040 C.3       3 GLC5        0.0000 
     29 CA         32.2740   36.7940   37.8050 C.3       9 GLL5        0.0000 
     30 CA         32.8750   39.8810   40.8030 C.3       6 GLP5        0.0000 
     31 CA         36.7640   36.1350   36.7690 C.3       3 GLC5        0.0000 
     32 CA         34.6630   36.1980   37.4270 C.3       9 GLL5        0.0000 
     33 CA         38.8650   36.0720   36.1110 C.3       6 GLP5        0.0000 
     34 CA         33.6900   38.9900   36.6285 C.3       3 GLC5        0.0000 
     35 CA         33.4820   36.8830   37.0130 C.3       9 GLL5        0.0000 
     36 CA         33.8980   41.0970   36.2440 C.3       6 GLP5        0.0000 
     37 CA         34.3875   37.5485   35.2115 C.3       3 GLC5        0.0000 
     38 CA         35.2930   38.2140   33.4100 C.3       6 GLP5        0.0000 
     39 CA         32.3960   39.6975   36.2565 C.3       3 GLC5        0.0000 
     40 CA         30.8940   38.2980   36.2690 C.3       9 GLL5        0.0000 
     41 CA         30.0015   39.6160   34.9505 C.3       3 GLC5        0.0000 
     42 CA         29.1090   40.9340   33.6320 C.3       6 GLP5        0.0000 
     43 CA         30.4190   37.2935   34.6170 C.3       3 GLC5        0.0000 
     44 CA         29.9440   36.2890   32.9650 C.3       6 GLP5        0.0000 
     45 N          35.8745   37.1605   35.6445 N.am      2 SEC2        0.0000 
     46 N          35.8180   36.3020   36.6720 N.am      8 SEL2        0.0000 
     47 N          35.9310   38.0190   34.6170 N.am      5 SEP2        0.0000 
     48 CA         25.6365   36.7650   38.3380 C.3       3 GLC5        0.0000 
     49 CA         26.1850   36.5960   40.5190 C.3       9 GLL5        0.0000 
     50 CA         24.5020   36.8850   36.5520 C.3       6 GLP5        0.0000 
     51 CA         27.7493   35.2018   38.4165 C.3       3 GLC5        0.0000 
     52 CA         27.3570   36.6940   39.7290 C.3       9 GLL5        0.0000 
     53 CA         27.5010   33.8560   36.8120 C.3       6 GLP5        0.0000 
     54 CA         24.8881   35.0129   40.3106 C.3       3 GLC5        0.0000 
     55 CA         24.1750   33.3890   40.0250 C.3       6 GLP5        0.0000 
     56 CA         31.7293   37.0433   40.9952 C.3       3 GLC5        0.0000 
     57 CA         29.9010   36.5060   39.4650 C.3       9 GLL5        0.0000 
     58 CA         32.9450   37.9160   42.3460 C.3       6 GLP5        0.0000 
     59 CA         29.5590   35.1367   37.6497 C.3       3 GLC5        0.0000 
     60 CA         29.2210   33.3630   36.4310 C.3       6 GLP5        0.0000 
     61 CA         32.9245   36.7572   40.7858 C.3       3 GLC5        0.0000 
     62 CA         32.3060   35.9350   39.0280 C.3       9 GLL5        0.0000 
     63 CA         35.0240   34.7313   40.3635 C.3       3 GLC5        0.0000 
     64 CA         33.5020   35.2620   39.4230 C.3       9 GLL5        0.0000 
     65 CA         35.9600   34.1360   41.7090 C.3       6 GLP5        0.0000 
     66 CA         34.5605   33.6807   38.3970 C.3       3 GLC5        0.0000 
     67 CA         35.0330   32.0350   37.7760 C.3       6 GLP5        0.0000 
     68 CA         34.5798   34.9737   36.1400 C.3       3 GLC5        0.0000 
     69 CA         35.0870   33.4070   35.0600 C.3       6 GLP5        0.0000 
     70 CA         35.1961   37.5719   38.1298 C.3       3 GLC5        0.0000 
     71 CA         36.3170   38.8050   38.7430 C.3       6 GLP5        0.0000 
@<TRIPOS>BOND
@<TRIPOS>SUBSTRUCTURE
     1 ALC1       14 GROUP        1 X    ALC  0     ROOT ALC X 1
     2 SEC2       11 GROUP        1 X    SEC  0     **** SEC X 2
     3 GLC5        1 GROUP        1 X    GLC  0     **** GLC X 6
     4 ALP1       16 GROUP        1 Y    ALP  0     ROOT ALP Y 8
     5 SEP2       13 GROUP        1 Y    SEP  0     **** SEP Y 9
     6 GLP5        3 GROUP        1 Y    GLP  0     **** GLP Y 13
     7 ALL1       15 GROUP        1 Z    ALL  0     ROOT ALL Z 15
     8 SEL2       12 GROUP        1 Z    SEL  0     **** SEL Z 16
     9 GLL5        2 GROUP        1 Z    GLL  0     **** GLL Z 20
@<TRIPOS>SET

