#    Name: 1yye_196_1_ligand
#    Modification time : Tue Mar 25 11:22:29 2014

@<TRIPOS>MOLECULE
1yye_196_1_ligand
   31    33     1     0     0
SMALL
NO_CHARGES


@<TRIPOS>ATOM
      1 C1         26.2360   36.2130   41.8980 C.ar      1 196531      0.0000 
      2 C2         26.1850   36.5960   40.5190 C.ar      1 196531      0.0000 
      3 C3         27.3570   36.6940   39.7290 C.ar      1 196531      0.0000 
      4 C4         28.6380   36.4010   40.3130 C.ar      1 196531      0.0000 
      5 C5         28.6880   36.0150   41.7110 C.ar      1 196531      0.0000 
      6 C6         27.5000   35.9160   42.5040 C.ar      1 196531      0.0000 
      7 O10        25.0840   36.1150   42.6680 O.3       1 196531      0.0000 
      8 F11        24.9920   36.8690   39.9840 F         1 196531      0.0000 
      9 C12        29.9010   36.5060   39.4650 C.ar      1 196531      0.0000 
     10 C13        31.1260   35.8350   39.8240 C.ar      1 196531      0.0000 
     11 C14        32.3060   35.9350   39.0280 C.ar      1 196531      0.0000 
     12 C15        32.2740   36.7940   37.8050 C.ar      1 196531      0.0000 
     13 C16        31.0360   37.4590   37.4330 C.ar      1 196531      0.0000 
     14 C17        29.8930   37.3150   38.2720 C.ar      1 196531      0.0000 
     15 C20        33.5020   35.2620   39.4230 C.ar      1 196531      0.0000 
     16 C21        34.6740   35.3910   38.6130 C.ar      1 196531      0.0000 
     17 C22        34.6630   36.1980   37.4270 C.ar      1 196531      0.0000 
     18 C23        33.4820   36.8830   37.0130 C.ar      1 196531      0.0000 
     19 C27        30.8940   38.2980   36.2690 C.1       1 196531      0.0000 
     20 N28        30.7900   38.9480   35.3170 N.1       1 196531      0.0000 
     21 O29        35.8180   36.3020   36.6720 O.3       1 196531      0.0000 
     22 H          27.3027   36.9690   38.7542 H         1 196531      0.0000 
     23 H          29.5973   35.8105   42.1322 H         1 196531      0.0000 
     24 H          27.5514   35.6423   43.4712 H         1 196531      0.0000 
     25 H          31.1431   35.2680   40.6821 H         1 196531      0.0000 
     26 H          29.0201   37.8077   38.0208 H         1 196531      0.0000 
     27 H          33.5213   34.7023   40.2626 H         1 196531      0.0000 
     28 H          35.5295   34.9036   38.8807 H         1 196531      0.0000 
     29 H          33.4798   37.4360   36.1629 H         1 196531      0.0000 
     30 H          25.1636   35.2383   43.1423 H         1 196531      0.0000 
     31 H          36.5565   36.3930   37.3401 H         1 196531      0.0000 
@<TRIPOS>BOND
     1    2    1 ar   
     2    6    1 ar   
     3    7    1 1    
     4    3    2 ar   
     5    8    2 1    
     6    4    3 ar   
     7   22    3 1    
     8    5    4 ar   
     9    9    4 1    
    10    6    5 ar   
    11   23    5 1    
    12   24    6 1    
    13   30    7 1    
    14   10    9 ar   
    15   14    9 ar   
    16   11   10 ar   
    17   25   10 1    
    18   12   11 ar   
    19   15   11 ar   
    20   13   12 ar   
    21   18   12 ar   
    22   14   13 ar   
    23   19   13 1    
    24   26   14 1    
    25   16   15 ar   
    26   27   15 1    
    27   17   16 ar   
    28   28   16 1    
    29   18   17 ar   
    30   21   17 1    
    31   29   18 1    
    32   20   19 3    
    33   31   21 1    
@<TRIPOS>SUBSTRUCTURE
     1 196531      1 GROUP   
@<TRIPOS>SET

