#    Name: 3H4V_8_CAVITY_N1_ALL.mol2
#    Modification time : Mon Mar 10 21:24:44 2014

@<TRIPOS>MOLECULE
3H4V_8_CAVITY_N1_ALL.mol2
   91     0     6     0     0
SMALL
NO_CHARGES


@<TRIPOS>ATOM
      1 CA         -0.5644   -5.8181  119.9884 C.3       5 GLY6        0.0000 
      2 O           2.2382   -2.5245  123.5658 O.2       2 ALA2        0.0000 
      3 DU          2.8788   -3.1037  122.3394 H         6 CUB7        0.0000 
      4 CZ          3.5194   -3.6830  121.1130 C.ar      4 PHE5        0.0000 
      5 O           1.1442   -3.5469  123.4773 O.2       2 ALA2        0.0000 
      6 DU          1.7848   -4.1262  122.2509 H         6 CUB7        0.0000 
      7 CZ          2.4254   -4.7054  121.0245 C.ar      4 PHE5        0.0000 
      8 NZ          0.0502   -4.5693  123.3888 N.2       3 LYS4        0.0000 
      9 NZ          0.6908   -5.1486  122.1624 N.2       3 LYS4        0.0000 
     10 CZ          1.3314   -5.7279  120.9360 C.ar      4 PHE5        0.0000 
     11 N           1.9720   -6.3072  119.7096 N.2       2 ALA2        0.0000 
     12 NZ          0.2374   -6.7503  120.8475 N.2       3 LYS4        0.0000 
     13 O           3.4331    3.4662  115.8565 O.2       2 ALA2        0.0000 
     14 CA          1.6985    3.0231  116.9944 C.3       5 GLY6        0.0000 
     15 O           2.3391    2.4438  115.7680 O.2       2 ALA2        0.0000 
     16 NZ          0.6045    2.0006  116.9059 N.2       3 LYS4        0.0000 
     17 CA          1.2451    1.4213  115.6795 C.3       5 GLY6        0.0000 
     18 NZ         -0.4895    0.9782  116.8174 N.2       3 LYS4        0.0000 
     19 CZ          0.1511    0.3989  115.5910 C.ar      4 PHE5        0.0000 
     20 NZ          0.4433    2.3536  114.8203 N.2       3 LYS4        0.0000 
     21 CA          4.1339   -2.4343  124.5134 C.3       5 GLY6        0.0000 
     22 N           4.7745   -3.0135  123.2870 N.2       2 ALA2        0.0000 
     23 CA          3.0399   -3.4567  124.4249 C.3       5 GLY6        0.0000 
     24 CA          3.6805   -4.0360  123.1985 C.3       5 GLY6        0.0000 
     25 DU          2.5865   -5.0584  123.1100 H         6 CUB7        0.0000 
     26 NZ          0.8520   -5.5016  124.2479 N.2       3 LYS4        0.0000 
     27 DU          1.4926   -6.0808  123.0215 H         6 CUB7        0.0000 
     28 NZ          0.3986   -7.1033  122.9330 N.2       3 LYS4        0.0000 
     29 N           6.7712    2.0449  116.4368 N.2       2 ALA2        0.0000 
     30 N           4.3960    2.1810  118.8011 N.2       2 ALA2        0.0000 
     31 N           5.0366    1.6017  117.5747 N.2       2 ALA2        0.0000 
     32 CA          5.6772    1.0225  116.3483 C.3       5 GLY6        0.0000 
     33 CA          2.6614    1.7379  119.9390 C.3       5 GLY6        0.0000 
     34 CA          3.3020    1.1586  118.7126 C.3       5 GLY6        0.0000 
     35 CA          3.9426    0.5793  117.4862 C.3       5 GLY6        0.0000 
     36 N           0.9268    1.2947  121.0769 N.2       2 ALA2        0.0000 
     37 N           1.5674    0.7154  119.8505 N.2       2 ALA2        0.0000 
     38 CZ          2.2080    0.1361  118.6241 C.ar      4 PHE5        0.0000 
     39 CZ          0.4735   -0.3070  119.7620 C.ar      4 PHE5        0.0000 
     40 CZ         -0.6205   -1.3294  119.6735 C.ar      4 PHE5        0.0000 
     41 NZ         -2.3551   -1.7726  120.8114 N.2       3 LYS4        0.0000 
     42 CZ         -1.7145   -2.3519  119.5850 C.ar      4 PHE5        0.0000 
     43 CA          3.5942    3.1132  117.9420 C.3       5 GLY6        0.0000 
     44 CA          4.2348    2.5340  116.7156 C.3       5 GLY6        0.0000 
     45 CA          2.5003    2.0908  117.8535 C.3       5 GLY6        0.0000 
     46 CA          3.1409    1.5115  116.6271 C.3       5 GLY6        0.0000 
     47 N           0.7657    1.6477  118.9914 N.2       2 ALA2        0.0000 
     48 CZ          1.4063    1.0684  117.7650 C.ar      4 PHE5        0.0000 
     49 CZ          2.0469    0.4891  116.5386 C.ar      4 PHE5        0.0000 
     50 CZ         -0.3283    0.6252  118.9029 C.ar      4 PHE5        0.0000 
     51 CZ          0.3123    0.0459  117.6765 C.ar      4 PHE5        0.0000 
     52 CZ         -1.4223   -0.3972  118.8144 C.ar      4 PHE5        0.0000 
     53 CZ         -0.7817   -0.9765  117.5880 C.ar      4 PHE5        0.0000 
     54 NZ          5.9995    0.3165  120.5194 N.2       3 LYS4        0.0000 
     55 NZ          6.6401   -0.2627  119.2930 N.2       3 LYS4        0.0000 
     56 CA          4.2650   -0.1266  121.6573 C.3       5 GLY6        0.0000 
     57 NZ          4.9056   -0.7059  120.4309 N.2       3 LYS4        0.0000 
     58 NZ          5.5462   -1.2852  119.2045 N.2       3 LYS4        0.0000 
     59 OG          6.1868   -1.8645  117.9781 O.2       1 SER1        0.0000 
     60 CA          2.5304   -0.5698  122.7952 C.3       5 GLY6        0.0000 
     61 DU          3.1710   -1.1491  121.5688 H         6 CUB7        0.0000 
     62 CZ          3.8116   -1.7283  120.3424 C.ar      4 PHE5        0.0000 
     63 CZ          4.4522   -2.3076  119.1160 C.ar      4 PHE5        0.0000 
     64 OG          5.0928   -2.8869  117.8896 O.2       1 SER1        0.0000 
     65 O           1.4364   -1.5922  122.7067 O.2       2 ALA2        0.0000 
     66 CZ          2.0770   -2.1715  121.4803 C.ar      4 PHE5        0.0000 
     67 O           0.3424   -2.6146  122.6182 O.2       2 ALA2        0.0000 
     68 CZ          0.9830   -3.1939  121.3918 C.ar      4 PHE5        0.0000 
     69 NZ         -0.7516   -3.6371  122.5297 N.2       3 LYS4        0.0000 
     70 NZ         -0.1110   -4.2164  121.3033 N.2       3 LYS4        0.0000 
     71 N           7.5730    1.1126  117.2959 N.2       2 ALA2        0.0000 
     72 CA          5.1978    1.2488  119.6602 C.3       5 GLY6        0.0000 
     73 N           5.8384    0.6695  118.4338 N.2       2 ALA2        0.0000 
     74 N           6.4790    0.0902  117.2074 N.2       2 ALA2        0.0000 
     75 CA          3.4632    0.8056  120.7982 C.3       5 GLY6        0.0000 
     76 CA          4.1038    0.2263  119.5717 C.3       5 GLY6        0.0000 
     77 CZ          4.7444   -0.3529  118.3453 C.ar      4 PHE5        0.0000 
     78 CA          5.3850   -0.9322  117.1189 C.3       5 GLY6        0.0000 
     79 CA          1.7286    0.3625  121.9361 C.3       5 GLY6        0.0000 
     80 CA          2.3692   -0.2168  120.7097 C.3       5 GLY6        0.0000 
     81 CZ          3.0098   -0.7961  119.4832 C.ar      4 PHE5        0.0000 
     82 O           0.6346   -0.6600  121.8476 O.2       2 ALA2        0.0000 
     83 CZ          1.2752   -1.2393  120.6212 C.ar      4 PHE5        0.0000 
     84 O          -0.4594   -1.6824  121.7591 O.2       2 ALA2        0.0000 
     85 CZ          0.1812   -2.2617  120.5327 C.ar      4 PHE5        0.0000 
     86 DU          1.6537   -6.4338  125.1071 H         6 CUB7        0.0000 
     87 NZ          5.0667   -1.0589  122.5164 N.2       3 LYS4        0.0000 
     88 O           3.3321   -1.5020  123.6543 O.2       2 ALA2        0.0000 
     89 DU          3.9727   -2.0813  122.4279 H         6 CUB7        0.0000 
     90 NZ          4.6133   -2.6606  121.2015 N.2       3 LYS4        0.0000 
     91 CZ         -0.9127   -3.2841  120.4442 C.ar      4 PHE5        0.0000 
@<TRIPOS>BOND
@<TRIPOS>SUBSTRUCTURE
     1 SER1       59 GROUP   
     2 ALA2        2 GROUP   
     3 LYS4        8 GROUP   
     4 PHE5        4 GROUP   
     5 GLY6        1 GROUP   
     6 CUB7        3 GROUP   
@<TRIPOS>SET

