#    Name: 3h4v_DVP_8_INTS_M
#    Modification time : Tue Mar 25 13:35:32 2014

@<TRIPOS>MOLECULE
3h4v_DVP_8_INTS_M
   48     0     6     0     0
SMALL
NO_CHARGES


@<TRIPOS>ATOM
      1 CA          7.3575   -6.7725  114.3865 C.3       2 GLC5        0.0000 
      2 CA          8.3250   -5.6750  115.5590 C.3       6 GLL5        0.0000 
      3 CA          6.3900   -7.8700  113.2140 C.3       4 GLP5        0.0000 
      4 CA          6.3310   -4.9010  114.9885 C.3       2 GLC5        0.0000 
      5 CA          4.3370   -4.1270  114.4180 C.3       4 GLP5        0.0000 
      6 CA          5.1590    1.4280  115.4090 C.3       2 GLC5        0.0000 
      7 CA          5.4710    1.1510  117.2210 C.3       6 GLL5        0.0000 
      8 CA          4.8470    1.7050  113.5970 C.3       4 GLP5        0.0000 
      9 CA          2.6770    2.9840  118.4910 C.3       2 GLC5        0.0000 
     10 CA          3.1630    0.9770  117.9500 C.3       6 GLL5        0.0000 
     11 CA          2.1910    4.9910  119.0320 C.3       4 GLP5        0.0000 
     12 CA          1.4065   -0.4875  117.7925 C.3       2 GLC5        0.0000 
     13 CA          0.8310    1.3350  118.6910 C.3       6 GLL5        0.0000 
     14 CA          1.9820   -2.3100  116.8940 C.3       4 GLP5        0.0000 
     15 CA          1.5110    3.1630  118.8615 C.3       2 GLC5        0.0000 
     16 CA         -0.9035    1.6130  119.0420 C.3       2 GLC5        0.0000 
     17 CA         -2.6380    1.8910  119.3930 C.3       4 GLP5        0.0000 
     18 CA         -3.7790   -2.0260  118.9115 C.3       2 GLC5        0.0000 
     19 CA         -1.8320   -1.9830  118.4850 C.3       6 GLL5        0.0000 
     20 CA         -5.7260   -2.0690  119.3380 C.3       4 GLP5        0.0000 
     21 CA         -4.6520   -4.7510  119.1240 C.3       2 GLC5        0.0000 
     22 CA         -2.8140   -3.7980  119.5710 C.3       6 GLL5        0.0000 
     23 CA         -6.4900   -5.7040  118.6770 C.3       4 GLP5        0.0000 
     24 CA         -1.8640   -4.6185  118.5125 C.3       2 GLC5        0.0000 
     25 CA         -0.9140   -5.4390  117.4540 C.3       4 GLP5        0.0000 
     26 CA         -4.2700   -2.9335  119.4545 C.3       2 GLC5        0.0000 
     27 O          -4.7625   -5.0855  118.5160 O.2       1 ALC1        0.0000 
     28 O          -3.6270   -4.8470  119.5900 O.2       5 ALL1        0.0000 
     29 O          -5.8980   -5.3240  117.4420 O.2       3 ALP1        0.0000 
     30 O          -3.0355   -5.3610  120.8470 O.2       1 ALC1        0.0000 
     31 O          -2.4440   -5.8750  122.1040 O.2       3 ALP1        0.0000 
     32 O          -1.9105   -2.1675  122.5540 O.2       1 ALC1        0.0000 
     33 O          -0.6360   -2.2290  121.9070 O.2       5 ALL1        0.0000 
     34 O          -3.1850   -2.1060  123.2010 O.2       3 ALP1        0.0000 
     35 CA         10.0170   -1.2857  120.1732 C.3       2 GLC5        0.0000 
     36 CA          9.9560   -1.9010  117.9210 C.3       6 GLL5        0.0000 
     37 CA         10.2150   -1.4280  122.3650 C.3       4 GLP5        0.0000 
     38 CA          6.2725    2.8117  118.0345 C.3       2 GLC5        0.0000 
     39 CA          5.8990    0.5420  118.3990 C.3       6 GLL5        0.0000 
     40 CA          6.8600    4.7770  118.2590 C.3       4 GLP5        0.0000 
     41 CA          3.6852    0.4160  115.8572 C.3       2 GLC5        0.0000 
     42 CA          4.1120    1.3610  117.0050 C.3       6 GLL5        0.0000 
     43 CA          3.7330   -0.3370  114.2370 C.3       4 GLP5        0.0000 
     44 CA          4.4235    1.4087  120.7272 C.3       2 GLC5        0.0000 
     45 CA          3.5860    0.3680  119.1380 C.3       6 GLL5        0.0000 
     46 CA          4.5780    2.5560  122.2070 C.3       4 GLP5        0.0000 
     47 CA         -1.1502   -3.7975  118.6866 C.3       2 GLC5        0.0000 
     48 CA         -1.1260   -1.6790  119.6500 C.3       6 GLL5        0.0000 
@<TRIPOS>BOND
@<TRIPOS>SUBSTRUCTURE
     1 ALC1       27 GROUP        1 X    ALC  0     ROOT ALC X 1
     2 GLC5        1 GROUP        1 X    GLC  0     **** GLC X 6
     3 ALP1       29 GROUP        1 Y    ALP  0     ROOT ALP Y 8
     4 GLP5        3 GROUP        1 Y    GLP  0     **** GLP Y 13
     5 ALL1       28 GROUP        1 Z    ALL  0     ROOT ALL Z 15
     6 GLL5        2 GROUP        1 Z    GLL  0     **** GLL Z 20
@<TRIPOS>SET

