#    Name: 3h4v_DVP_8_ligand
#    Modification time : Tue Mar 25 13:35:33 2014

@<TRIPOS>MOLECULE
3h4v_DVP_8_ligand
   56    59     1     0     0
SMALL
NO_CHARGES


@<TRIPOS>ATOM
      1 CAY         8.3250   -5.6750  115.5590 C.3       1 DVP301      0.0000 
      2 OAX         8.4750   -4.7750  116.7100 O.3       1 DVP301      0.0000 
      3 CAW         9.6630   -4.0160  116.6160 C.2       1 DVP301      0.0000 
      4 OBF        10.8730   -4.5760  116.5720 O.2       1 DVP301      0.0000 
      5 CAV         9.5570   -2.4750  116.5350 C.3       1 DVP301      0.0000 
      6 CAU         9.9560   -1.9010  117.9210 C.3       1 DVP301      0.0000 
      7 CAT         9.6820   -0.3860  118.0420 C.3       1 DVP301      0.0000 
      8 CAI         8.1250   -2.0440  116.0830 C.3       1 DVP301      0.0000 
      9 CAH         7.8140   -0.5500  116.3340 C.3       1 DVP301      0.0000 
     10 NAG         8.2440   -0.1720  117.7190 N.am      1 DVP301      0.0000 
     11 CAF         7.4020    0.3090  118.6610 C.2       1 DVP301      0.0000 
     12 OAA         7.8590    0.5820  119.7730 O.2       1 DVP301      0.0000 
     13 CAE         5.8990    0.5420  118.3990 C.ar      1 DVP301      0.0000 
     14 CAS         5.4710    1.1510  117.2210 C.ar      1 DVP301      0.0000 
     15 CAR         4.1120    1.3610  117.0050 C.ar      1 DVP301      0.0000 
     16 CAD         4.9520    0.1550  119.3570 C.ar      1 DVP301      0.0000 
     17 CAC         3.5860    0.3680  119.1380 C.ar      1 DVP301      0.0000 
     18 CAQ         3.1630    0.9770  117.9500 C.ar      1 DVP301      0.0000 
     19 N10         1.8760    1.2060  117.6660 N.pl3     1 DVP301      0.0000 
     20 C9          0.8310    1.3350  118.6910 C.3       1 DVP301      0.0000 
     21 C6         -0.1280    0.1430  118.6060 C.ar      1 DVP301      0.0000 
     22 C7         -0.8390   -0.1610  117.4370 C.ar      1 DVP301      0.0000 
     23 N8         -1.6650   -1.2090  117.4030 N.ar      1 DVP301      0.0000 
     24 C8A        -1.8320   -1.9830  118.4850 C.ar      1 DVP301      0.0000 
     25 N1         -2.6610   -3.0390  118.4630 N.ar      1 DVP301      0.0000 
     26 C2         -2.8140   -3.7980  119.5710 C.ar      1 DVP301      0.0000 
     27 N2         -3.6270   -4.8470  119.5900 N.pl3     1 DVP301      0.0000 
     28 N3         -2.1390   -3.5180  120.6930 N.ar      1 DVP301      0.0000 
     29 C4         -1.2940   -2.4810  120.7710 C.ar      1 DVP301      0.0000 
     30 N4         -0.6360   -2.2290  121.9070 N.pl3     1 DVP301      0.0000 
     31 C4A        -1.1260   -1.6790  119.6500 C.ar      1 DVP301      0.0000 
     32 N5         -0.2910   -0.6270  119.6910 N.ar      1 DVP301      0.0000 
     33 H          10.2726   -2.1316  115.8055 H         1 DVP301      0.0000 
     34 H          11.0206   -2.0852  118.0841 H         1 DVP301      0.0000 
     35 H           9.3930   -2.4284  118.6948 H         1 DVP301      0.0000 
     36 H          10.3125    0.1334  117.3412 H         1 DVP301      0.0000 
     37 H           9.8970   -0.0783  119.0507 H         1 DVP301      0.0000 
     38 H           7.3926   -2.6572  116.6205 H         1 DVP301      0.0000 
     39 H           8.0207   -2.2563  115.0128 H         1 DVP301      0.0000 
     40 H           6.7465   -0.3965  116.2147 H         1 DVP301      0.0000 
     41 H           8.3491    0.0407  115.5978 H         1 DVP301      0.0000 
     42 H           6.1561    1.4435  116.5153 H         1 DVP301      0.0000 
     43 H           3.7999    1.8111  116.1255 H         1 DVP301      0.0000 
     44 H           5.2652   -0.2907  120.2309 H         1 DVP301      0.0000 
     45 H           2.9013    0.0810  119.8406 H         1 DVP301      0.0000 
     46 H           1.5408    1.3072  116.6760 H         1 DVP301      0.0000 
     47 H           0.2550    2.2495  118.5451 H         1 DVP301      0.0000 
     48 H           1.2676    1.3532  119.6902 H         1 DVP301      0.0000 
     49 H          -0.7019    0.4505  116.6087 H         1 DVP301      0.0000 
     50 H          -4.4091   -4.8089  118.9679 H         1 DVP301      0.0000 
     51 H          -3.3840   -5.5806  120.2247 H         1 DVP301      0.0000 
     52 H          -1.2010   -2.0420  122.7105 H         1 DVP301      0.0000 
     53 H           0.3622   -2.2502  121.8513 H         1 DVP301      0.0000 
     54 H           8.2871   -5.1712  114.6960 H         1 DVP301      0.0000 
     55 H           9.0870   -6.3189  115.4892 H         1 DVP301      0.0000 
     56 H           7.4872   -6.2177  115.6186 H         1 DVP301      0.0000 
@<TRIPOS>BOND
     1    2    1 1    
     2   54    1 1    
     3   55    1 1    
     4   56    1 1    
     5    3    2 1    
     6    4    3 2    
     7    5    3 1    
     8    6    5 1    
     9    8    5 1    
    10   33    5 1    
    11    7    6 1    
    12   34    6 1    
    13   35    6 1    
    14   10    7 1    
    15   36    7 1    
    16   37    7 1    
    17    9    8 1    
    18   38    8 1    
    19   39    8 1    
    20   10    9 1    
    21   40    9 1    
    22   41    9 1    
    23   11   10 am   
    24   12   11 2    
    25   13   11 1    
    26   14   13 ar   
    27   16   13 ar   
    28   15   14 ar   
    29   42   14 1    
    30   18   15 ar   
    31   43   15 1    
    32   17   16 ar   
    33   44   16 1    
    34   18   17 ar   
    35   45   17 1    
    36   19   18 1    
    37   20   19 1    
    38   46   19 1    
    39   21   20 1    
    40   47   20 1    
    41   48   20 1    
    42   22   21 ar   
    43   32   21 ar   
    44   23   22 ar   
    45   49   22 1    
    46   24   23 ar   
    47   25   24 ar   
    48   31   24 ar   
    49   26   25 ar   
    50   27   26 1    
    51   28   26 ar   
    52   50   27 1    
    53   51   27 1    
    54   29   28 ar   
    55   30   29 1    
    56   31   29 ar   
    57   52   30 1    
    58   53   30 1    
    59   32   31 ar   
@<TRIPOS>SUBSTRUCTURE
     1 DVP301      1 GROUP   
@<TRIPOS>SET

