#    Name: 2a7p_3IL_1_INTS_M
#    Modification time : Mon Mar 24 18:35:14 2014

@<TRIPOS>MOLECULE
2a7p_3IL_1_INTS_M
   32     0     9     0     0
SMALL
NO_CHARGES


@<TRIPOS>ATOM
      1 CA         63.8910   84.1510   25.2830 C.3       3 GLC5        0.0000 
      2 CA         63.6390   84.8680   23.1710 C.3       9 GLL5        0.0000 
      3 CA         64.1430   83.4340   27.3950 C.3       6 GLP5        0.0000 
      4 N          71.5015   85.7775   24.3605 N.am      1 SEC2        0.0000 
      5 N          70.3950   85.5310   23.3890 N.am      7 SEL2        0.0000 
      6 N          72.6080   86.0240   25.3320 N.am      4 SEP2        0.0000 
      7 NZ         71.1535   88.1955   21.4355 N.4       2 LYC4        0.0000 
      8 NZ         70.5860   87.5490   22.5510 N.4       8 LYL4        0.0000 
      9 NZ         72.6200   89.8010   20.5320 N.4       5 LYP4        0.0000 
     10 N          71.1535   88.1955   21.4355 N.am      1 SEC2        0.0000 
     11 N          70.5860   87.5490   22.5510 N.am      7 SEL2        0.0000 
     12 N          71.7210   88.8420   20.3200 N.am      4 SEP2        0.0000 
     13 CA         68.2287   83.6550   20.6275 C.3       3 GLC5        0.0000 
     14 CA         66.6450   85.3370   20.8450 C.3       9 GLL5        0.0000 
     15 CA         69.0990   81.9810   20.1190 C.3       6 GLP5        0.0000 
     16 CA         64.9675   83.2258   22.0218 C.3       3 GLC5        0.0000 
     17 CA         65.0230   84.9770   22.8500 C.3       9 GLL5        0.0000 
     18 CA         65.6040   81.5290   21.0330 C.3       6 GLP5        0.0000 
     19 CA         64.7565   86.0687   24.6223 C.3       3 GLC5        0.0000 
     20 CA         65.1820   87.2150   26.2340 C.3       6 GLP5        0.0000 
     21 CA         61.7350   84.5888   24.2925 C.3       3 GLC5        0.0000 
     22 CA         60.3310   84.2610   25.9220 C.3       6 GLP5        0.0000 
     23 CA         64.6495   83.3800   20.8263 C.3       3 GLC5        0.0000 
     24 CA         62.9980   85.1740   20.7920 C.3       9 GLL5        0.0000 
     25 CA         62.5110   84.2075   19.2848 C.3       3 GLC5        0.0000 
     26 CA         64.3920   85.2880   20.4470 C.3       9 GLL5        0.0000 
     27 CA         61.3270   83.1840   17.9500 C.3       6 GLP5        0.0000 
     28 CA         65.7782   83.4190   20.9235 C.3       3 GLC5        0.0000 
     29 CA         65.4060   85.1910   21.4690 C.3       9 GLL5        0.0000 
     30 CA         67.8015   84.7390   23.6362 C.3       3 GLC5        0.0000 
     31 CA         68.0720   85.3210   21.4270 C.3       9 GLL5        0.0000 
     32 CA         67.3600   83.5750   25.3570 C.3       6 GLP5        0.0000 
@<TRIPOS>BOND
@<TRIPOS>SUBSTRUCTURE
     1 SEC2        4 GROUP        1 X    SEC  0     ROOT SEC X 2
     2 LYC4        7 GROUP        1 X    LYC  0     **** LYC X 4
     3 GLC5        1 GROUP        1 X    GLC  0     **** GLC X 6
     4 SEP2        6 GROUP        1 Y    SEP  0     ROOT SEP Y 9
     5 LYP4        9 GROUP        1 Y    LYP  0     **** LYP Y 11
     6 GLP5        3 GROUP        1 Y    GLP  0     **** GLP Y 13
     7 SEL2        5 GROUP        1 Z    SEL  0     ROOT SEL Z 16
     8 LYL4        8 GROUP        1 Z    LYL  0     **** LYL Z 18
     9 GLL5        2 GROUP        1 Z    GLL  0     **** GLL Z 20
@<TRIPOS>SET

