#    Name: 2a7p_3IL_1_ligand
#    Modification time : Mon Mar 24 18:35:14 2014

@<TRIPOS>MOLECULE
2a7p_3IL_1_ligand
   25    26     1     0     0
SMALL
NO_CHARGES


@<TRIPOS>ATOM
      1 N1         64.9660   85.4900   19.2050 N.pl3     1 3IL410      0.0000 
      2 C2         66.3530   85.5170   19.4730 C.2       1 3IL410      0.0000 
      3 C3         66.6450   85.3370   20.8450 C.2       1 3IL410      0.0000 
      4 C4         65.0230   84.9770   22.8500 C.ar      1 3IL410      0.0000 
      5 C5         63.6390   84.8680   23.1710 C.ar      1 3IL410      0.0000 
      6 C6         62.6390   84.9650   22.1550 C.ar      1 3IL410      0.0000 
      7 C7         62.9980   85.1740   20.7920 C.ar      1 3IL410      0.0000 
      8 C8         64.3920   85.2880   20.4470 C.ar      1 3IL410      0.0000 
      9 C9         65.4060   85.1910   21.4690 C.ar      1 3IL410      0.0000 
     10 C10        69.9030   86.5220   22.8100 C.2       1 3IL410      0.0000 
     11 O11        70.3950   85.5310   23.3890 O.co2     1 3IL410      0.0000 
     12 O12        70.5860   87.5490   22.5510 O.co2     1 3IL410      0.0000 
     13 C13        68.4140   86.4850   22.4040 C.3       1 3IL410      0.0000 
     14 O14        68.1200   87.7280   21.7720 O.3       1 3IL410      0.0000 
     15 C15        68.0720   85.3210   21.4270 C.3       1 3IL410      0.0000 
     16 H          64.5587   85.5861   18.3887 H         1 3IL410      0.0000 
     17 H          67.0303   85.6448   18.7920 H         1 3IL410      0.0000 
     18 H          65.7295   84.9082   23.5610 H         1 3IL410      0.0000 
     19 H          63.3554   84.7181   24.1425 H         1 3IL410      0.0000 
     20 H          61.6523   84.8831   22.4114 H         1 3IL410      0.0000 
     21 H          62.2935   85.2419   20.0758 H         1 3IL410      0.0000 
     22 H          67.8249   86.3610   23.2970 H         1 3IL410      0.0000 
     23 H          68.7983   85.3434   20.5943 H         1 3IL410      0.0000 
     24 H          68.2310   84.3651   21.9585 H         1 3IL410      0.0000 
     25 H          69.0052   88.1816   21.6690 H         1 3IL410      0.0000 
@<TRIPOS>BOND
     1    2    1 1    
     2    8    1 1    
     3   16    1 1    
     4    3    2 2    
     5   17    2 1    
     6    9    3 1    
     7   15    3 1    
     8    5    4 ar   
     9    9    4 ar   
    10   18    4 1    
    11    6    5 ar   
    12   19    5 1    
    13    7    6 ar   
    14   20    6 1    
    15    8    7 ar   
    16   21    7 1    
    17    9    8 ar   
    18   11   10 ar   
    19   12   10 ar   
    20   13   10 1    
    21   14   13 1    
    22   15   13 1    
    23   22   13 1    
    24   25   14 1    
    25   23   15 1    
    26   24   15 1    
@<TRIPOS>SUBSTRUCTURE
     1 3IL410      1 GROUP   
@<TRIPOS>SET

