#    Name: 4dr9_BB2_1_INTS_M
#    Modification time : Tue Mar 25 10:06:25 2014

@<TRIPOS>MOLECULE
4dr9_BB2_1_INTS_M
   74     0    12     0     0
SMALL
NO_CHARGES


@<TRIPOS>ATOM
      1 CA         36.5425   51.5270    6.2620 C.3       4 GLC5        0.0000 
      2 CA         36.2650   51.8780    4.4090 C.3      12 GLL5        0.0000 
      3 CA         36.8200   51.1760    8.1150 C.3       8 GLP5        0.0000 
      4 Zn         33.8230   53.9610    5.0795 Zn        3 ZIC7        0.0000 
      5 Zn         34.5060   53.2580    5.3860 Zn       11 ZIL7        0.0000 
      6 Zn         33.1400   54.6640    4.7730 Zn        7 ZIP7        0.0000 
      7 N          34.7095   54.4360    6.4805 N.am      2 SEC2        0.0000 
      8 N          34.5060   53.2580    5.3860 N.am     10 SEL2        0.0000 
      9 N          34.9130   55.6140    7.5750 N.am      6 SEP2        0.0000 
     10 N          34.1430   52.3825    6.5120 N.am      2 SEC2        0.0000 
     11 N          33.7800   51.5070    7.6380 N.am      6 SEP2        0.0000 
     12 O          36.4695   54.5430    2.9450 O.2       1 ALC1        0.0000 
     13 O          35.8890   54.1890    4.0480 O.2       9 ALL1        0.0000 
     14 O          37.0500   54.8970    1.8420 O.2       5 ALP1        0.0000 
     15 Zn         34.1685   54.9960    4.5605 Zn        3 ZIC7        0.0000 
     16 Zn         35.1970   55.3280    4.3480 Zn       11 ZIL7        0.0000 
     17 O          35.9315   56.1000    3.4725 O.2       1 ALC1        0.0000 
     18 O          35.1970   55.3280    4.3480 O.2       9 ALL1        0.0000 
     19 O          36.6660   56.8720    2.5970 O.2       5 ALP1        0.0000 
     20 CA         33.8105   51.2020    4.6055 C.3       4 GLC5        0.0000 
     21 CA         35.5840   51.1860    3.2220 C.3      12 GLL5        0.0000 
     22 CA         32.0370   51.2180    5.9890 C.3       8 GLP5        0.0000 
     23 N          38.5195   49.4345    3.2125 N.am      2 SEC2        0.0000 
     24 N          37.0670   49.3540    3.2870 N.am     10 SEL2        0.0000 
     25 N          39.9720   49.5150    3.1380 N.am      6 SEP2        0.0000 
     26 CA         38.0525   52.6905    2.1025 C.3       4 GLC5        0.0000 
     27 CA         36.0260   51.7780    1.8890 C.3      12 GLL5        0.0000 
     28 CA         40.0790   53.6030    2.3160 C.3       8 GLP5        0.0000 
     29 CA         34.5835   53.3050    1.8255 C.3       4 GLC5        0.0000 
     30 CA         33.1410   54.8320    1.7620 C.3       8 GLP5        0.0000 
     31 CA         33.2810   52.7465    0.5335 C.3       4 GLC5        0.0000 
     32 CA         34.0370   51.0680    0.4650 C.3      12 GLL5        0.0000 
     33 CA         32.5250   54.4250    0.6020 C.3       8 GLP5        0.0000 
     34 CA         34.8575   52.0160   -1.9865 C.3       4 GLC5        0.0000 
     35 CA         33.6260   50.7650   -0.9840 C.3      12 GLL5        0.0000 
     36 CA         36.0890   53.2670   -2.9890 C.3       8 GLP5        0.0000 
     37 CA         33.2075   52.7585   -0.9070 C.3       4 GLC5        0.0000 
     38 CA         32.7890   54.7520   -0.8300 C.3       8 GLP5        0.0000 
     39 CA         34.7870   48.4520   -2.4865 C.3       4 GLC5        0.0000 
     40 CA         33.4270   49.2690   -1.1700 C.3      12 GLL5        0.0000 
     41 CA         36.1470   47.6350   -3.8030 C.3       8 GLP5        0.0000 
     42 O          33.3940   49.5405    3.3805 O.2       1 ALC1        0.0000 
     43 O          34.8850   48.8980    3.3610 O.2       9 ALL1        0.0000 
     44 O          31.9030   50.1830    3.4000 O.2       5 ALP1        0.0000 
     45 CA         32.5490   47.5740    4.3500 C.3       4 GLC5        0.0000 
     46 CA         34.5580   46.8490    4.6600 C.3      12 GLL5        0.0000 
     47 CA         30.5400   48.2990    4.0400 C.3       8 GLP5        0.0000 
     48 CA         35.4450   43.7060    5.7915 C.3       4 GLC5        0.0000 
     49 CA         35.0510   45.4250    4.8090 C.3      12 GLL5        0.0000 
     50 CA         35.8390   41.9870    6.7740 C.3       8 GLP5        0.0000 
     51 CA         36.0700   48.7400    7.2885 C.3       4 GLC5        0.0000 
     52 CA         35.1120   47.6630    5.8280 C.3      12 GLL5        0.0000 
     53 CA         37.0280   49.8170    8.7490 C.3       8 GLP5        0.0000 
     54 N          31.6885   47.6025    2.4250 N.am      2 SEC2        0.0000 
     55 N          32.9120   47.1520    2.2360 N.am     10 SEL2        0.0000 
     56 N          30.4650   48.0530    2.6140 N.am      6 SEP2        0.0000 
     57 CA         37.3075   50.4998    0.7285 C.3       4 GLC5        0.0000 
     58 CA         35.5440   51.0470    0.6130 C.3      12 GLL5        0.0000 
     59 CA         38.8300   49.5870    0.2060 C.3       8 GLP5        0.0000 
     60 CA         37.0465   52.3083   -0.0375 C.3       4 GLC5        0.0000 
     61 CA         38.3080   53.2040   -1.3260 C.3       8 GLP5        0.0000 
     62 CA         31.6202   49.8745   -1.2035 C.3       4 GLC5        0.0000 
     63 CA         29.7140   49.7320   -1.3300 C.3       8 GLP5        0.0000 
     64 CA         32.9098   50.4245   -2.9035 C.3       4 GLC5        0.0000 
     65 CA         32.2930   50.8320   -4.7300 C.3       8 GLP5        0.0000 
     66 CA         32.9168   45.4065    4.9527 C.3       4 GLC5        0.0000 
     67 CA         31.0290   44.6760    5.1710 C.3       8 GLP5        0.0000 
     68 CA         37.1063   47.4060   -0.4682 C.3       4 GLC5        0.0000 
     69 CA         35.9920   46.1150    0.8230 C.3      12 GLL5        0.0000 
     70 CA         38.2480   48.9350   -1.0390 C.3       8 GLP5        0.0000 
     71 CA         35.6950   46.5080   -2.2812 C.3       4 GLC5        0.0000 
     72 CA         35.9370   45.6390   -0.6180 C.3      12 GLL5        0.0000 
     73 CA         36.7759   44.4530   -0.1936 C.3       4 GLC5        0.0000 
     74 CA         38.2950   43.4060    0.0120 C.3       8 GLP5        0.0000 
@<TRIPOS>BOND
@<TRIPOS>SUBSTRUCTURE
     1 ALC1       12 GROUP        1 X    ALC  0     ROOT ALC X 1
     2 SEC2        7 GROUP        1 X    SEC  0     **** SEC X 2
     3 ZIC7        4 GROUP        1 X    ZIC  0     **** ZIC X 5
     4 GLC5        1 GROUP        1 X    GLC  0     **** GLC X 6
     5 ALP1       14 GROUP        1 Y    ALP  0     ROOT ALP Y 8
     6 SEP2        9 GROUP        1 Y    SEP  0     **** SEP Y 9
     7 ZIP7        6 GROUP        1 Y    ZIP  0     **** ZIP Y 12
     8 GLP5        3 GROUP        1 Y    GLP  0     **** GLP Y 13
     9 ALL1       13 GROUP        1 Z    ALL  0     ROOT ALL Z 15
    10 SEL2        8 GROUP        1 Z    SEL  0     **** SEL Z 16
    11 ZIL7        5 GROUP        1 Z    ZIL  0     **** ZIL Z 19
    12 GLL5        2 GROUP        1 Z    GLL  0     **** GLL Z 20
@<TRIPOS>SET

