#    Name: 4dr9_BB2_1_ligand
#    Modification time : Tue Mar 25 10:06:25 2014

@<TRIPOS>MOLECULE
4dr9_BB2_1_ligand
   62    62     1     0     0
SMALL
NO_CHARGES


@<TRIPOS>ATOM
      1 C5         36.2650   51.8780    4.4090 C.3       1 BB2203      0.0000 
      2 C3         35.4980   53.1490    4.6880 C.2       1 BB2203      0.0000 
      3 O4         34.5060   53.2580    5.3860 O.2       1 BB2203      0.0000 
      4 N1         35.8890   54.1890    4.0480 N.am      1 BB2203      0.0000 
      5 O2         35.1970   55.3280    4.3480 O.3       1 BB2203      0.0000 
      6 C6         35.5840   51.1860    3.2220 C.3       1 BB2203      0.0000 
      7 C12        35.9210   49.7340    3.2970 C.2       1 BB2203      0.0000 
      8 O13        37.0670   49.3540    3.2870 O.2       1 BB2203      0.0000 
      9 C7         36.0260   51.7780    1.8890 C.3       1 BB2203      0.0000 
     10 C8         35.5440   51.0470    0.6130 C.3       1 BB2203      0.0000 
     11 C9         34.0370   51.0680    0.4650 C.3       1 BB2203      0.0000 
     12 C10        33.6260   50.7650   -0.9840 C.3       1 BB2203      0.0000 
     13 C11        33.4270   49.2690   -1.1700 C.3       1 BB2203      0.0000 
     14 N14        34.8850   48.8980    3.3610 N.am      1 BB2203      0.0000 
     15 C15        34.9840   47.4520    3.3090 C.3       1 BB2203      0.0000 
     16 C16        34.5580   46.8490    4.6600 C.3       1 BB2203      0.0000 
     17 C18        35.0510   45.4250    4.8090 C.3       1 BB2203      0.0000 
     18 C17        35.1120   47.6630    5.8280 C.3       1 BB2203      0.0000 
     19 C19        34.1090   46.9480    2.1830 C.2       1 BB2203      0.0000 
     20 O20        32.9120   47.1520    2.2360 O.2       1 BB2203      0.0000 
     21 N21        34.5880   46.3080    1.1450 N.am      1 BB2203      0.0000 
     22 C22        33.6580   45.7500    0.1650 C.3       1 BB2203      0.0000 
     23 C23        35.9920   46.1150    0.8230 C.3       1 BB2203      0.0000 
     24 C24        35.9370   45.6390   -0.6180 C.3       1 BB2203      0.0000 
     25 C25        34.5490   45.1230   -0.9010 C.3       1 BB2203      0.0000 
     26 C26        32.7100   44.7040    0.7590 C.3       1 BB2203      0.0000 
     27 O27        33.4340   43.5300    1.1420 O.3       1 BB2203      0.0000 
     28 H          36.2277   51.2284    5.2652 H         1 BB2203      0.0000 
     29 H          37.2817   52.1100    4.1465 H         1 BB2203      0.0000 
     30 H          36.6421   54.2094    3.3694 H         1 BB2203      0.0000 
     31 H          34.5174   51.3067    3.3306 H         1 BB2203      0.0000 
     32 H          37.1373   51.8215    1.8629 H         1 BB2203      0.0000 
     33 H          35.6842   52.8351    1.8312 H         1 BB2203      0.0000 
     34 H          35.8969   50.0105    0.6541 H         1 BB2203      0.0000 
     35 H          36.0074   51.5267   -0.2563 H         1 BB2203      0.0000 
     36 H          33.6542   52.0497    0.7413 H         1 BB2203      0.0000 
     37 H          33.5928   50.3198    1.1205 H         1 BB2203      0.0000 
     38 H          34.4057   51.1154   -1.6534 H         1 BB2203      0.0000 
     39 H          32.6999   51.2866   -1.2053 H         1 BB2203      0.0000 
     40 H          33.8946   49.2725    3.4575 H         1 BB2203      0.0000 
     41 H          36.0036   47.1539    3.1142 H         1 BB2203      0.0000 
     42 H          33.4816   46.8535    4.7224 H         1 BB2203      0.0000 
     43 H          33.0914   46.5317   -0.3008 H         1 BB2203      0.0000 
     44 H          36.4319   45.3524    1.4231 H         1 BB2203      0.0000 
     45 H          36.5346   47.0310    0.8647 H         1 BB2203      0.0000 
     46 H          36.6599   44.8460   -0.7622 H         1 BB2203      0.0000 
     47 H          36.1627   46.4666   -1.2785 H         1 BB2203      0.0000 
     48 H          34.2268   45.4436   -1.8690 H         1 BB2203      0.0000 
     49 H          34.5249   44.0582   -0.8050 H         1 BB2203      0.0000 
     50 H          31.9452   44.4801    0.0027 H         1 BB2203      0.0000 
     51 H          32.2014   45.1647    1.6169 H         1 BB2203      0.0000 
     52 H          34.2632   48.7561   -0.9759 H         1 BB2203      0.0000 
     53 H          32.7163   48.9108   -0.5646 H         1 BB2203      0.0000 
     54 H          33.1557   49.0439   -2.1058 H         1 BB2203      0.0000 
     55 H          36.0482   45.3700    4.7580 H         1 BB2203      0.0000 
     56 H          34.7800   45.0280    5.6859 H         1 BB2203      0.0000 
     57 H          34.6876   44.8293    4.0927 H         1 BB2203      0.0000 
     58 H          36.1113   47.6984    5.8151 H         1 BB2203      0.0000 
     59 H          34.7850   48.6079    5.8104 H         1 BB2203      0.0000 
     60 H          34.8437   47.2764    6.7104 H         1 BB2203      0.0000 
     61 H          35.5837   56.0305    3.7505 H         1 BB2203      0.0000 
     62 H          33.4334   43.5404    2.1419 H         1 BB2203      0.0000 
@<TRIPOS>BOND
     1    2    1 1    
     2    6    1 1    
     3   28    1 1    
     4   29    1 1    
     5    3    2 2    
     6    4    2 am   
     7    5    4 1    
     8   30    4 1    
     9   61    5 1    
    10    7    6 1    
    11    9    6 1    
    12   31    6 1    
    13    8    7 2    
    14   14    7 am   
    15   10    9 1    
    16   32    9 1    
    17   33    9 1    
    18   11   10 1    
    19   34   10 1    
    20   35   10 1    
    21   12   11 1    
    22   36   11 1    
    23   37   11 1    
    24   13   12 1    
    25   38   12 1    
    26   39   12 1    
    27   52   13 1    
    28   53   13 1    
    29   54   13 1    
    30   15   14 1    
    31   40   14 1    
    32   16   15 1    
    33   19   15 1    
    34   41   15 1    
    35   17   16 1    
    36   18   16 1    
    37   42   16 1    
    38   55   17 1    
    39   56   17 1    
    40   57   17 1    
    41   58   18 1    
    42   59   18 1    
    43   60   18 1    
    44   20   19 2    
    45   21   19 am   
    46   22   21 1    
    47   23   21 1    
    48   25   22 1    
    49   26   22 1    
    50   43   22 1    
    51   24   23 1    
    52   44   23 1    
    53   45   23 1    
    54   25   24 1    
    55   46   24 1    
    56   47   24 1    
    57   48   25 1    
    58   49   25 1    
    59   27   26 1    
    60   50   26 1    
    61   51   26 1    
    62   62   27 1    
@<TRIPOS>SUBSTRUCTURE
     1 BB2203      1 GROUP   
@<TRIPOS>SET

