#    Name: 2HA7_1_CAVITY_N1_ALL.mol2
#    Modification time : Mon Mar 10 16:21:47 2014

@<TRIPOS>MOLECULE
2HA7_1_CAVITY_N1_ALL.mol2
  142     0     6     0     0
SMALL
NO_CHARGES


@<TRIPOS>ATOM
      1 OG         33.8555   22.2637   10.3115 O.2       1 SER1        0.0000 
      2 OG         32.9464   23.2580   10.9711 O.2       1 SER1        0.0000 
      3 CZ         34.7148   20.1600    7.8445 C.ar      4 PHE5        0.0000 
      4 CZ         33.8058   21.1543    8.5041 C.ar      4 PHE5        0.0000 
      5 OG         32.8967   22.1486    9.1637 O.2       1 SER1        0.0000 
      6 CZ         31.9876   23.1428    9.8233 C.ar      4 PHE5        0.0000 
      7 CZ         31.0786   24.1371   10.4829 C.ar      4 PHE5        0.0000 
      8 O          33.7561   20.0449    6.6967 O.2       2 ALA2        0.0000 
      9 O          32.8470   21.0391    7.3563 O.2       2 ALA2        0.0000 
     10 CA         31.9379   22.0334    8.0159 C.3       5 GLY6        0.0000 
     11 CZ         31.0289   23.0276    8.6755 C.ar      4 PHE5        0.0000 
     12 O          31.8882   20.9240    6.2084 O.2       2 ALA2        0.0000 
     13 CZ         30.9792   21.9182    6.8680 C.ar      4 PHE5        0.0000 
     14 CZ         35.5244   23.4961   10.7540 C.ar      4 PHE5        0.0000 
     15 CZ         34.6154   24.4903   11.4136 C.ar      4 PHE5        0.0000 
     16 CZ         34.5657   23.3809    9.6062 C.ar      4 PHE5        0.0000 
     17 CZ         33.6566   24.3752   10.2658 C.ar      4 PHE5        0.0000 
     18 CZ         35.4250   21.2773    7.1392 C.ar      4 PHE5        0.0000 
     19 CZ         34.5160   22.2715    7.7988 C.ar      4 PHE5        0.0000 
     20 CZ         33.6069   23.2658    8.4584 C.ar      4 PHE5        0.0000 
     21 N          34.4662   21.1621    5.9914 N.2       2 ALA2        0.0000 
     22 CA         33.5572   22.1564    6.6510 C.3       5 GLY6        0.0000 
     23 CA         32.6481   23.1506    7.3106 C.3       5 GLY6        0.0000 
     24 CA         32.5984   22.0412    5.5031 C.3       5 GLY6        0.0000 
     25 CZ         37.8539   24.7363    8.6839 C.ar      4 PHE5        0.0000 
     26 OG         36.9448   25.7306    9.3434 O.2       1 SER1        0.0000 
     27 CZ         39.6223   21.6384    5.5573 C.ar      4 PHE5        0.0000 
     28 CZ         38.7132   22.6326    6.2168 C.ar      4 PHE5        0.0000 
     29 CZ         37.8041   23.6269    6.8764 C.ar      4 PHE5        0.0000 
     30 DU         36.8951   24.6211    7.5360 H         6 CUB7        0.0000 
     31 DU         35.9860   25.6154    8.1956 H         6 CUB7        0.0000 
     32 CZ         35.0769   26.6096    8.8552 C.ar      4 PHE5        0.0000 
     33 CA         38.6635   21.5232    4.4094 C.3       5 GLY6        0.0000 
     34 CZ         37.7544   22.5175    5.0690 C.ar      4 PHE5        0.0000 
     35 CZ         36.8454   23.5117    5.7286 C.ar      4 PHE5        0.0000 
     36 N          35.9363   24.5060    6.3882 N.2       2 ALA2        0.0000 
     37 N          35.0272   25.5002    7.0478 N.2       2 ALA2        0.0000 
     38 N          35.8866   23.3966    4.5808 N.2       2 ALA2        0.0000 
     39 N          41.0426   23.8729    4.1467 N.2       2 ALA2        0.0000 
     40 N          41.9020   21.7692    1.6797 N.2       2 ALA2        0.0000 
     41 DU         40.9929   22.7635    2.3392 H         6 CUB7        0.0000 
     42 DU         40.0839   23.7577    2.9988 H         6 CUB7        0.0000 
     43 CA         40.0342   22.6483    1.1914 C.3       5 GLY6        0.0000 
     44 CA         39.1251   23.6425    1.8510 C.3       5 GLY6        0.0000 
     45 CA         38.1663   23.5274    0.7032 C.3       5 GLY6        0.0000 
     46 CZ         28.8983   19.6760   10.7913 C.ar      4 PHE5        0.0000 
     47 CZ         27.9893   20.6702   11.4509 C.ar      4 PHE5        0.0000 
     48 CA         30.2051   21.0078   17.4071 C.3       5 GLY6        0.0000 
     49 CA         30.1554   19.8984   15.5997 C.3       5 GLY6        0.0000 
     50 CA         29.2463   20.8927   16.2593 C.3       5 GLY6        0.0000 
     51 CA         30.1057   18.7890   13.7923 C.3       5 GLY6        0.0000 
     52 CA         29.1966   19.7833   14.4519 C.3       5 GLY6        0.0000 
     53 CA         28.2876   20.7775   15.1115 C.3       5 GLY6        0.0000 
     54 CZ         30.9651   16.6854   11.3253 C.ar      4 PHE5        0.0000 
     55 O          30.0560   17.6796   11.9849 O.2       2 ALA2        0.0000 
     56 DU         29.1469   18.6739   12.6445 H         6 CUB7        0.0000 
     57 DU         28.2379   19.6681   13.3040 H         6 CUB7        0.0000 
     58 OG         27.3288   20.6624   13.9636 O.2       1 SER1        0.0000 
     59 O          26.4197   21.6566   14.6232 O.2       2 ALA2        0.0000 
     60 CZ         30.0063   16.5702   10.1774 C.ar      4 PHE5        0.0000 
     61 CZ         29.0972   17.5645   10.8370 C.ar      4 PHE5        0.0000 
     62 CZ         28.1881   18.5587   11.4966 C.ar      4 PHE5        0.0000 
     63 CA         27.2791   19.5530   12.1562 C.3       5 GLY6        0.0000 
     64 CZ         26.3700   20.5472   12.8158 C.ar      4 PHE5        0.0000 
     65 CZ         25.4609   21.5415   13.4754 C.ar      4 PHE5        0.0000 
     66 CA         28.4864   18.6661   15.1572 C.3       5 GLY6        0.0000 
     67 CZ         27.5774   19.6603   15.8168 C.ar      4 PHE5        0.0000 
     68 O          29.3458   16.5624   12.6902 O.2       2 ALA2        0.0000 
     69 O          28.4367   17.5566   13.3497 O.2       2 ALA2        0.0000 
     70 DU         27.5277   18.5509   14.0093 H         6 CUB7        0.0000 
     71 DU         26.6186   19.5451   14.6689 H         6 CUB7        0.0000 
     72 CZ         25.7095   20.5394   15.3285 C.ar      4 PHE5        0.0000 
     73 CA         26.5689   18.4357   12.8615 C.3       5 GLY6        0.0000 
     74 CA         25.6598   19.4300   13.5211 C.3       5 GLY6        0.0000 
     75 CA         39.5228   25.9687    9.1264 C.3       5 GLY6        0.0000 
     76 OG         37.6550   26.8478    8.6382 O.2       1 SER1        0.0000 
     77 N          40.3325   22.7556    4.8520 N.2       2 ALA2        0.0000 
     78 CA         39.4234   23.7499    5.5116 C.3       5 GLY6        0.0000 
     79 DU         38.5143   24.7441    6.1711 H         6 CUB7        0.0000 
     80 DU         37.6053   25.7384    6.8307 H         6 CUB7        0.0000 
     81 DU         36.6962   26.7326    7.4903 H         6 CUB7        0.0000 
     82 CA         40.2828   21.6462    3.0445 C.3       5 GLY6        0.0000 
     83 DU         39.3737   22.6405    3.7041 H         6 CUB7        0.0000 
     84 DU         38.4646   23.6347    4.3637 H         6 CUB7        0.0000 
     85 DU         37.5556   24.6290    5.0233 H         6 CUB7        0.0000 
     86 N          36.6465   25.6232    5.6829 N.2       2 ALA2        0.0000 
     87 N          35.7374   26.6175    6.3425 N.2       2 ALA2        0.0000 
     88 N          39.3240   21.5311    1.8967 N.2       2 ALA2        0.0000 
     89 N          38.4149   22.5253    2.5563 N.2       2 ALA2        0.0000 
     90 N          37.5059   23.5196    3.2159 N.2       2 ALA2        0.0000 
     91 N          36.5968   24.5138    3.8755 N.2       2 ALA2        0.0000 
     92 N          35.6877   25.5081    4.5351 N.2       2 ALA2        0.0000 
     93 CA         32.3356   24.3595   15.2912 C.3       5 GLY6        0.0000 
     94 CA         31.4266   25.3538   15.9508 C.3       5 GLY6        0.0000 
     95 NZ         31.3769   24.2444   14.1434 N.2       3 LYS4        0.0000 
     96 CA         30.4678   25.2386   14.8030 C.3       5 GLY6        0.0000 
     97 OG         31.3272   23.1350   12.3360 O.2       1 SER1        0.0000 
     98 NZ         30.4181   24.1292   12.9956 N.2       3 LYS4        0.0000 
     99 OG         29.5090   25.1235   13.6552 O.2       1 SER1        0.0000 
    100 CZ         33.0956   20.0371    9.2094 C.ar      4 PHE5        0.0000 
    101 OG         32.1865   21.0313    9.8690 O.2       1 SER1        0.0000 
    102 OG         31.2775   22.0256   10.5286 O.2       1 SER1        0.0000 
    103 CZ         32.1368   19.9219    8.0616 C.ar      4 PHE5        0.0000 
    104 CZ         31.2278   20.9162    8.7212 C.ar      4 PHE5        0.0000 
    105 CZ         30.3187   21.9104    9.3807 C.ar      4 PHE5        0.0000 
    106 OG         32.5345   22.2481   15.3369 O.2       1 SER1        0.0000 
    107 OG         31.6255   23.2423   15.9965 O.2       1 SER1        0.0000 
    108 N          30.7164   24.2366   16.6561 N.2       2 ALA2        0.0000 
    109 OG         31.5758   22.1329   14.1891 O.2       1 SER1        0.0000 
    110 OG         30.6667   23.1271   14.8487 O.2       1 SER1        0.0000 
    111 CA         29.7576   24.1214   15.5083 C.3       5 GLY6        0.0000 
    112 OG         30.6170   22.0177   13.0413 O.2       1 SER1        0.0000 
    113 OG         29.7079   23.0120   13.7009 O.2       1 SER1        0.0000 
    114 OG         31.4763   19.9141   10.5743 O.2       1 SER1        0.0000 
    115 OG         30.5673   20.9083   11.2339 O.2       1 SER1        0.0000 
    116 CZ         29.6582   21.9026   11.8935 C.ar      4 PHE5        0.0000 
    117 CZ         29.6085   20.7932   10.0860 C.ar      4 PHE5        0.0000 
    118 OG         30.9153   22.1251   16.7018 O.2       1 SER1        0.0000 
    119 OG         31.7746   20.0214   14.2348 O.2       1 SER1        0.0000 
    120 OG         30.8656   21.0157   14.8944 O.2       1 SER1        0.0000 
    121 CA         29.9565   22.0099   15.5540 C.3       5 GLY6        0.0000 
    122 OG         31.7249   18.9120   12.4274 O.2       1 SER1        0.0000 
    123 OG         30.8159   19.9063   13.0870 O.2       1 SER1        0.0000 
    124 OG         29.9068   20.9005   13.7466 O.2       1 SER1        0.0000 
    125 OG         28.9977   21.8948   14.4062 O.2       1 SER1        0.0000 
    126 OG         28.0887   22.8890   15.0658 O.2       1 SER1        0.0000 
    127 CZ         30.7662   18.7969   11.2796 C.ar      4 PHE5        0.0000 
    128 OG         29.8571   19.7911   11.9392 O.2       1 SER1        0.0000 
    129 CZ         28.9480   20.7854   12.5988 C.ar      4 PHE5        0.0000 
    130 OG         28.0390   21.7796   13.2583 O.2       1 SER1        0.0000 
    131 CZ         37.1437   23.6191    9.3891 C.ar      4 PHE5        0.0000 
    132 CZ         36.2346   24.6133   10.0487 C.ar      4 PHE5        0.0000 
    133 CZ         35.3255   25.6076   10.7083 C.ar      4 PHE5        0.0000 
    134 CZ         36.1849   23.5039    8.2413 C.ar      4 PHE5        0.0000 
    135 DU         35.2758   24.4982    8.9009 H         6 CUB7        0.0000 
    136 CZ         34.3668   25.4924    9.5605 C.ar      4 PHE5        0.0000 
    137 CZ         37.0443   21.4003    5.7743 C.ar      4 PHE5        0.0000 
    138 CZ         36.1352   22.3945    6.4339 C.ar      4 PHE5        0.0000 
    139 CZ         35.2261   23.3888    7.0935 C.ar      4 PHE5        0.0000 
    140 CZ         34.3171   24.3830    7.7531 C.ar      4 PHE5        0.0000 
    141 N          35.1764   22.2794    5.2861 N.2       2 ALA2        0.0000 
    142 N          34.2674   23.2736    5.9457 N.2       2 ALA2        0.0000 
@<TRIPOS>BOND
@<TRIPOS>SUBSTRUCTURE
     1 SER1        1 GROUP   
     2 ALA2        8 GROUP   
     3 LYS4       95 GROUP   
     4 PHE5        3 GROUP   
     5 GLY6       10 GROUP   
     6 CUB7       30 GROUP   
@<TRIPOS>SET

