#    Name: 2ha7_BCH_1_INTS_M
#    Modification time : Tue Mar 25 15:46:57 2014

@<TRIPOS>MOLECULE
2ha7_BCH_1_INTS_M
   34     0     3     0     0
SMALL
NO_CHARGES


@<TRIPOS>ATOM
      1 CA         28.6445   22.6555   10.4825 C.3       1 GLC5        0.0000 
      2 CA         30.2480   22.1770   10.1840 C.3       3 GLL5        0.0000 
      3 CA         27.0410   23.1340   10.7810 C.3       2 GLP5        0.0000 
      4 CA         29.5720   20.4765    9.1735 C.3       1 GLC5        0.0000 
      5 CA         28.8960   18.7760    8.1630 C.3       2 GLP5        0.0000 
      6 CA         29.8625   23.8625    9.0985 C.3       1 GLC5        0.0000 
      7 CA         29.4770   25.5480    8.0130 C.3       2 GLP5        0.0000 
      8 CA         33.0015   21.2735   11.3590 C.3       1 GLC5        0.0000 
      9 CA         31.6850   22.0450    9.7340 C.3       3 GLL5        0.0000 
     10 CA         34.3180   20.5020   12.9840 C.3       2 GLP5        0.0000 
     11 CA         31.2385   23.8740    8.6535 C.3       1 GLC5        0.0000 
     12 CA         30.7920   25.7030    7.5730 C.3       2 GLP5        0.0000 
     13 CA         32.0855   24.8340    9.2045 C.3       1 GLC5        0.0000 
     14 CA         32.4640   23.3310    9.9890 C.3       3 GLL5        0.0000 
     15 CA         31.7070   26.3370    8.4200 C.3       2 GLP5        0.0000 
     16 CA         36.2255   22.8190   10.3960 C.3       1 GLC5        0.0000 
     17 CA         35.0340   24.3000   10.0000 C.3       3 GLL5        0.0000 
     18 CA         37.4170   21.3380   10.7920 C.3       2 GLP5        0.0000 
     19 CA         33.3705   25.3185    9.2100 C.3       1 GLC5        0.0000 
     20 CA         37.4575   23.2320    9.6415 C.3       1 GLC5        0.0000 
     21 CA         36.2660   24.5110    8.7490 C.3       3 GLL5        0.0000 
     22 CA         38.6490   21.9530   10.5340 C.3       2 GLP5        0.0000 
     23 CA         37.1000   26.2370   10.5260 C.3       1 GLC5        0.0000 
     24 CA         36.5530   26.0030    8.5430 C.3       3 GLL5        0.0000 
     25 CA         37.6470   26.4710   12.5090 C.3       2 GLP5        0.0000 
     26 CA         38.2845   26.2620   10.8255 C.3       1 GLC5        0.0000 
     27 CA         38.9220   26.0530    9.1420 C.3       3 GLL5        0.0000 
     28 CA         39.7355   24.5865    9.8930 C.3       1 GLC5        0.0000 
     29 CA         40.5490   23.1200   10.6440 C.3       2 GLP5        0.0000 
     30 CA         39.3900   24.0740    8.1270 C.3       1 GLC5        0.0000 
     31 CA         38.2700   25.5340    6.8800 C.3       3 GLL5        0.0000 
     32 CA         40.5100   22.6140    9.3740 C.3       2 GLP5        0.0000 
     33 CA         36.1860   24.9842   11.1877 C.3       1 GLC5        0.0000 
     34 CA         36.7220   25.5630   13.0010 C.3       2 GLP5        0.0000 
@<TRIPOS>BOND
@<TRIPOS>SUBSTRUCTURE
     1 GLC5        1 GROUP        1 X    GLC  0     ROOT GLC X 6
     2 GLP5        3 GROUP        1 Y    GLP  0     ROOT GLP Y 13
     3 GLL5        2 GROUP        1 Z    GLL  0     ROOT GLL Z 20
@<TRIPOS>SET

