#    Name: 2ha7_BCH_1_ligand
#    Modification time : Tue Mar 25 15:46:58 2014

@<TRIPOS>MOLECULE
2ha7_BCH_1_ligand
   32    31     1     0     0
SMALL
NO_CHARGES


@<TRIPOS>ATOM
      1 C21        30.2480   22.1770   10.1840 C.3       1 BCH910      0.0000 
      2 C20        31.6850   22.0450    9.7340 C.3       1 BCH910      0.0000 
      3 C19        32.4640   23.3310    9.9890 C.3       1 BCH910      0.0000 
      4 C18        33.8420   23.3260    9.3580 C.2       1 BCH910      0.0000 
      5 O12        34.0920   22.6290    8.3860 O.2       1 BCH910      0.0000 
      6 S17        35.0340   24.3000   10.0000 S.3       1 BCH910      0.0000 
      7 C16        36.2660   24.5110    8.7490 C.3       1 BCH910      0.0000 
      8 C15        36.5530   26.0030    8.5430 C.3       1 BCH910      0.0000 
      9 N14        37.9290   26.3160    8.0860 N.4       1 BCH910      0.0000 
     10 C13        38.9220   26.0530    9.1420 C.3       1 BCH910      0.0000 
     11 C22        38.0050   27.7530    7.7600 C.3       1 BCH910      0.0000 
     12 C11        38.2700   25.5340    6.8800 C.3       1 BCH910      0.0000 
     13 H          31.7144   21.8166    8.6660 H         1 BCH910      0.0000 
     14 H          32.1639   21.2253   10.2748 H         1 BCH910      0.0000 
     15 H          32.5626   23.4784   11.0747 H         1 BCH910      0.0000 
     16 H          31.8874   24.1809    9.5947 H         1 BCH910      0.0000 
     17 H          35.8353   24.0502    7.8933 H         1 BCH910      0.0000 
     18 H          37.1029   23.9770    9.1293 H         1 BCH910      0.0000 
     19 H          36.3435   26.5273    9.4995 H         1 BCH910      0.0000 
     20 H          35.8133   26.3965    7.8138 H         1 BCH910      0.0000 
     21 H          30.1818   22.3761   11.1617 H         1 BCH910      0.0000 
     22 H          29.7741   22.9140    9.7021 H         1 BCH910      0.0000 
     23 H          29.7289   21.3382   10.0199 H         1 BCH910      0.0000 
     24 H          39.8516   26.2615    8.8379 H         1 BCH910      0.0000 
     25 H          38.7503   26.6038    9.9588 H         1 BCH910      0.0000 
     26 H          38.9151   25.0948    9.4279 H         1 BCH910      0.0000 
     27 H          38.9180   28.0151    7.4473 H         1 BCH910      0.0000 
     28 H          37.3636   28.0038    7.0349 H         1 BCH910      0.0000 
     29 H          37.7908   28.3252    8.5516 H         1 BCH910      0.0000 
     30 H          39.1944   25.7352    6.5560 H         1 BCH910      0.0000 
     31 H          38.2272   24.5497    7.0512 H         1 BCH910      0.0000 
     32 H          37.6456   25.7273    6.1232 H         1 BCH910      0.0000 
@<TRIPOS>BOND
     1    2    1 1    
     2   21    1 1    
     3   22    1 1    
     4   23    1 1    
     5    3    2 1    
     6   13    2 1    
     7   14    2 1    
     8    4    3 1    
     9   15    3 1    
    10   16    3 1    
    11    5    4 2    
    12    6    4 1    
    13    7    6 1    
    14    8    7 1    
    15   17    7 1    
    16   18    7 1    
    17    9    8 1    
    18   19    8 1    
    19   20    8 1    
    20   10    9 1    
    21   11    9 1    
    22   12    9 1    
    23   24   10 1    
    24   25   10 1    
    25   26   10 1    
    26   27   11 1    
    27   28   11 1    
    28   29   11 1    
    29   30   12 1    
    30   31   12 1    
    31   32   12 1    
@<TRIPOS>SUBSTRUCTURE
     1 BCH910      1 GROUP   
@<TRIPOS>SET

