#    Name: 2zif_SAM_1_INTS_M
#    Modification time : Tue Mar 25 10:46:26 2014

@<TRIPOS>MOLECULE
2zif_SAM_1_INTS_M
   65     0     9     0     0
SMALL
NO_CHARGES


@<TRIPOS>ATOM
      1 CA         19.6030   23.1415   74.8765 C.3       3 GLC5        0.0000 
      2 CA         19.5740   25.3540   74.9840 C.3       9 GLL5        0.0000 
      3 CA         19.6320   20.9290   74.7690 C.3       6 GLP5        0.0000 
      4 CA         21.5675   26.0195   75.1015 C.3       3 GLC5        0.0000 
      5 CA         23.5610   26.6850   75.2190 C.3       6 GLP5        0.0000 
      6 N          16.8040   24.4375   77.3430 N.am      2 SEC2        0.0000 
      7 N          17.8670   24.8870   76.5870 N.am      8 SEL2        0.0000 
      8 N          15.7410   23.9880   78.0990 N.am      5 SEP2        0.0000 
      9 N          20.3535   23.2160   77.5565 N.am      2 SEC2        0.0000 
     10 N          19.6340   23.6070   76.5930 N.am      8 SEL2        0.0000 
     11 N          21.0730   22.8250   78.5200 N.am      5 SEP2        0.0000 
     12 CA         16.9500   28.4245   72.9535 C.3       3 GLC5        0.0000 
     13 CA         17.4130   26.3820   73.1220 C.3       9 GLL5        0.0000 
     14 CA         16.4870   30.4670   72.7850 C.3       6 GLP5        0.0000 
     15 CA         19.5750   26.3695   70.6745 C.3       3 GLC5        0.0000 
     16 CA         17.8460   25.7190   70.3450 C.3       9 GLL5        0.0000 
     17 CA         21.3040   27.0200   71.0040 C.3       6 GLP5        0.0000 
     18 CA         15.5425   27.7330   69.4705 C.3       3 GLC5        0.0000 
     19 CA         15.5520   27.3490   71.1220 C.3       9 GLL5        0.0000 
     20 CA         15.5330   28.1170   67.8190 C.3       6 GLP5        0.0000 
     21 CA         14.2815   28.2570   69.9960 C.3       3 GLC5        0.0000 
     22 CA         14.3400   27.6230   72.0270 C.3       9 GLL5        0.0000 
     23 CA         14.2230   28.8910   67.9650 C.3       6 GLP5        0.0000 
     24 O          13.0900   26.9075   74.4715 O.2       1 ALC1        0.0000 
     25 O          13.2050   25.8890   73.3660 O.2       7 ALL1        0.0000 
     26 O          12.9750   27.9260   75.5770 O.2       4 ALP1        0.0000 
     27 O          10.8795   27.4760   73.5580 O.2       1 ALC1        0.0000 
     28 O          10.8520   26.8110   72.2670 O.2       7 ALL1        0.0000 
     29 O          10.9070   28.1410   74.8490 O.2       4 ALP1        0.0000 
     30 CA         13.2510   28.7685   69.8985 C.3       3 GLC5        0.0000 
     31 CA         12.2790   28.6460   71.8320 C.3       9 GLL5        0.0000 
     32 CA         13.6990   30.3705   71.6285 C.3       3 GLC5        0.0000 
     33 CA         15.1190   32.0950   71.4250 C.3       6 GLP5        0.0000 
     34 CA          9.6380   34.4500   71.9850 C.3       3 GLC5        0.0000 
     35 CA         10.6470   33.0130   70.6820 C.3       9 GLL5        0.0000 
     36 CA          8.6290   35.8870   73.2880 C.3       6 GLP5        0.0000 
     37 O           9.4665   34.9005   70.0045 O.2       1 ALC1        0.0000 
     38 O          10.1360   33.8840   69.7740 O.2       7 ALL1        0.0000 
     39 O           8.7970   35.9170   70.2350 O.2       4 ALP1        0.0000 
     40 N          10.9830   34.7830   72.6185 N.am      2 SEC2        0.0000 
     41 N          10.9100   33.4980   71.9460 N.am      8 SEL2        0.0000 
     42 N          11.0560   36.0680   73.2910 N.am      5 SEP2        0.0000 
     43 CA         10.0240   34.2795   73.0870 C.3       3 GLC5        0.0000 
     44 CA         11.4190   32.6720   72.8860 C.3       9 GLL5        0.0000 
     45 CA         12.4390   34.2650   72.8990 C.3       3 GLC5        0.0000 
     46 CA         13.4590   35.8580   72.9120 C.3       6 GLP5        0.0000 
     47 CA         11.5280   31.7645   74.9375 C.3       3 GLC5        0.0000 
     48 CA         11.6370   30.8570   76.9890 C.3       6 GLP5        0.0000 
     49 CA          9.9830   31.7325   73.0710 C.3       3 GLC5        0.0000 
     50 CA          8.5470   30.7930   73.2560 C.3       6 GLP5        0.0000 
     51 N          10.7840   31.0770   73.9845 N.am      2 SEC2        0.0000 
     52 N          11.6930   31.3730   72.6540 N.am      8 SEL2        0.0000 
     53 N           9.8750   30.7810   75.3150 N.am      5 SEP2        0.0000 
     54 CA          9.9900   30.8500   72.3300 C.3       3 GLC5        0.0000 
     55 CA         11.4330   30.9070   71.4040 C.3       9 GLL5        0.0000 
     56 CA         19.6365   26.4477   72.2428 C.3       3 GLC5        0.0000 
     57 CA         16.5115   25.7938   74.9968 C.3       3 GLC5        0.0000 
     58 CA         18.5250   25.3690   73.8410 C.3       9 GLL5        0.0000 
     59 CA         15.0540   25.7120   76.5120 C.3       6 GLP5        0.0000 
     60 CA         16.3592   26.9632   69.3920 C.3       3 GLC5        0.0000 
     61 CA         16.5250   25.9000   71.5850 C.3       9 GLL5        0.0000 
     62 CA         15.7165   28.9765   72.1797 C.3       3 GLC5        0.0000 
     63 CA          9.1415   31.5463   70.7565 C.3       3 GLC5        0.0000 
     64 CA         10.8990   31.6840   70.3580 C.3       9 GLL5        0.0000 
     65 CA          7.5100   30.7440   70.9930 C.3       6 GLP5        0.0000 
@<TRIPOS>BOND
@<TRIPOS>SUBSTRUCTURE
     1 ALC1       24 GROUP        1 X    ALC  0     ROOT ALC X 1
     2 SEC2        6 GROUP        1 X    SEC  0     **** SEC X 2
     3 GLC5        1 GROUP        1 X    GLC  0     **** GLC X 6
     4 ALP1       26 GROUP        1 Y    ALP  0     ROOT ALP Y 8
     5 SEP2        8 GROUP        1 Y    SEP  0     **** SEP Y 9
     6 GLP5        3 GROUP        1 Y    GLP  0     **** GLP Y 13
     7 ALL1       25 GROUP        1 Z    ALL  0     ROOT ALL Z 15
     8 SEL2        7 GROUP        1 Z    SEL  0     **** SEL Z 16
     9 GLL5        2 GROUP        1 Z    GLL  0     **** GLL Z 20
@<TRIPOS>SET

