#    Name: 2zif_SAM_1_ligand
#    Modification time : Tue Mar 25 10:46:26 2014

@<TRIPOS>MOLECULE
2zif_SAM_1_ligand
   50    52     1     0     0
SMALL
NO_CHARGES


@<TRIPOS>ATOM
      1 N          20.8660   24.8210   74.5340 N.4       1 SAM298      0.0000 
      2 CA         19.5740   25.3540   74.9840 C.3       1 SAM298      0.0000 
      3 C          18.9710   24.5510   76.1480 C.2       1 SAM298      0.0000 
      4 O          17.8670   24.8870   76.5870 O.co2     1 SAM298      0.0000 
      5 OXT        19.6340   23.6070   76.5930 O.co2     1 SAM298      0.0000 
      6 CB         18.5250   25.3690   73.8410 C.3       1 SAM298      0.0000 
      7 CG         17.4130   26.3820   73.1220 C.3       1 SAM298      0.0000 
      8 SD         16.5250   25.9000   71.5850 S.3       1 SAM298      0.0000 
      9 CE         17.8460   25.7190   70.3450 C.3       1 SAM298      0.0000 
     10 C5'        15.5520   27.3490   71.1220 C.3       1 SAM298      0.0000 
     11 C4'        14.3400   27.6230   72.0270 C.3       1 SAM298      0.0000 
     12 O4'        13.6610   28.7960   71.6280 O.3       1 SAM298      0.0000 
     13 C3'        13.2810   26.5040   72.0860 C.3       1 SAM298      0.0000 
     14 O3'        13.2050   25.8890   73.3660 O.3       1 SAM298      0.0000 
     15 C2'        12.0230   27.1670   71.5290 C.3       1 SAM298      0.0000 
     16 O2'        10.8520   26.8110   72.2670 O.3       1 SAM298      0.0000 
     17 C1'        12.2790   28.6460   71.8320 C.3       1 SAM298      0.0000 
     18 N9         11.6400   29.6250   70.9350 N.pl3     1 SAM298      0.0000 
     19 C8         11.2300   29.6480   69.6440 C.2       1 SAM298      0.0000 
     20 N7         10.7800   30.8450   69.2470 N.2       1 SAM298      0.0000 
     21 C5         10.8990   31.6840   70.3580 C.ar      1 SAM298      0.0000 
     22 C6         10.6470   33.0130   70.6820 C.ar      1 SAM298      0.0000 
     23 N6         10.1360   33.8840   69.7740 N.pl3     1 SAM298      0.0000 
     24 N1         10.9100   33.4980   71.9460 N.ar      1 SAM298      0.0000 
     25 C2         11.4190   32.6720   72.8860 C.ar      1 SAM298      0.0000 
     26 N3         11.6930   31.3730   72.6540 N.ar      1 SAM298      0.0000 
     27 C4         11.4330   30.9070   71.4040 C.ar      1 SAM298      0.0000 
     28 H          19.6795   26.3855   75.3233 H         1 SAM298      0.0000 
     29 H          17.8624   24.3454   73.9945 H         1 SAM298      0.0000 
     30 H          19.1047   24.9051   72.8617 H         1 SAM298      0.0000 
     31 H          17.8928   27.3284   72.8510 H         1 SAM298      0.0000 
     32 H          16.6022   26.6024   73.8243 H         1 SAM298      0.0000 
     33 H          15.2753   27.1298   70.1006 H         1 SAM298      0.0000 
     34 H          16.2853   28.1424   71.1468 H         1 SAM298      0.0000 
     35 H          14.7125   27.7557   73.0584 H         1 SAM298      0.0000 
     36 H          13.6109   25.7787   71.3039 H         1 SAM298      0.0000 
     37 H          11.9640   27.0400   70.5099 H         1 SAM298      0.0000 
     38 H          12.0368   28.8376   72.8528 H         1 SAM298      0.0000 
     39 H          11.2635   28.8437   69.0511 H         1 SAM298      0.0000 
     40 H          10.6909   34.0448   68.9578 H         1 SAM298      0.0000 
     41 H           9.2500   34.2877   70.0018 H         1 SAM298      0.0000 
     42 H          11.6121   33.0667   73.8543 H         1 SAM298      0.0000 
     43 H          21.2456   25.3556   73.7789 H         1 SAM298      0.0000 
     44 H          21.5457   24.8261   75.2675 H         1 SAM298      0.0000 
     45 H          20.7871   23.8768   74.2141 H         1 SAM298      0.0000 
     46 H          18.3525   26.5714   70.2148 H         1 SAM298      0.0000 
     47 H          18.5108   25.0206   70.6099 H         1 SAM298      0.0000 
     48 H          17.4830   25.4543   69.4516 H         1 SAM298      0.0000 
     49 H          13.1349   26.6476   74.0137 H         1 SAM298      0.0000 
     50 H          10.9255   27.3148   73.1277 H         1 SAM298      0.0000 
@<TRIPOS>BOND
     1    2    1 1    
     2   43    1 1    
     3   44    1 1    
     4   45    1 1    
     5    3    2 1    
     6    6    2 1    
     7   28    2 1    
     8    4    3 ar   
     9    5    3 ar   
    10    7    6 1    
    11   29    6 1    
    12   30    6 1    
    13    8    7 1    
    14   31    7 1    
    15   32    7 1    
    16    9    8 1    
    17   10    8 1    
    18   46    9 1    
    19   47    9 1    
    20   48    9 1    
    21   11   10 1    
    22   33   10 1    
    23   34   10 1    
    24   12   11 1    
    25   13   11 1    
    26   35   11 1    
    27   17   12 1    
    28   14   13 1    
    29   15   13 1    
    30   36   13 1    
    31   49   14 1    
    32   16   15 1    
    33   17   15 1    
    34   37   15 1    
    35   50   16 1    
    36   18   17 1    
    37   38   17 1    
    38   19   18 1    
    39   27   18 1    
    40   20   19 2    
    41   39   19 1    
    42   21   20 1    
    43   22   21 ar   
    44   27   21 ar   
    45   23   22 1    
    46   24   22 ar   
    47   40   23 1    
    48   41   23 1    
    49   25   24 ar   
    50   26   25 ar   
    51   42   25 1    
    52   27   26 ar   
@<TRIPOS>SUBSTRUCTURE
     1 SAM298      1 GROUP   
@<TRIPOS>SET

