#    Name: 2HP2_1_CAVITY_N1_ALL.mol2
#    Modification time : Mon Mar 10 17:28:56 2014

@<TRIPOS>MOLECULE
2HP2_1_CAVITY_N1_ALL.mol2
  172     0     7     0     0
SMALL
NO_CHARGES


@<TRIPOS>ATOM
      1 CZ         18.8391   25.1001   44.2574 C.ar      5 PHE5        0.0000 
      2 CZ         19.8949   24.0678   44.5215 C.ar      5 PHE5        0.0000 
      3 OG         20.9506   23.0355   44.7856 O.2       1 SER1        0.0000 
      4 OG         18.7557   28.6750   41.5256 O.2       1 SER1        0.0000 
      5 CA         17.6943   27.6893   41.9153 C.3       6 GLY6        0.0000 
      6 OG         18.7501   26.6570   42.1794 O.2       1 SER1        0.0000 
      7 CA         20.8616   24.5924   42.7076 C.3       6 GLY6        0.0000 
      8 N          21.9173   23.5601   42.9717 N.2       2 ALA2        0.0000 
      9 CZ         18.7445   24.6389   42.8332 C.ar      5 PHE5        0.0000 
     10 CZ         19.8002   23.6066   43.0973 C.ar      5 PHE5        0.0000 
     11 N          20.8560   22.5743   43.3614 N.2       2 ALA2        0.0000 
     12 N          21.9117   21.5420   43.6254 N.2       2 ALA2        0.0000 
     13 OG         18.7389   22.6209   43.4870 O.2       1 SER1        0.0000 
     14 OG         19.7946   21.5886   43.7511 O.2       1 SER1        0.0000 
     15 CZ         20.8504   20.5563   44.0151 C.ar      5 PHE5        0.0000 
     16 CA         21.9061   19.5240   44.2792 C.3       6 GLY6        0.0000 
     17 OG         18.7333   20.6028   44.1407 O.2       1 SER1        0.0000 
     18 CZ         19.7890   19.5705   44.4048 C.ar      5 PHE5        0.0000 
     19 CA         20.8448   18.5382   44.6689 C.3       6 GLY6        0.0000 
     20 OG         17.6720   19.6171   44.5304 O.2       1 SER1        0.0000 
     21 CZ         18.7277   18.5848   44.7945 C.ar      5 PHE5        0.0000 
     22 OG         17.6053   29.2462   39.8373 O.2       1 SER1        0.0000 
     23 OG         18.6610   28.2139   40.1014 O.2       1 SER1        0.0000 
     24 OG         19.7168   27.1816   40.3655 O.2       1 SER1        0.0000 
     25 NZ         20.7725   26.1493   40.6296 N.2       4 LYS4        0.0000 
     26 CA         16.5439   28.2605   40.2270 C.3       6 GLY6        0.0000 
     27 DU         17.5997   27.2282   40.4911 H         7 CUB7        0.0000 
     28 DU         18.6554   26.1959   40.7552 H         7 CUB7        0.0000 
     29 DU         19.7112   25.1635   41.0193 H         7 CUB7        0.0000 
     30 NZ         20.7669   24.1312   41.2834 N.2       4 LYS4        0.0000 
     31 N          21.8227   23.0989   41.5474 N.2       2 ALA2        0.0000 
     32 DU         19.7056   23.1455   41.6731 H         7 CUB7        0.0000 
     33 N          20.7613   22.1132   41.9371 N.2       2 ALA2        0.0000 
     34 N          21.8171   21.0809   42.2012 N.2       2 ALA2        0.0000 
     35 DU         18.6443   22.1597   42.0627 H         7 CUB7        0.0000 
     36 DU         19.7000   21.1274   42.3268 H         7 CUB7        0.0000 
     37 DU         20.7557   20.0951   42.5909 H         7 CUB7        0.0000 
     38 N          21.8115   19.0628   42.8550 N.2       2 ALA2        0.0000 
     39 DU         18.6387   20.1417   42.7165 H         7 CUB7        0.0000 
     40 DU         19.6944   19.1094   42.9806 H         7 CUB7        0.0000 
     41 O          20.7502   18.0771   43.2447 O.2       2 ALA2        0.0000 
     42 DU         17.5773   19.1559   43.1062 H         7 CUB7        0.0000 
     43 DU         18.6331   18.1236   43.3703 H         7 CUB7        0.0000 
     44 O          19.6888   17.0913   43.6344 O.2       2 ALA2        0.0000 
     45 CA         17.5106   28.7851   38.4131 C.3       6 GLY6        0.0000 
     46 CA         18.5664   27.7528   38.6772 C.3       6 GLY6        0.0000 
     47 CA         19.6221   26.7205   38.9413 C.3       6 GLY6        0.0000 
     48 NZ         20.6779   25.6882   39.2054 N.2       4 LYS4        0.0000 
     49 DU         16.4493   27.7993   38.8028 H         7 CUB7        0.0000 
     50 DU         17.5051   26.7670   39.0669 H         7 CUB7        0.0000 
     51 DU         18.5608   25.7347   39.3310 H         7 CUB7        0.0000 
     52 DU         19.6165   24.7024   39.5951 H         7 CUB7        0.0000 
     53 NZ         20.6723   23.6701   39.8591 N.2       4 LYS4        0.0000 
     54 NZ         21.7280   22.6378   40.1232 N.2       4 LYS4        0.0000 
     55 N          22.7838   21.6055   40.3873 N.2       2 ALA2        0.0000 
     56 DU         19.6110   22.6844   40.2488 H         7 CUB7        0.0000 
     57 DU         20.6667   21.6520   40.5129 H         7 CUB7        0.0000 
     58 N          21.7224   20.6197   40.7770 N.2       2 ALA2        0.0000 
     59 DU         20.6611   19.6340   41.1667 H         7 CUB7        0.0000 
     60 N          21.7169   18.6017   41.4308 N.2       2 ALA2        0.0000 
     61 DU         19.5998   18.6482   41.5564 H         7 CUB7        0.0000 
     62 N          20.6555   17.6159   41.8205 N.2       2 ALA2        0.0000 
     63 DU         17.4827   18.6948   41.6820 H         7 CUB7        0.0000 
     64 DU         19.5942   16.6302   42.2102 H         7 CUB7        0.0000 
     65 CA         21.6446   26.2128   37.3914 C.3       6 GLY6        0.0000 
     66 CA         19.5275   26.2593   37.5171 C.3       6 GLY6        0.0000 
     67 NZ         20.5832   25.2270   37.7811 N.2       4 LYS4        0.0000 
     68 NZ         21.6390   24.1947   38.0452 N.2       4 LYS4        0.0000 
     69 NZ         22.6947   23.1624   38.3093 N.2       4 LYS4        0.0000 
     70 O          16.3547   27.3382   37.3786 O.2       2 ALA2        0.0000 
     71 O          17.4104   26.3059   37.6427 O.2       2 ALA2        0.0000 
     72 OG         19.5219   24.2413   38.1708 O.2       1 SER1        0.0000 
     73 OG         20.5777   23.2090   38.4349 O.2       1 SER1        0.0000 
     74 OG         21.6334   22.1767   38.6990 O.2       1 SER1        0.0000 
     75 CZ         22.6891   21.1444   38.9631 C.ar      5 PHE5        0.0000 
     76 CA         15.2933   26.3524   37.7683 C.3       6 GLY6        0.0000 
     77 CA         16.3491   25.3201   38.0324 C.3       6 GLY6        0.0000 
     78 OG         19.5163   22.2232   38.8246 O.2       1 SER1        0.0000 
     79 OG         20.5721   21.1909   39.0887 O.2       1 SER1        0.0000 
     80 CZ         21.6278   20.1586   39.3528 C.ar      5 PHE5        0.0000 
     81 DU         14.2320   25.3667   38.1580 H         7 CUB7        0.0000 
     82 CZ         18.4550   21.2375   39.2143 C.ar      5 PHE5        0.0000 
     83 DU         19.5107   20.2052   39.4784 H         7 CUB7        0.0000 
     84 CZ         20.5665   19.1729   39.7425 C.ar      5 PHE5        0.0000 
     85 CZ         21.6222   18.1406   40.0066 C.ar      5 PHE5        0.0000 
     86 DU         17.3936   20.2517   39.6040 H         7 CUB7        0.0000 
     87 DU         18.4494   19.2194   39.8681 H         7 CUB7        0.0000 
     88 DU         19.5051   18.1871   40.1322 H         7 CUB7        0.0000 
     89 N          20.5609   17.1548   40.3963 N.2       2 ALA2        0.0000 
     90 DU         16.3323   19.2660   39.9937 H         7 CUB7        0.0000 
     91 DU         17.3880   18.2337   40.2578 H         7 CUB7        0.0000 
     92 DU         18.4438   17.2014   40.5219 H         7 CUB7        0.0000 
     93 N          19.4995   16.1691   40.7860 N.2       2 ALA2        0.0000 
     94 CZ         24.7284   26.6908   35.4519 C.ar      5 PHE5        0.0000 
     95 CZ         25.7841   25.6585   35.7160 C.ar      5 PHE5        0.0000 
     96 OD1        26.8399   24.6262   35.9801 O.3       3 ASP3        0.0000 
     97 CA         22.6113   26.7374   35.5775 C.3       6 GLY6        0.0000 
     98 NZ         23.6670   25.7051   35.8416 N.2       4 LYS4        0.0000 
     99 O          24.7228   24.6728   36.1057 O.2       2 ALA2        0.0000 
    100 O          25.7785   23.6405   36.3698 O.2       2 ALA2        0.0000 
    101 CA         21.5500   25.7516   35.9672 C.3       6 GLY6        0.0000 
    102 NZ         22.6057   24.7193   36.2313 N.2       4 LYS4        0.0000 
    103 O          23.6614   23.6870   36.4954 O.2       2 ALA2        0.0000 
    104 O          19.4329   25.7982   36.0928 O.2       2 ALA2        0.0000 
    105 OG         20.4886   24.7659   36.3569 O.2       1 SER1        0.0000 
    106 OG         21.5444   23.7336   36.6210 O.2       1 SER1        0.0000 
    107 OG         22.6001   22.7013   36.8851 O.2       1 SER1        0.0000 
    108 CA         18.3715   24.8124   36.4825 C.3       6 GLY6        0.0000 
    109 OG         21.5388   21.7155   37.2748 O.2       1 SER1        0.0000 
    110 CA         15.1987   25.8913   36.3440 C.3       6 GLY6        0.0000 
    111 CA         16.2544   24.8590   36.6081 C.3       6 GLY6        0.0000 
    112 CZ         17.3102   23.8267   36.8722 C.ar      5 PHE5        0.0000 
    113 CA         14.1374   24.9056   36.7337 C.3       6 GLY6        0.0000 
    114 CZ         15.1931   23.8733   36.9978 C.ar      5 PHE5        0.0000 
    115 CA         13.0760   23.9198   37.1234 C.3       6 GLY6        0.0000 
    116 CZ         17.2990   19.7906   38.1798 C.ar      5 PHE5        0.0000 
    117 CZ         18.3547   18.7583   38.4439 C.ar      5 PHE5        0.0000 
    118 CZ         19.4105   17.7260   38.7080 C.ar      5 PHE5        0.0000 
    119 CZ         20.4662   16.6937   38.9721 C.ar      5 PHE5        0.0000 
    120 CZ         16.2377   18.8048   38.5695 C.ar      5 PHE5        0.0000 
    121 CZ         17.2934   17.7725   38.8336 C.ar      5 PHE5        0.0000 
    122 N          18.3492   16.7402   39.0977 N.2       2 ALA2        0.0000 
    123 N          19.4049   15.7079   39.3617 N.2       2 ALA2        0.0000 
    124 CA         26.7508   26.1831   33.9021 C.3       6 GLY6        0.0000 
    125 CZ         24.6337   26.2297   34.0277 C.ar      5 PHE5        0.0000 
    126 CA         25.6895   25.1974   34.2918 C.3       6 GLY6        0.0000 
    127 OD1        26.7452   24.1651   34.5559 O.3       3 ASP3        0.0000 
    128 CA         22.5167   26.2762   34.1533 C.3       6 GLY6        0.0000 
    129 DU         23.5724   25.2439   34.4174 H         7 CUB7        0.0000 
    130 DU         24.6281   24.2116   34.6815 H         7 CUB7        0.0000 
    131 O          25.6839   23.1793   34.9456 O.2       2 ALA2        0.0000 
    132 OD1        26.7396   22.1470   35.2097 O.3       3 ASP3        0.0000 
    133 OG         21.4553   25.2905   34.5430 O.2       1 SER1        0.0000 
    134 OG         22.5111   24.2582   34.8071 O.2       1 SER1        0.0000 
    135 CZ         23.5668   23.2259   35.0712 C.ar      5 PHE5        0.0000 
    136 CZ         24.6226   22.1936   35.3353 C.ar      5 PHE5        0.0000 
    137 OG         20.3940   24.3047   34.9327 O.2       1 SER1        0.0000 
    138 CZ         22.5055   22.2401   35.4609 C.ar      5 PHE5        0.0000 
    139 CZ         15.0985   23.4121   35.5736 C.ar      5 PHE5        0.0000 
    140 CZ         14.0371   22.4264   35.9633 C.ar      5 PHE5        0.0000 
    141 CZ         19.3159   17.2648   37.2837 C.ar      5 PHE5        0.0000 
    142 CZ         17.1988   17.3114   37.4094 C.ar      5 PHE5        0.0000 
    143 N          18.2545   16.2791   37.6734 N.2       2 ALA2        0.0000 
    144 CA         24.5391   25.7685   32.6035 C.3       6 GLY6        0.0000 
    145 OG         25.5948   24.7362   32.8676 O.2       1 SER1        0.0000 
    146 OG         23.4778   24.7828   32.9932 O.2       1 SER1        0.0000 
    147 OG         24.5335   23.7505   33.2573 O.2       1 SER1        0.0000 
    148 OG         25.5893   22.7182   33.5214 O.2       1 SER1        0.0000 
    149 OG         26.6450   21.6859   33.7855 O.2       1 SER1        0.0000 
    150 OD1        27.7007   20.6536   34.0495 O.3       3 ASP3        0.0000 
    151 CA         28.7565   19.6213   34.3136 C.3       6 GLY6        0.0000 
    152 CA         22.4164   23.7970   33.3829 C.3       6 GLY6        0.0000 
    153 CZ         23.4722   22.7647   33.6470 C.ar      5 PHE5        0.0000 
    154 CZ         26.6394   19.6678   34.4392 C.ar      5 PHE5        0.0000 
    155 N          27.6952   18.6355   34.7033 N.2       2 ALA2        0.0000 
    156 CA         28.6674   21.1782   32.2356 C.3       6 GLY6        0.0000 
    157 OG         26.5504   21.2247   32.3612 O.2       1 SER1        0.0000 
    158 CA         27.6061   20.1924   32.6253 C.3       6 GLY6        0.0000 
    159 CA         28.6619   19.1601   32.8894 C.3       6 GLY6        0.0000 
    160 CZ         24.4333   21.2713   32.4868 C.ar      5 PHE5        0.0000 
    161 CZ         25.4890   20.2390   32.7509 C.ar      5 PHE5        0.0000 
    162 CZ         26.5448   19.2067   33.0150 C.ar      5 PHE5        0.0000 
    163 O          27.6005   18.1744   33.2791 O.2       2 ALA2        0.0000 
    164 O          28.5728   20.7170   30.8114 O.2       2 ALA2        0.0000 
    165 OG         26.4557   20.7636   30.9370 O.2       1 SER1        0.0000 
    166 CA         27.5115   19.7313   31.2011 C.3       6 GLY6        0.0000 
    167 OG         24.3386   20.8102   31.0626 O.2       1 SER1        0.0000 
    168 OG         25.3944   19.7779   31.3267 O.2       1 SER1        0.0000 
    169 O          26.4501   18.7455   31.5908 O.2       2 ALA2        0.0000 
    170 OG         27.4224   21.2882   29.1231 O.2       1 SER1        0.0000 
    171 O          25.3053   21.3348   29.2487 O.2       2 ALA2        0.0000 
    172 O          26.3611   20.3025   29.5128 O.2       2 ALA2        0.0000 
@<TRIPOS>BOND
@<TRIPOS>SUBSTRUCTURE
     1 SER1        3 GROUP   
     2 ALA2        8 GROUP   
     3 ASP3       96 GROUP   
     4 LYS4       25 GROUP   
     5 PHE5        1 GROUP   
     6 GLY6        5 GROUP   
     7 CUB7       27 GROUP   
@<TRIPOS>SET

