#    Name: 2HP2_1_CAVITY_N1_6.mol2
#    Modification time : Mon Mar 10 17:28:56 2014

@<TRIPOS>MOLECULE
2HP2_1_CAVITY_N1_6.mol2
   71     0     7     0     0
SMALL
NO_CHARGES


@<TRIPOS>ATOM
      1 NZ         20.6779   25.6882   39.2054 N.2       4 LYS4        0.0000 
      2 CA         21.6446   26.2128   37.3914 C.3       6 GLY6        0.0000 
      3 CA         19.5275   26.2593   37.5171 C.3       6 GLY6        0.0000 
      4 NZ         20.5832   25.2270   37.7811 N.2       4 LYS4        0.0000 
      5 NZ         21.6390   24.1947   38.0452 N.2       4 LYS4        0.0000 
      6 NZ         22.6947   23.1624   38.3093 N.2       4 LYS4        0.0000 
      7 OG         19.5219   24.2413   38.1708 O.2       1 SER1        0.0000 
      8 OG         20.5777   23.2090   38.4349 O.2       1 SER1        0.0000 
      9 OG         21.6334   22.1767   38.6990 O.2       1 SER1        0.0000 
     10 CZ         22.6891   21.1444   38.9631 C.ar      5 PHE5        0.0000 
     11 CZ         24.7284   26.6908   35.4519 C.ar      5 PHE5        0.0000 
     12 CZ         25.7841   25.6585   35.7160 C.ar      5 PHE5        0.0000 
     13 OD1        26.8399   24.6262   35.9801 O.3       3 ASP3        0.0000 
     14 CA         22.6113   26.7374   35.5775 C.3       6 GLY6        0.0000 
     15 NZ         23.6670   25.7051   35.8416 N.2       4 LYS4        0.0000 
     16 O          24.7228   24.6728   36.1057 O.2       2 ALA2        0.0000 
     17 O          25.7785   23.6405   36.3698 O.2       2 ALA2        0.0000 
     18 CA         21.5500   25.7516   35.9672 C.3       6 GLY6        0.0000 
     19 NZ         22.6057   24.7193   36.2313 N.2       4 LYS4        0.0000 
     20 O          23.6614   23.6870   36.4954 O.2       2 ALA2        0.0000 
     21 O          19.4329   25.7982   36.0928 O.2       2 ALA2        0.0000 
     22 OG         20.4886   24.7659   36.3569 O.2       1 SER1        0.0000 
     23 OG         21.5444   23.7336   36.6210 O.2       1 SER1        0.0000 
     24 OG         22.6001   22.7013   36.8851 O.2       1 SER1        0.0000 
     25 CA         18.3715   24.8124   36.4825 C.3       6 GLY6        0.0000 
     26 OG         21.5388   21.7155   37.2748 O.2       1 SER1        0.0000 
     27 CZ         17.3102   23.8267   36.8722 C.ar      5 PHE5        0.0000 
     28 CA         26.7508   26.1831   33.9021 C.3       6 GLY6        0.0000 
     29 CZ         24.6337   26.2297   34.0277 C.ar      5 PHE5        0.0000 
     30 CA         25.6895   25.1974   34.2918 C.3       6 GLY6        0.0000 
     31 OD1        26.7452   24.1651   34.5559 O.3       3 ASP3        0.0000 
     32 CA         22.5167   26.2762   34.1533 C.3       6 GLY6        0.0000 
     33 DU         23.5724   25.2439   34.4174 H         7 CUB7        0.0000 
     34 DU         24.6281   24.2116   34.6815 H         7 CUB7        0.0000 
     35 O          25.6839   23.1793   34.9456 O.2       2 ALA2        0.0000 
     36 OD1        26.7396   22.1470   35.2097 O.3       3 ASP3        0.0000 
     37 OG         21.4553   25.2905   34.5430 O.2       1 SER1        0.0000 
     38 OG         22.5111   24.2582   34.8071 O.2       1 SER1        0.0000 
     39 CZ         23.5668   23.2259   35.0712 C.ar      5 PHE5        0.0000 
     40 CZ         24.6226   22.1936   35.3353 C.ar      5 PHE5        0.0000 
     41 OG         20.3940   24.3047   34.9327 O.2       1 SER1        0.0000 
     42 CZ         22.5055   22.2401   35.4609 C.ar      5 PHE5        0.0000 
     43 CA         24.5391   25.7685   32.6035 C.3       6 GLY6        0.0000 
     44 OG         25.5948   24.7362   32.8676 O.2       1 SER1        0.0000 
     45 OG         23.4778   24.7828   32.9932 O.2       1 SER1        0.0000 
     46 OG         24.5335   23.7505   33.2573 O.2       1 SER1        0.0000 
     47 OG         25.5893   22.7182   33.5214 O.2       1 SER1        0.0000 
     48 OG         26.6450   21.6859   33.7855 O.2       1 SER1        0.0000 
     49 OD1        27.7007   20.6536   34.0495 O.3       3 ASP3        0.0000 
     50 CA         28.7565   19.6213   34.3136 C.3       6 GLY6        0.0000 
     51 CA         22.4164   23.7970   33.3829 C.3       6 GLY6        0.0000 
     52 CZ         23.4722   22.7647   33.6470 C.ar      5 PHE5        0.0000 
     53 CZ         26.6394   19.6678   34.4392 C.ar      5 PHE5        0.0000 
     54 N          27.6952   18.6355   34.7033 N.2       2 ALA2        0.0000 
     55 CA         28.6674   21.1782   32.2356 C.3       6 GLY6        0.0000 
     56 OG         26.5504   21.2247   32.3612 O.2       1 SER1        0.0000 
     57 CA         27.6061   20.1924   32.6253 C.3       6 GLY6        0.0000 
     58 CA         28.6619   19.1601   32.8894 C.3       6 GLY6        0.0000 
     59 CZ         24.4333   21.2713   32.4868 C.ar      5 PHE5        0.0000 
     60 CZ         25.4890   20.2390   32.7509 C.ar      5 PHE5        0.0000 
     61 CZ         26.5448   19.2067   33.0150 C.ar      5 PHE5        0.0000 
     62 O          27.6005   18.1744   33.2791 O.2       2 ALA2        0.0000 
     63 O          28.5728   20.7170   30.8114 O.2       2 ALA2        0.0000 
     64 OG         26.4557   20.7636   30.9370 O.2       1 SER1        0.0000 
     65 CA         27.5115   19.7313   31.2011 C.3       6 GLY6        0.0000 
     66 OG         24.3386   20.8102   31.0626 O.2       1 SER1        0.0000 
     67 OG         25.3944   19.7779   31.3267 O.2       1 SER1        0.0000 
     68 O          26.4501   18.7455   31.5908 O.2       2 ALA2        0.0000 
     69 OG         27.4224   21.2882   29.1231 O.2       1 SER1        0.0000 
     70 O          25.3053   21.3348   29.2487 O.2       2 ALA2        0.0000 
     71 O          26.3611   20.3025   29.5128 O.2       2 ALA2        0.0000 
@<TRIPOS>BOND
@<TRIPOS>SUBSTRUCTURE
     1 SER1        7 GROUP   
     2 ALA2       16 GROUP   
     3 ASP3       13 GROUP   
     4 LYS4        1 GROUP   
     5 PHE5       10 GROUP   
     6 GLY6        2 GROUP   
     7 CUB7       33 GROUP   
@<TRIPOS>SET

