#    Name: 2hp2_KE4_1_INTS_M
#    Modification time : Tue Mar 25 16:53:26 2014

@<TRIPOS>MOLECULE
2hp2_KE4_1_INTS_M
   74     0    12     0     0
SMALL
NO_CHARGES


@<TRIPOS>ATOM
      1 N          28.1665   19.8535   28.9810 N.am      2 SEC2        0.0000 
      2 N          27.5710   21.1910   29.4390 N.am     10 SEL2        0.0000 
      3 N          28.7620   18.5160   28.5230 N.am      6 SEP2        0.0000 
      4 N          26.2240   18.1620   29.4380 N.am      2 SEC2        0.0000 
      5 N          25.7390   19.4540   29.4920 N.am     10 SEL2        0.0000 
      6 N          26.7090   16.8700   29.3840 N.am      6 SEP2        0.0000 
      7 N          24.8290   18.4870   29.6495 N.am      2 SEC2        0.0000 
      8 N          23.9190   17.5200   29.8070 N.am      6 SEP2        0.0000 
      9 N          24.9555   22.7020   29.9275 N.am      2 SEC2        0.0000 
     10 N          25.2470   21.2920   30.6410 N.am     10 SEL2        0.0000 
     11 N          24.6640   24.1120   29.2140 N.am      6 SEP2        0.0000 
     12 N          25.9625   22.4005   30.7880 N.am      2 SEC2        0.0000 
     13 N          26.6780   23.5090   30.9350 N.am      6 SEP2        0.0000 
     14 CA         27.7055   18.4950   31.1590 C.3       4 GLC5        0.0000 
     15 CA         26.4330   19.2910   32.6200 C.3      12 GLL5        0.0000 
     16 CA         28.9780   17.6990   29.6980 C.3       8 GLP5        0.0000 
     17 CA         25.0300   19.5585   33.8985 C.3       4 GLC5        0.0000 
     18 CA         23.6270   19.8260   35.1770 C.3       8 GLP5        0.0000 
     19 CA         24.9900   17.9775   32.9110 C.3       4 GLC5        0.0000 
     20 CA         23.5470   16.6640   33.2020 C.3       8 GLP5        0.0000 
     21 CA         28.2970   16.0320   33.7035 C.3       4 GLC5        0.0000 
     22 CA         27.8810   17.9620   34.0940 C.3      12 GLL5        0.0000 
     23 CA         28.7130   14.1020   33.3130 C.3       8 GLP5        0.0000 
     24 CA         26.9285   16.6085   34.9195 C.3       4 GLC5        0.0000 
     25 CA         25.9760   15.2550   35.7450 C.3       8 GLP5        0.0000 
     26 CA         29.7745   17.6945   33.4650 C.3       4 GLC5        0.0000 
     27 CA         31.6680   17.4270   32.8360 C.3       8 GLP5        0.0000 
     28 N          29.1425   16.6595   35.6410 N.am      2 SEC2        0.0000 
     29 N          28.7210   17.8320   35.1760 N.am     10 SEL2        0.0000 
     30 N          29.5640   15.4870   36.1060 N.am      6 SEP2        0.0000 
     31 CA         30.1120   17.9535   38.9605 C.3       4 GLC5        0.0000 
     32 CA         29.9950   18.6790   37.1840 C.3      12 GLL5        0.0000 
     33 CA         30.2290   17.2280   40.7370 C.3       8 GLP5        0.0000 
     34 CA         31.2230   20.4125   37.2335 C.3       4 GLC5        0.0000 
     35 CA         32.4510   22.1460   37.2830 C.3       8 GLP5        0.0000 
     36 CA         29.1060   21.9570   36.8800 C.3       4 GLC5        0.0000 
     37 CA         28.5130   20.1820   35.7130 C.3      12 GLL5        0.0000 
     38 CA         29.6990   23.7320   38.0470 C.3       8 GLP5        0.0000 
     39 O          28.2375   21.1600   37.8065 O.2       1 ALC1        0.0000 
     40 O          28.8310   21.2790   36.5220 O.2       9 ALL1        0.0000 
     41 O          27.6440   21.0410   39.0910 O.2       5 ALP1        0.0000 
     42 CA         25.6975   20.6485   35.2640 C.3       4 GLC5        0.0000 
     43 CA         27.0050   21.6780   34.2160 C.3      12 GLL5        0.0000 
     44 CA         24.3900   19.6190   36.3120 C.3       8 GLP5        0.0000 
     45 CA         27.0390   24.8610   32.7900 C.3       4 GLC5        0.0000 
     46 CA         26.4650   23.9890   34.6150 C.3      12 GLL5        0.0000 
     47 CA         27.6130   25.7330   30.9650 C.3       8 GLP5        0.0000 
     48 CA         26.7760   27.0040   35.7775 C.3       4 GLC5        0.0000 
     49 CA         26.7870   25.2700   35.4000 C.3      12 GLL5        0.0000 
     50 CA         26.7650   28.7380   36.1550 C.3       8 GLP5        0.0000 
     51 CA         28.2430   24.5010   36.7235 C.3       4 GLC5        0.0000 
     52 OD1        26.4810   25.6140   38.0390 O.co2     3 ASC3        0.0000 
     53 OD1        27.1140   24.9730   36.7950 O.co2    11 ASL3        0.0000 
     54 OD1        25.8480   26.2550   39.2830 O.co2     7 ASP3        0.0000 
     55 O          26.4810   25.6140   38.0390 O.2       1 ALC1        0.0000 
     56 O          27.1140   24.9730   36.7950 O.2       9 ALL1        0.0000 
     57 O          25.8480   26.2550   39.2830 O.2       5 ALP1        0.0000 
     58 CA         26.1250   24.3055   31.8275 C.3       4 GLC5        0.0000 
     59 CA         25.3270   23.9500   33.5330 C.3      12 GLL5        0.0000 
     60 CA         26.9230   24.6610   30.1220 C.3       8 GLP5        0.0000 
     61 CA         26.1355   25.5230   32.0890 C.3       4 GLC5        0.0000 
     62 CA         24.6580   25.3130   33.2130 C.3      12 GLL5        0.0000 
     63 N          21.6010   26.1405   32.3055 N.am      2 SEC2        0.0000 
     64 N          22.5630   26.4690   33.4000 N.am     10 SEL2        0.0000 
     65 N          20.6390   25.8120   31.2110 N.am      6 SEP2        0.0000 
     66 CA         30.7010   18.7745   35.0588 C.3       4 GLC5        0.0000 
     67 CA         29.0490   18.9190   35.9930 C.3      12 GLL5        0.0000 
     68 CA         31.8800   18.7500   33.5290 C.3       8 GLP5        0.0000 
     69 CA         29.6734   19.9141   33.8061 C.3       4 GLC5        0.0000 
     70 CA         31.3450   19.8600   32.6580 C.3       8 GLP5        0.0000 
     71 CA         28.6595   22.3140   33.7613 C.3       4 GLC5        0.0000 
     72 CA         27.6410   20.3180   34.5930 C.3      12 GLL5        0.0000 
     73 CA         29.9960   23.6300   33.1180 C.3       8 GLP5        0.0000 
     74 CA         28.3110   24.1298   34.0628 C.3       4 GLC5        0.0000 
@<TRIPOS>BOND
@<TRIPOS>SUBSTRUCTURE
     1 ALC1       39 GROUP        1 X    ALC  0     ROOT ALC X 1
     2 SEC2        1 GROUP        1 X    SEC  0     **** SEC X 2
     3 ASC3       52 GROUP        1 X    ASC  0     **** ASC X 3
     4 GLC5       14 GROUP        1 X    GLC  0     **** GLC X 6
     5 ALP1       41 GROUP        1 Y    ALP  0     ROOT ALP Y 8
     6 SEP2        3 GROUP        1 Y    SEP  0     **** SEP Y 9
     7 ASP3       54 GROUP        1 Y    ASP  0     **** ASP Y 10
     8 GLP5       16 GROUP        1 Y    GLP  0     **** GLP Y 13
     9 ALL1       40 GROUP        1 Z    ALL  0     ROOT ALL Z 15
    10 SEL2        2 GROUP        1 Z    SEL  0     **** SEL Z 16
    11 ASL3       53 GROUP        1 Z    ASL  0     **** ASL Z 17
    12 GLL5       15 GROUP        1 Z    GLL  0     **** GLL Z 20
@<TRIPOS>SET

