#    Name: 2hp2_KE4_1_ligand
#    Modification time : Tue Mar 25 16:53:26 2014

@<TRIPOS>MOLECULE
2hp2_KE4_1_ligand
   43    43     1     0     0
SMALL
NO_CHARGES


@<TRIPOS>ATOM
      1 P          26.4910   20.5870   30.2750 P.3       1 KE45000     0.0000 
      2 OP1        27.5710   21.1910   29.4390 O.co2     1 KE45000     0.0000 
      3 OP2        25.7390   19.4540   29.4920 O.co2     1 KE45000     0.0000 
      4 OP3        25.2470   21.2920   30.6410 O.co2     1 KE45000     0.0000 
      5 OP4        27.1600   19.9780   31.5670 O.3       1 KE45000     0.0000 
      6 C5A        26.4330   19.2910   32.6200 C.3       1 KE45000     0.0000 
      7 C5         27.3400   19.1910   33.7980 C.ar      1 KE45000     0.0000 
      8 C6         27.8810   17.9620   34.0940 C.ar      1 KE45000     0.0000 
      9 N1         28.7210   17.8320   35.1760 N.ar      1 KE45000     0.0000 
     10 C2         29.0490   18.9190   35.9930 C.ar      1 KE45000     0.0000 
     11 C2A        29.9950   18.6790   37.1840 C.3       1 KE45000     0.0000 
     12 C3         28.5130   20.1820   35.7130 C.ar      1 KE45000     0.0000 
     13 O3         28.8310   21.2790   36.5220 O.3       1 KE45000     0.0000 
     14 C4         27.6410   20.3180   34.5930 C.ar      1 KE45000     0.0000 
     15 C4A        27.0050   21.6780   34.2160 C.3       1 KE45000     0.0000 
     16 N4A        27.1970   22.8880   34.8780 N.3       1 KE45000     0.0000 
     17 CA         26.4650   23.9890   34.6150 C.3       1 KE45000     0.0000 
     18 C          26.7870   25.2700   35.4000 C.3       1 KE45000     0.0000 
     19 N5         27.1140   24.9730   36.7950 N.4       1 KE45000     0.0000 
     20 CB         25.3270   23.9500   33.5330 C.3       1 KE45000     0.0000 
     21 CG         24.6580   25.3130   33.2130 C.3       1 KE45000     0.0000 
     22 CD         23.1650   25.3920   33.5970 C.2       1 KE45000     0.0000 
     23 OE1        22.5630   26.4690   33.4000 O.co2     1 KE45000     0.0000 
     24 OE2        22.5870   24.3840   34.0970 O.co2     1 KE45000     0.0000 
     25 H          26.1449   18.2914   32.3024 H         1 KE45000     0.0000 
     26 H          25.5406   19.8464   32.8997 H         1 KE45000     0.0000 
     27 H          27.6589   17.1430   33.5093 H         1 KE45000     0.0000 
     28 H          25.8578   21.4472   34.1229 H         1 KE45000     0.0000 
     29 H          27.2401   21.8025   33.0726 H         1 KE45000     0.0000 
     30 H          25.4969   23.6297   35.6260 H         1 KE45000     0.0000 
     31 H          25.9157   25.9345   35.3353 H         1 KE45000     0.0000 
     32 H          27.6256   25.7716   34.8998 H         1 KE45000     0.0000 
     33 H          24.5520   23.2443   33.8757 H         1 KE45000     0.0000 
     34 H          25.7513   23.5343   32.6039 H         1 KE45000     0.0000 
     35 H          24.7596   25.5090   32.1360 H         1 KE45000     0.0000 
     36 H          25.2048   26.1051   33.7443 H         1 KE45000     0.0000 
     37 H          30.8857   18.3347   36.8873 H         1 KE45000     0.0000 
     38 H          30.1626   19.5189   37.7003 H         1 KE45000     0.0000 
     39 H          29.6212   18.0098   37.8262 H         1 KE45000     0.0000 
     40 H          27.0733   23.9921   36.9853 H         1 KE45000     0.0000 
     41 H          28.0353   25.2798   37.0339 H         1 KE45000     0.0000 
     42 H          26.4825   25.4209   37.4280 H         1 KE45000     0.0000 
     43 H          28.3717   21.1005   37.3922 H         1 KE45000     0.0000 
@<TRIPOS>BOND
     1    2    1 ar   
     2    3    1 ar   
     3    4    1 ar   
     4    5    1 1    
     5    6    5 1    
     6    7    6 1    
     7   25    6 1    
     8   26    6 1    
     9    8    7 ar   
    10   14    7 ar   
    11    9    8 ar   
    12   27    8 1    
    13   10    9 ar   
    14   11   10 1    
    15   12   10 ar   
    16   37   11 1    
    17   38   11 1    
    18   39   11 1    
    19   13   12 1    
    20   14   12 ar   
    21   43   13 1    
    22   15   14 1    
    23   16   15 1    
    24   28   15 1    
    25   29   15 1    
    26   17   16 1    
    27   18   17 1    
    28   20   17 1    
    29   30   17 1    
    30   19   18 1    
    31   31   18 1    
    32   32   18 1    
    33   40   19 1    
    34   41   19 1    
    35   42   19 1    
    36   21   20 1    
    37   33   20 1    
    38   34   20 1    
    39   22   21 1    
    40   35   21 1    
    41   36   21 1    
    42   23   22 ar   
    43   24   22 ar   
@<TRIPOS>SUBSTRUCTURE
     1 KE45000     1 GROUP   
@<TRIPOS>SET

