#    Name: 2vts_LZC_1_INTS_M
#    Modification time : Tue Mar 25 02:55:15 2014

@<TRIPOS>MOLECULE
2vts_LZC_1_INTS_M
   64     0    12     0     0
SMALL
NO_CHARGES


@<TRIPOS>ATOM
      1 CA         31.3500    6.9650   68.8450 C.3       4 GLC5        0.0000 
      2 CA         31.7240    8.0410   67.5110 C.3      12 GLL5        0.0000 
      3 CA         30.9760    5.8890   70.1790 C.3       8 GLP5        0.0000 
      4 CA         33.1010    6.6115   67.5345 C.3       4 GLC5        0.0000 
      5 CA         34.4780    5.1820   67.5580 C.3       8 GLP5        0.0000 
      6 CA         29.0875    7.9895   67.2120 C.3       4 GLC5        0.0000 
      7 CA         31.0100    8.0970   66.1600 C.3      12 GLL5        0.0000 
      8 CA         27.1650    7.8820   68.2640 C.3       8 GLP5        0.0000 
      9 CA         30.3350    6.9690   67.9730 C.3       4 GLC5        0.0000 
     10 CA         29.6600    5.8410   69.7860 C.3       8 GLP5        0.0000 
     11 CA         33.6955    7.5810   64.7040 C.3       4 GLC5        0.0000 
     12 CA         31.9890    8.0380   64.9870 C.3      12 GLL5        0.0000 
     13 CA         35.4020    7.1240   64.4210 C.3       8 GLP5        0.0000 
     14 CA         31.4145    7.0380   63.2155 C.3       4 GLC5        0.0000 
     15 CA         30.8400    6.0380   61.4440 C.3       8 GLP5        0.0000 
     16 O          30.9360    5.9520   66.3860 O.2       1 ALC1        0.0000 
     17 O          30.0560    7.0050   66.0510 O.2       9 ALL1        0.0000 
     18 O          31.8160    4.8990   66.7210 O.2       5 ALP1        0.0000 
     19 CA         28.0605    7.4705   66.7355 C.3       4 GLC5        0.0000 
     20 CA         28.9560    7.0590   65.2070 C.3      12 GLL5        0.0000 
     21 CA         29.1090    5.6170   63.6725 C.3       4 GLC5        0.0000 
     22 CA         29.2620    4.1750   62.1380 C.3       8 GLP5        0.0000 
     23 CA         27.7315    8.7630   66.1975 C.3       4 GLC5        0.0000 
     24 CA         28.5190    8.2040   64.5560 C.3      12 GLL5        0.0000 
     25 CA         26.9440    9.3220   67.8390 C.3       8 GLP5        0.0000 
     26 CA         29.6795    7.1210   63.0000 C.3       4 GLC5        0.0000 
     27 CA         24.5325    7.7610   62.5885 C.3       4 GLC5        0.0000 
     28 CA         25.9330    9.0630   61.9680 C.3      12 GLL5        0.0000 
     29 CA         23.1320    6.4590   63.2090 C.3       8 GLP5        0.0000 
     30 CA         23.0295   11.6435   60.5340 C.3       4 GLC5        0.0000 
     31 CA         24.4520   10.3920   60.4190 C.3      12 GLL5        0.0000 
     32 CA         21.6070   12.8950   60.6490 C.3       8 GLP5        0.0000 
     33 OD1        23.3815    8.6405   58.1160 O.co2     3 ASC3        0.0000 
     34 OD1        24.2510    9.8180   58.0280 O.co2    11 ASL3        0.0000 
     35 OD1        22.5120    7.4630   58.2040 O.co2     7 ASP3        0.0000 
     36 O          25.0800    8.9480   57.2450 O.2       1 ALC1        0.0000 
     37 O          24.2510    9.8180   58.0280 O.2       9 ALL1        0.0000 
     38 O          25.9090    8.0780   56.4620 O.2       5 ALP1        0.0000 
     39 O          23.3815    8.6405   58.1160 O.2       1 ALC1        0.0000 
     40 O          22.5120    7.4630   58.2040 O.2       5 ALP1        0.0000 
     41 CA         27.0670    7.6985   58.0220 C.3       4 GLC5        0.0000 
     42 CA         25.6620    8.3890   59.5120 C.3      12 GLL5        0.0000 
     43 CA         28.4720    7.0080   56.5320 C.3       8 GLP5        0.0000 
     44 CA         26.1060    2.1460   63.1150 C.3       4 GLC5        0.0000 
     45 CA         25.6120    4.0780   63.4540 C.3      12 GLL5        0.0000 
     46 CA         26.6000    0.2140   62.7760 C.3       8 GLP5        0.0000 
     47 CA         24.6025    2.6020   64.2395 C.3       4 GLC5        0.0000 
     48 CA         23.5930    1.1260   65.0250 C.3       8 GLP5        0.0000 
     49 CA         26.2015    3.8700   61.3545 C.3       4 GLC5        0.0000 
     50 CA         26.7910    3.6620   59.2550 C.3       8 GLP5        0.0000 
     51 N          24.2630    4.9400   62.3930 N.am      2 SEC2        0.0000 
     52 N          24.7040    3.6870   62.8630 N.am     10 SEL2        0.0000 
     53 N          23.8220    6.1930   61.9230 N.am      6 SEP2        0.0000 
     54 N          29.5760    3.6050   66.2185 N.am      2 SEC2        0.0000 
     55 N          28.5050    4.6760   65.5630 N.am     10 SEL2        0.0000 
     56 N          30.6470    2.5340   66.8740 N.am      6 SEP2        0.0000 
     57 CA         23.9198    9.9400   62.7430 C.3       4 GLC5        0.0000 
     58 CA         22.7780    9.8060   64.3870 C.3       8 GLP5        0.0000 
     59 CA         25.7302    4.5070   65.5801 C.3       4 GLC5        0.0000 
     60 CA         27.1590    5.8640   64.1770 C.3      12 GLL5        0.0000 
     61 CA         25.1820    4.3680   67.3460 C.3       8 GLP5        0.0000 
     62 CA         24.7052    5.5525   63.5116 C.3       4 GLC5        0.0000 
     63 CA         26.7310    4.5640   64.1720 C.3      12 GLL5        0.0000 
     64 CA         27.7702    4.4105   62.9761 C.3       4 GLC5        0.0000 
@<TRIPOS>BOND
@<TRIPOS>SUBSTRUCTURE
     1 ALC1       16 GROUP        1 X    ALC  0     ROOT ALC X 1
     2 SEC2       51 GROUP        1 X    SEC  0     **** SEC X 2
     3 ASC3       33 GROUP        1 X    ASC  0     **** ASC X 3
     4 GLC5        1 GROUP        1 X    GLC  0     **** GLC X 6
     5 ALP1       18 GROUP        1 Y    ALP  0     ROOT ALP Y 8
     6 SEP2       53 GROUP        1 Y    SEP  0     **** SEP Y 9
     7 ASP3       35 GROUP        1 Y    ASP  0     **** ASP Y 10
     8 GLP5        3 GROUP        1 Y    GLP  0     **** GLP Y 13
     9 ALL1       17 GROUP        1 Z    ALL  0     ROOT ALL Z 15
    10 SEL2       52 GROUP        1 Z    SEL  0     **** SEL Z 16
    11 ASL3       34 GROUP        1 Z    ASL  0     **** ASL Z 17
    12 GLL5        2 GROUP        1 Z    GLL  0     **** GLL Z 20
@<TRIPOS>SET

