#    Name: 2vts_LZC_1_ligand
#    Modification time : Tue Mar 25 02:55:15 2014

@<TRIPOS>MOLECULE
2vts_LZC_1_ligand
   47    49     1     0     0
SMALL
NO_CHARGES


@<TRIPOS>ATOM
      1 C1         31.7240    8.0410   67.5110 C.3       1 LZC1299     0.0000 
      2 C2         31.0100    8.0970   66.1600 C.3       1 LZC1299     0.0000 
      3 C3         31.9890    8.0380   64.9870 C.3       1 LZC1299     0.0000 
      4 N4         30.0560    7.0050   66.0510 N.pl3     1 LZC1299     0.0000 
      5 C5         28.9560    7.0590   65.2070 C.2       1 LZC1299     0.0000 
      6 C6         28.5190    8.2040   64.5560 C.2       1 LZC1299     0.0000 
      7 C7         27.4090    8.1090   63.7260 C.2       1 LZC1299     0.0000 
      8 N8         26.9100    9.1870   63.0360 N.pl3     1 LZC1299     0.0000 
      9 C9         25.9330    9.0630   61.9680 C.3       1 LZC1299     0.0000 
     10 C10        25.4090   10.4490   61.5900 C.3       1 LZC1299     0.0000 
     11 C11        24.4520   10.3920   60.4190 C.3       1 LZC1299     0.0000 
     12 C12        25.1660    9.8090   59.2200 C.3       1 LZC1299     0.0000 
     13 N13        24.2510    9.8180   58.0280 N.4       1 LZC1299     0.0000 
     14 C14        25.6620    8.3890   59.5120 C.3       1 LZC1299     0.0000 
     15 C15        26.5550    8.3460   60.7540 C.3       1 LZC1299     0.0000 
     16 N16        26.7240    6.9590   63.5520 N.2       1 LZC1299     0.0000 
     17 C17        27.1590    5.8640   64.1770 C.2       1 LZC1299     0.0000 
     18 C18        26.7310    4.5640   64.1720 C.2       1 LZC1299     0.0000 
     19 C19        25.6120    4.0780   63.4540 C.1       1 LZC1299     0.0000 
     20 N20        24.7040    3.6870   62.8630 N.1       1 LZC1299     0.0000 
     21 C21        27.5810    3.8630   65.0320 C.2       1 LZC1299     0.0000 
     22 N22        28.5050    4.6760   65.5630 N.2       1 LZC1299     0.0000 
     23 N23        28.2410    5.9040   65.0120 N.pl3     1 LZC1299     0.0000 
     24 H          30.4794    9.0501   66.1012 H         1 LZC1299     0.0000 
     25 H          30.2285    6.1678   66.6366 H         1 LZC1299     0.0000 
     26 H          28.9995    9.0921   64.6830 H         1 LZC1299     0.0000 
     27 H          27.2273   10.1545   63.2655 H         1 LZC1299     0.0000 
     28 H          25.0874    8.4675   62.3062 H         1 LZC1299     0.0000 
     29 H          26.2584   11.0921   61.3371 H         1 LZC1299     0.0000 
     30 H          24.9008   10.8842   62.4568 H         1 LZC1299     0.0000 
     31 H          24.1060   11.3936   60.1843 H         1 LZC1299     0.0000 
     32 H          23.6023    9.7672   60.6751 H         1 LZC1299     0.0000 
     33 H          26.0312   10.4301   58.9992 H         1 LZC1299     0.0000 
     34 H          26.2261    8.0235   58.6518 H         1 LZC1299     0.0000 
     35 H          24.8019    7.7345   59.6658 H         1 LZC1299     0.0000 
     36 H          26.7483    7.3007   61.0227 H         1 LZC1299     0.0000 
     37 H          27.5179    8.8163   60.5219 H         1 LZC1299     0.0000 
     38 H          27.4880    2.9072   65.2027 H         1 LZC1299     0.0000 
     39 H          32.2545    7.1999   67.6161 H         1 LZC1299     0.0000 
     40 H          32.3591    8.8046   67.6273 H         1 LZC1299     0.0000 
     41 H          31.0786    8.0777   68.2740 H         1 LZC1299     0.0000 
     42 H          32.6354    8.8008   65.0040 H         1 LZC1299     0.0000 
     43 H          32.5288    7.1962   64.9957 H         1 LZC1299     0.0000 
     44 H          31.5163    8.0739   64.1065 H         1 LZC1299     0.0000 
     45 H          23.4245    9.2788   58.1901 H         1 LZC1299     0.0000 
     46 H          23.9554   10.7441   57.7937 H         1 LZC1299     0.0000 
     47 H          24.6946    9.4378   57.2164 H         1 LZC1299     0.0000 
@<TRIPOS>BOND
     1    2    1 1    
     2   39    1 1    
     3   40    1 1    
     4   41    1 1    
     5    3    2 1    
     6    4    2 1    
     7   24    2 1    
     8   42    3 1    
     9   43    3 1    
    10   44    3 1    
    11    5    4 1    
    12   25    4 1    
    13    6    5 2    
    14   23    5 1    
    15    7    6 1    
    16   26    6 1    
    17    8    7 1    
    18   16    7 2    
    19    9    8 1    
    20   27    8 1    
    21   10    9 1    
    22   15    9 1    
    23   28    9 1    
    24   11   10 1    
    25   29   10 1    
    26   30   10 1    
    27   12   11 1    
    28   31   11 1    
    29   32   11 1    
    30   13   12 1    
    31   14   12 1    
    32   33   12 1    
    33   45   13 1    
    34   46   13 1    
    35   47   13 1    
    36   15   14 1    
    37   34   14 1    
    38   35   14 1    
    39   36   15 1    
    40   37   15 1    
    41   17   16 1    
    42   18   17 2    
    43   23   17 1    
    44   19   18 1    
    45   21   18 1    
    46   20   19 3    
    47   22   21 2    
    48   38   21 1    
    49   23   22 1    
@<TRIPOS>SUBSTRUCTURE
     1 LZC1299     1 GROUP   
@<TRIPOS>SET

