#    Name: 2vnn_CM7_1_INTS_M
#    Modification time : Tue Mar 25 02:13:11 2014

@<TRIPOS>MOLECULE
2vnn_CM7_1_INTS_M
   92     0     9     0     0
SMALL
NO_CHARGES


@<TRIPOS>ATOM
      1 CA         26.0245   -4.4315   33.5150 C.3       3 GLC5        0.0000 
      2 CA         28.0290   -3.7130   34.0220 C.3       9 GLL5        0.0000 
      3 CA         24.0200   -5.1500   33.0080 C.3       6 GLP5        0.0000 
      4 CA         29.9220   -5.3185   32.6395 C.3       3 GLC5        0.0000 
      5 CA         29.5170   -4.1010   34.0840 C.3       9 GLL5        0.0000 
      6 CA         30.3270   -6.5360   31.1950 C.3       6 GLP5        0.0000 
      7 CA         29.0910   -4.0965   37.7490 C.3       3 GLC5        0.0000 
      8 CA         30.7030   -4.1960   36.4760 C.3       9 GLL5        0.0000 
      9 CA         27.4790   -3.9970   39.0220 C.3       6 GLP5        0.0000 
     10 CA         29.6565   -3.8745   38.8090 C.3       3 GLC5        0.0000 
     11 CA         31.8340   -3.7520   38.5960 C.3       9 GLL5        0.0000 
     12 CA         30.3920   -2.2715   41.4605 C.3       3 GLC5        0.0000 
     13 CA         31.8670   -3.0210   39.9480 C.3       9 GLL5        0.0000 
     14 CA         28.9170   -1.5220   42.9730 C.3       6 GLP5        0.0000 
     15 N          28.6785   -1.5130   40.3930 N.am      2 SEC2        0.0000 
     16 N          29.9970   -1.2530   39.6780 N.am      8 SEL2        0.0000 
     17 N          27.3600   -1.7730   41.1080 N.am      5 SEP2        0.0000 
     18 CA         33.7615    1.8675   38.0610 C.3       3 GLC5        0.0000 
     19 CA         33.4640   -0.0320   38.5780 C.3       9 GLL5        0.0000 
     20 CA         34.0590    3.7670   37.5440 C.3       6 GLP5        0.0000 
     21 CA         33.7015   -0.2865   36.3800 C.3       3 GLC5        0.0000 
     22 CA         33.9390   -0.5410   34.1820 C.3       6 GLP5        0.0000 
     23 CA         32.2030    2.3160   36.3350 C.3       3 GLC5        0.0000 
     24 CA         31.1400    0.6180   36.4380 C.3       9 GLL5        0.0000 
     25 CA         33.2660    4.0140   36.2320 C.3       6 GLP5        0.0000 
     26 N          32.6890    2.1780   34.1890 N.am      2 SEC2        0.0000 
     27 N          31.1980    2.4440   34.2440 N.am      8 SEL2        0.0000 
     28 N          34.1800    1.9120   34.1340 N.am      5 SEP2        0.0000 
     29 O          27.9905    0.7675   33.9255 O.2       1 ALC1        0.0000 
     30 O          29.0830    1.7020   33.6420 O.2       7 ALL1        0.0000 
     31 O          26.8980   -0.1670   34.2090 O.2       4 ALP1        0.0000 
     32 CA         26.4650    1.2900   32.5965 C.3       3 GLC5        0.0000 
     33 CA         28.1850    1.7930   31.4290 C.3       9 GLL5        0.0000 
     34 CA         24.7450    0.7870   33.7640 C.3       6 GLP5        0.0000 
     35 CA         31.3365    2.1275   31.1385 C.3       3 GLC5        0.0000 
     36 CA         30.3650    0.3810   31.0300 C.3       9 GLL5        0.0000 
     37 CA         32.3080    3.8740   31.2470 C.3       6 GLP5        0.0000 
     38 CA         30.2420   -4.3140   30.9305 C.3       3 GLC5        0.0000 
     39 CA         30.1570   -2.0920   30.6660 C.3       9 GLL5        0.0000 
     40 CA         26.3630    2.2740   33.4080 C.3       3 GLC5        0.0000 
     41 CA         27.9810    3.7610   33.0520 C.3       9 GLL5        0.0000 
     42 O          26.0125    4.0665   32.1085 O.2       1 ALC1        0.0000 
     43 O          27.6430    4.6050   31.9330 O.2       7 ALL1        0.0000 
     44 O          24.3820    3.5280   32.2840 O.2       4 ALP1        0.0000 
     45 O          26.6795    4.2040   31.2495 O.2       1 ALC1        0.0000 
     46 O          25.7160    3.8030   30.5660 O.2       4 ALP1        0.0000 
     47 CA         27.8810    8.7615   34.7830 C.3       3 GLC5        0.0000 
     48 CA         28.5550    6.9540   35.0210 C.3       9 GLL5        0.0000 
     49 CA         27.2070   10.5690   34.5450 C.3       6 GLP5        0.0000 
     50 CA         27.2520    7.6465   36.4355 C.3       3 GLC5        0.0000 
     51 CA         25.9490    8.3390   37.8500 C.3       6 GLP5        0.0000 
     52 CA         27.8095    7.5140   31.1475 C.3       3 GLC5        0.0000 
     53 CA         29.2390    8.0480   32.7670 C.3       9 GLL5        0.0000 
     54 CA         26.3800    6.9800   29.5280 C.3       6 GLP5        0.0000 
     55 CA         30.0575    6.9515   30.2370 C.3       3 GLC5        0.0000 
     56 CA         29.7930    9.1300   30.5180 C.3       9 GLL5        0.0000 
     57 CA         30.3220    4.7730   29.9560 C.3       6 GLP5        0.0000 
     58 CA         27.1465   10.8170   31.0940 C.3       3 GLC5        0.0000 
     59 CA         28.7770   10.0050   30.6680 C.3       9 GLL5        0.0000 
     60 CA         25.5160   11.6290   31.5200 C.3       6 GLP5        0.0000 
     61 CA         27.9920   10.2870   32.6065 C.3       3 GLC5        0.0000 
     62 CA         30.4615    7.5875   28.3030 C.3       3 GLC5        0.0000 
     63 CA         29.3420    8.1140   29.7590 C.3       9 GLL5        0.0000 
     64 CA         31.5810    7.0610   26.8470 C.3       6 GLP5        0.0000 
     65 CA         29.4240    6.4740   29.2835 C.3       3 GLC5        0.0000 
     66 CA         29.5060    4.8340   28.8080 C.3       6 GLP5        0.0000 
     67 CA         31.1975    8.4045   28.3690 C.3       3 GLC5        0.0000 
     68 CA         30.8140    9.7480   29.8910 C.3       9 GLL5        0.0000 
     69 CA         27.8345   -5.7415   33.8235 C.3       3 GLC5        0.0000 
     70 CA         26.8960   -7.5760   33.5940 C.3       6 GLP5        0.0000 
     71 CA         32.6160   -0.2475   35.5090 C.3       3 GLC5        0.0000 
     72 CA         31.4460   -0.5260   37.2340 C.3       9 GLL5        0.0000 
     73 CA         29.6600    0.7035   37.9335 C.3       3 GLC5        0.0000 
     74 CA         28.0270    1.3610   39.0310 C.3       6 GLP5        0.0000 
     75 CA         32.1227   -0.3868   34.5588 C.3       3 GLC5        0.0000 
     76 CA         30.5060    0.4270   35.1950 C.3       9 GLL5        0.0000 
     77 CA         28.5697    0.1007   35.9493 C.3       3 GLC5        0.0000 
     78 CA         26.8330    0.4340   36.9630 C.3       6 GLP5        0.0000 
     79 CA         32.3365   -1.2535   35.1650 C.3       3 GLC5        0.0000 
     80 CA         30.4090   -2.0590   35.5230 C.3       9 GLL5        0.0000 
     81 CA         29.4305    3.4920   30.9695 C.3       3 GLC5        0.0000 
     82 CA         28.8930    2.6290   32.5370 C.3       9 GLL5        0.0000 
     83 CA         26.8563   -2.2925   30.4633 C.3       3 GLC5        0.0000 
     84 CA         28.0880   -0.7550   31.0420 C.3       9 GLL5        0.0000 
     85 CA         25.3090   -3.1910   30.0060 C.3       6 GLP5        0.0000 
     86 CA         27.5113    0.9257   29.6414 C.3       3 GLC5        0.0000 
     87 CA         26.7040    1.6690   28.1130 C.3       6 GLP5        0.0000 
     88 CA         29.3405    4.4912   31.7600 C.3       3 GLC5        0.0000 
     89 CA         32.4349    6.6082   32.2706 C.3       3 GLC5        0.0000 
     90 CA         31.6450    8.5720   32.2390 C.3       9 GLL5        0.0000 
     91 CA         33.2760    5.0530   31.4310 C.3       6 GLP5        0.0000 
     92 CA         27.8468    7.9104   29.8520 C.3       3 GLC5        0.0000 
@<TRIPOS>BOND
@<TRIPOS>SUBSTRUCTURE
     1 ALC1       29 GROUP        1 X    ALC  0     ROOT ALC X 1
     2 SEC2       15 GROUP        1 X    SEC  0     **** SEC X 2
     3 GLC5        1 GROUP        1 X    GLC  0     **** GLC X 6
     4 ALP1       31 GROUP        1 Y    ALP  0     ROOT ALP Y 8
     5 SEP2       17 GROUP        1 Y    SEP  0     **** SEP Y 9
     6 GLP5        3 GROUP        1 Y    GLP  0     **** GLP Y 13
     7 ALL1       30 GROUP        1 Z    ALL  0     ROOT ALL Z 15
     8 SEL2       16 GROUP        1 Z    SEL  0     **** SEL Z 16
     9 GLL5        2 GROUP        1 Z    GLL  0     **** GLL Z 20
@<TRIPOS>SET

