#    Name: 2vnn_CM7_1_ligand
#    Modification time : Tue Mar 25 02:13:11 2014

@<TRIPOS>MOLECULE
2vnn_CM7_1_ligand
   78    82     1     0     0
SMALL
NO_CHARGES


@<TRIPOS>ATOM
      1 C01        28.0290   -3.7130   34.0220 C.3       1 CM72000     0.0000 
      2 C02        29.5170   -4.1010   34.0840 C.3       1 CM72000     0.0000 
      3 C03        30.1880   -3.4720   35.3270 C.2       1 CM72000     0.0000 
      4 C04        30.7030   -4.1960   36.4760 C.2       1 CM72000     0.0000 
      5 N05        31.1790   -3.2100   37.3480 N.pl3     1 CM72000     0.0000 
      6 C06        31.8340   -3.7520   38.5960 C.3       1 CM72000     0.0000 
      7 C07        31.8670   -3.0210   39.9480 C.3       1 CM72000     0.0000 
      8 S08        31.4380   -1.2320   39.7790 S.o2      1 CM72000     0.0000 
      9 O09        31.8700   -0.5150   41.0080 O.2       1 CM72000     0.0000 
     10 O10        29.9970   -1.2530   39.6780 O.2       1 CM72000     0.0000 
     11 N11        32.0540   -0.4680   38.5710 N.pl3     1 CM72000     0.0000 
     12 C12        33.4640   -0.0320   38.5780 C.3       1 CM72000     0.0000 
     13 C13        31.4460   -0.5260   37.2340 C.ar      1 CM72000     0.0000 
     14 C14        31.1400    0.6180   36.4380 C.ar      1 CM72000     0.0000 
     15 C15        30.5060    0.4270   35.1950 C.ar      1 CM72000     0.0000 
     16 C16        30.1070   -0.8920   34.6760 C.ar      1 CM72000     0.0000 
     17 C17        30.4090   -2.0590   35.5230 C.ar      1 CM72000     0.0000 
     18 C18        31.0590   -1.8730   36.7730 C.ar      1 CM72000     0.0000 
     19 C19        30.2720    1.6930   34.4300 C.2       1 CM72000     0.0000 
     20 O20        31.1980    2.4440   34.2440 O.2       1 CM72000     0.0000 
     21 N21        29.0830    1.7020   33.6420 N.am      1 CM72000     0.0000 
     22 C22        28.8930    2.6290   32.5370 C.3       1 CM72000     0.0000 
     23 C23        28.1850    1.7930   31.4290 C.3       1 CM72000     0.0000 
     24 C24        28.9130    0.4470   31.1660 C.ar      1 CM72000     0.0000 
     25 C25        30.3650    0.3810   31.0300 C.ar      1 CM72000     0.0000 
     26 C26        30.9940   -0.8900   30.7820 C.ar      1 CM72000     0.0000 
     27 C27        30.1570   -2.0920   30.6660 C.ar      1 CM72000     0.0000 
     28 C28        28.7190   -2.0330   30.7990 C.ar      1 CM72000     0.0000 
     29 C29        28.0880   -0.7550   31.0420 C.ar      1 CM72000     0.0000 
     30 C30        27.9810    3.7610   33.0520 C.3       1 CM72000     0.0000 
     31 O31        27.6430    4.6050   31.9330 O.3       1 CM72000     0.0000 
     32 C32        28.7370    4.6580   34.0760 C.3       1 CM72000     0.0000 
     33 N33        27.8310    5.7880   34.4490 N.4       1 CM72000     0.0000 
     34 C34        28.5550    6.9540   35.0210 C.3       1 CM72000     0.0000 
     35 C35        29.6340    7.5070   34.0570 C.ar      1 CM72000     0.0000 
     36 C36        31.0420    7.4930   34.4380 C.ar      1 CM72000     0.0000 
     37 C37        32.0430    8.0170   33.5250 C.ar      1 CM72000     0.0000 
     38 C38        31.6450    8.5720   32.2390 C.ar      1 CM72000     0.0000 
     39 C39        30.2480    8.5690   31.8650 C.ar      1 CM72000     0.0000 
     40 C40        29.2390    8.0480   32.7670 C.ar      1 CM72000     0.0000 
     41 C41        29.7930    9.1300   30.5180 C.3       1 CM72000     0.0000 
     42 F42        28.7770   10.0050   30.6680 F         1 CM72000     0.0000 
     43 F43        29.3420    8.1140   29.7590 F         1 CM72000     0.0000 
     44 F44        30.8140    9.7480   29.8910 F         1 CM72000     0.0000 
     45 H          30.0185   -3.7429   33.1923 H         1 CM72000     0.0000 
     46 H          29.6043   -5.1798   34.1431 H         1 CM72000     0.0000 
     47 H          30.7018   -5.1051   36.5779 H         1 CM72000     0.0000 
     48 H          32.9242   -4.0206   38.3349 H         1 CM72000     0.0000 
     49 H          31.4017   -4.8021   38.7945 H         1 CM72000     0.0000 
     50 H          32.8375   -2.9704   40.3873 H         1 CM72000     0.0000 
     51 H          31.1265   -3.3570   40.6381 H         1 CM72000     0.0000 
     52 H          31.3769    1.5431   36.7670 H         1 CM72000     0.0000 
     53 H          29.6628   -0.9891   33.8107 H         1 CM72000     0.0000 
     54 H          28.3289    1.0365   33.8523 H         1 CM72000     0.0000 
     55 H          29.7897    3.0041   32.1801 H         1 CM72000     0.0000 
     56 H          28.1675    2.3726   30.5093 H         1 CM72000     0.0000 
     57 H          27.1639    1.5890   31.7418 H         1 CM72000     0.0000 
     58 H          30.9119    1.2192   31.1101 H         1 CM72000     0.0000 
     59 H          31.9873   -0.9677   30.6878 H         1 CM72000     0.0000 
     60 H          30.6119   -2.9860   30.4870 H         1 CM72000     0.0000 
     61 H          28.1664   -2.8668   30.7238 H         1 CM72000     0.0000 
     62 H          27.0898   -0.6847   31.1264 H         1 CM72000     0.0000 
     63 H          27.1292    3.3543   33.5135 H         1 CM72000     0.0000 
     64 H          29.6333    5.0258   33.6064 H         1 CM72000     0.0000 
     65 H          28.9761    4.0592   34.9382 H         1 CM72000     0.0000 
     66 H          29.0512    6.6739   35.9591 H         1 CM72000     0.0000 
     67 H          27.8534    7.7676   35.2457 H         1 CM72000     0.0000 
     68 H          31.3163    7.1210   35.3309 H         1 CM72000     0.0000 
     69 H          33.0187    7.9970   33.7816 H         1 CM72000     0.0000 
     70 H          32.3380    8.9526   31.6201 H         1 CM72000     0.0000 
     71 H          28.2684    8.0603   32.5021 H         1 CM72000     0.0000 
     72 H          27.9055   -2.7221   33.9676 H         1 CM72000     0.0000 
     73 H          27.5748   -4.1092   33.2240 H         1 CM72000     0.0000 
     74 H          27.5294   -4.0268   34.8294 H         1 CM72000     0.0000 
     75 H          34.0915   -0.8054   38.6683 H         1 CM72000     0.0000 
     76 H          33.7088    0.4472   37.7351 H         1 CM72000     0.0000 
     77 H          33.6562    0.5914   39.3359 H         1 CM72000     0.0000 
     78 H          26.6600    4.4777   31.8006 H         1 CM72000     0.0000 
@<TRIPOS>BOND
     1    2    1 1    
     2   72    1 1    
     3   73    1 1    
     4   74    1 1    
     5    3    2 1    
     6   45    2 1    
     7   46    2 1    
     8    4    3 2    
     9   17    3 1    
    10    5    4 1    
    11   47    4 1    
    12    6    5 1    
    13   18    5 1    
    14    7    6 1    
    15   48    6 1    
    16   49    6 1    
    17    8    7 1    
    18   50    7 1    
    19   51    7 1    
    20    9    8 2    
    21   10    8 2    
    22   11    8 1    
    23   12   11 1    
    24   13   11 1    
    25   75   12 1    
    26   76   12 1    
    27   77   12 1    
    28   14   13 ar   
    29   18   13 ar   
    30   15   14 ar   
    31   52   14 1    
    32   16   15 ar   
    33   19   15 1    
    34   17   16 ar   
    35   53   16 1    
    36   18   17 ar   
    37   20   19 2    
    38   21   19 am   
    39   22   21 1    
    40   54   21 1    
    41   23   22 1    
    42   30   22 1    
    43   55   22 1    
    44   24   23 1    
    45   56   23 1    
    46   57   23 1    
    47   25   24 ar   
    48   29   24 ar   
    49   26   25 ar   
    50   58   25 1    
    51   27   26 ar   
    52   59   26 1    
    53   28   27 ar   
    54   60   27 1    
    55   29   28 ar   
    56   61   28 1    
    57   62   29 1    
    58   31   30 1    
    59   32   30 1    
    60   63   30 1    
    61   78   31 1    
    62   33   32 1    
    63   64   32 1    
    64   65   32 1    
    65   34   33 1    
    66   35   34 1    
    67   66   34 1    
    68   67   34 1    
    69   36   35 ar   
    70   40   35 ar   
    71   37   36 ar   
    72   68   36 1    
    73   38   37 ar   
    74   69   37 1    
    75   39   38 ar   
    76   70   38 1    
    77   40   39 ar   
    78   41   39 1    
    79   71   40 1    
    80   42   41 1    
    81   43   41 1    
    82   44   41 1    
@<TRIPOS>SUBSTRUCTURE
     1 CM72000     1 GROUP   
@<TRIPOS>SET

