#    Name: 2ykb_YKB_1_INTS_M
#    Modification time : Mon Apr  7 18:22:46 2014

@<TRIPOS>MOLECULE
2ykb_YKB_1_INTS_M
   66     0     9     0     0
SMALL
NO_CHARGES


@<TRIPOS>ATOM
      1 CA          9.2590   35.8340  -21.7085 C.3       3 GLC5        0.0000 
      2 CA          8.2200   35.1260  -23.4230 C.3       9 GLL5        0.0000 
      3 CA         10.2980   36.5420  -19.9940 C.3       6 GLP5        0.0000 
      4 CA          7.5420   36.1665  -20.8115 C.3       3 GLC5        0.0000 
      5 CA          7.0120   35.7570  -22.8600 C.3       9 GLL5        0.0000 
      6 CA          8.0720   36.5760  -18.7630 C.3       6 GLP5        0.0000 
      7 CA          4.5980   32.1925  -22.5110 C.3       3 GLC5        0.0000 
      8 CA          4.6470   32.9740  -24.1270 C.3       9 GLL5        0.0000 
      9 CA          4.5490   31.4110  -20.8950 C.3       6 GLP5        0.0000 
     10 CA          5.0230   32.4110  -26.8600 C.3       3 GLC5        0.0000 
     11 CA          4.4060   30.7670  -25.5010 C.3       9 GLL5        0.0000 
     12 CA          5.6400   34.0550  -28.2190 C.3       6 GLP5        0.0000 
     13 CA          5.0540   27.8820  -27.3370 C.3       3 GLC5        0.0000 
     14 CA          5.0520   29.7250  -26.2950 C.3       9 GLL5        0.0000 
     15 CA          5.0560   26.0390  -28.3790 C.3       6 GLP5        0.0000 
     16 CA          7.6715   32.7215  -26.8820 C.3       3 GLC5        0.0000 
     17 CA          7.2510   30.9760  -25.9230 C.3       9 GLL5        0.0000 
     18 CA          8.0920   34.4670  -27.8410 C.3       6 GLP5        0.0000 
     19 N           9.8330   30.4870  -24.0545 N.am      2 SEC2        0.0000 
     20 N           9.6750   31.0700  -25.2800 N.am      8 SEL2        0.0000 
     21 N           9.9910   29.9040  -22.8290 N.am      5 SEP2        0.0000 
     22 O           9.0990   30.5565  -28.7500 O.2       1 ALC1        0.0000 
     23 O           9.2610   30.8090  -27.5130 O.2       7 ALL1        0.0000 
     24 O           8.9370   30.3040  -29.9870 O.2       4 ALP1        0.0000 
     25 CA          9.3140   32.6350  -27.6525 C.3       3 GLC5        0.0000 
     26 CA         10.5360   30.8030  -27.4640 C.3       9 GLL5        0.0000 
     27 CA         11.0570   30.4940  -30.3590 C.3       3 GLC5        0.0000 
     28 CA         11.6090   30.6970  -28.3740 C.3       9 GLL5        0.0000 
     29 CA         10.5050   30.2910  -32.3440 C.3       6 GLP5        0.0000 
     30 CA          1.7380   33.3905  -26.4820 C.3       3 GLC5        0.0000 
     31 CA          1.0500   34.1750  -24.9400 C.3       9 GLL5        0.0000 
     32 CA          2.4260   32.6060  -28.0240 C.3       6 GLP5        0.0000 
     33 CA         -0.2615   35.2985  -22.3885 C.3       3 GLC5        0.0000 
     34 CA         -0.1400   34.6140  -24.1480 C.3       9 GLL5        0.0000 
     35 CA         -0.3830   35.9830  -20.6290 C.3       6 GLP5        0.0000 
     36 O          -3.6715   33.6700  -24.0955 O.2       1 ALC1        0.0000 
     37 O          -2.3200   34.0430  -24.1240 O.2       7 ALL1        0.0000 
     38 O          -5.0230   33.2970  -24.0670 O.2       4 ALP1        0.0000 
     39 CA          6.9900   35.8272  -25.1327 C.3       3 GLC5        0.0000 
     40 CA          6.3640   36.2130  -27.1240 C.3       6 GLP5        0.0000 
     41 CA          8.3785   37.2912  -23.6747 C.3       3 GLC5        0.0000 
     42 CA          9.1410   39.1410  -24.2080 C.3       6 GLP5        0.0000 
     43 CA         10.1915   34.4292  -23.6365 C.3       3 GLC5        0.0000 
     44 CA         12.1440   34.3330  -23.4570 C.3       6 GLP5        0.0000 
     45 CA          6.1103   35.2908  -25.3102 C.3       3 GLC5        0.0000 
     46 CA          5.8640   34.9580  -23.1320 C.3       9 GLL5        0.0000 
     47 CA          5.1502   33.5842  -21.8972 C.3       3 GLC5        0.0000 
     48 CA          5.8490   33.7790  -23.8610 C.3       9 GLL5        0.0000 
     49 CA          4.4440   32.8000  -20.2980 C.3       6 GLP5        0.0000 
     50 CA          7.8595   34.0212  -26.0787 C.3       3 GLC5        0.0000 
     51 CA          6.9960   33.2260  -24.4240 C.3       9 GLL5        0.0000 
     52 CA          5.6934   33.1175  -26.5369 C.3       3 GLC5        0.0000 
     53 CA          5.2020   31.8060  -24.9920 C.3       9 GLL5        0.0000 
     54 CA          3.5300   28.7910  -25.1535 C.3       3 GLC5        0.0000 
     55 CA          2.3310   27.3360  -24.4090 C.3       6 GLP5        0.0000 
     56 CA          3.6770   31.5559  -26.8974 C.3       3 GLC5        0.0000 
     57 CA          5.0053   29.8795  -27.9220 C.3       3 GLC5        0.0000 
     58 CA          4.3960   29.6780  -29.6550 C.3       6 GLP5        0.0000 
     59 CA         11.8268   32.6508  -24.6475 C.3       3 GLC5        0.0000 
     60 CA         10.8100   30.9530  -26.0730 C.3       9 GLL5        0.0000 
     61 CA         13.8178   31.5560  -24.9387 C.3       3 GLC5        0.0000 
     62 CA         12.2090   30.9840  -25.6030 C.3       9 GLL5        0.0000 
     63 CA         14.9520   32.2040  -23.8290 C.3       6 GLP5        0.0000 
     64 CA         12.7622   32.4715  -26.9023 C.3       3 GLC5        0.0000 
     65 CA         12.8410   34.0350  -27.7560 C.3       6 GLP5        0.0000 
     66 CA         11.9910   32.4112  -27.6636 C.3       3 GLC5        0.0000 
@<TRIPOS>BOND
@<TRIPOS>SUBSTRUCTURE
     1 ALC1       22 GROUP        1 X    ALC  0     ROOT ALC X 1
     2 SEC2       19 GROUP        1 X    SEC  0     **** SEC X 2
     3 GLC5        1 GROUP        1 X    GLC  0     **** GLC X 6
     4 ALP1       24 GROUP        1 Y    ALP  0     ROOT ALP Y 8
     5 SEP2       21 GROUP        1 Y    SEP  0     **** SEP Y 9
     6 GLP5        3 GROUP        1 Y    GLP  0     **** GLP Y 13
     7 ALL1       23 GROUP        1 Z    ALL  0     ROOT ALL Z 15
     8 SEL2       20 GROUP        1 Z    SEL  0     **** SEL Z 16
     9 GLL5        2 GROUP        1 Z    GLL  0     **** GLL Z 20
@<TRIPOS>SET

