#    Name: 2ykb_YKB_1_ligand
#    Modification time : Mon Apr  7 18:22:46 2014

@<TRIPOS>MOLECULE
2ykb_YKB_1_ligand
   49    53     1     0     0
SMALL
NO_CHARGES


@<TRIPOS>ATOM
      1 C1          8.2200   35.1260  -23.4230 C.ar      1 YKB1224     0.0000 
      2 C2          7.0120   35.7570  -22.8600 C.ar      1 YKB1224     0.0000 
      3 C3          5.8640   34.9580  -23.1320 C.ar      1 YKB1224     0.0000 
      4 C4          8.2580   33.9250  -24.2090 C.ar      1 YKB1224     0.0000 
      5 C5          6.9960   33.2260  -24.4240 C.ar      1 YKB1224     0.0000 
      6 C6          5.8490   33.7790  -23.8610 C.ar      1 YKB1224     0.0000 
      7 C7          4.6470   32.9740  -24.1270 C.3       1 YKB1224     0.0000 
      8 C8          6.5690   31.9700  -25.1500 C.ar      1 YKB1224     0.0000 
      9 C9          5.2020   31.8060  -24.9920 C.ar      1 YKB1224     0.0000 
     10 C10         4.4060   30.7670  -25.5010 C.ar      1 YKB1224     0.0000 
     11 C11         5.0520   29.7250  -26.2950 C.ar      1 YKB1224     0.0000 
     12 C12         6.5000   29.9160  -26.4800 C.ar      1 YKB1224     0.0000 
     13 C13         7.2510   30.9760  -25.9230 C.ar      1 YKB1224     0.0000 
     14 C14         8.7520   30.9720  -26.1890 C.2       1 YKB1224     0.0000 
     15 N15         9.6750   31.0700  -25.2800 N.2       1 YKB1224     0.0000 
     16 N16         9.2610   30.8090  -27.5130 N.pl3     1 YKB1224     0.0000 
     17 C17        10.5360   30.8030  -27.4640 C.ar      1 YKB1224     0.0000 
     18 C18        10.8100   30.9530  -26.0730 C.ar      1 YKB1224     0.0000 
     19 C19        12.2090   30.9840  -25.6030 C.ar      1 YKB1224     0.0000 
     20 C20        13.1580   30.8320  -26.4940 C.ar      1 YKB1224     0.0000 
     21 N21        12.8530   30.7030  -27.8620 N.ar      1 YKB1224     0.0000 
     22 C22        11.6090   30.6970  -28.3740 C.ar      1 YKB1224     0.0000 
     23 N23         3.4680   33.4420  -24.7570 N.am      1 YKB1224     0.0000 
     24 C24         2.2520   33.6730  -24.1110 C.2       1 YKB1224     0.0000 
     25 C25         1.0500   34.1750  -24.9400 C.3       1 YKB1224     0.0000 
     26 O26         2.1630   33.4940  -22.8890 O.2       1 YKB1224     0.0000 
     27 C27        -0.1400   34.6140  -24.1480 C.3       1 YKB1224     0.0000 
     28 C28        -1.4250   34.4990  -24.8330 C.2       1 YKB1224     0.0000 
     29 O29        -1.5400   34.7230  -26.1600 O.2       1 YKB1224     0.0000 
     30 N30        -2.3200   34.0430  -24.1240 N.am      1 YKB1224     0.0000 
     31 H           9.1311   35.6119  -23.2220 H         1 YKB1224     0.0000 
     32 H           7.0256   36.5720  -22.3920 H         1 YKB1224     0.0000 
     33 H           4.9412   35.3110  -22.7328 H         1 YKB1224     0.0000 
     34 H           9.1009   33.5768  -24.5939 H         1 YKB1224     0.0000 
     35 H           4.3896   32.4288  -23.1678 H         1 YKB1224     0.0000 
     36 H           3.4181   30.7185  -25.3381 H         1 YKB1224     0.0000 
     37 H           4.5775   28.9766  -26.6673 H         1 YKB1224     0.0000 
     38 H           6.9877   29.2031  -27.0704 H         1 YKB1224     0.0000 
     39 H           8.6615   30.7240  -28.2702 H         1 YKB1224     0.0000 
     40 H          12.3504   31.1227  -24.6073 H         1 YKB1224     0.0000 
     41 H          14.1694   30.8007  -26.2279 H         1 YKB1224     0.0000 
     42 H          11.4177   30.6209  -29.3666 H         1 YKB1224     0.0000 
     43 H           3.5209   33.6287  -25.7982 H         1 YKB1224     0.0000 
     44 H           0.7564   33.3631  -25.6395 H         1 YKB1224     0.0000 
     45 H           1.4039   35.0114  -25.5802 H         1 YKB1224     0.0000 
     46 H           0.0226   35.6733  -23.8241 H         1 YKB1224     0.0000 
     47 H          -0.1657   34.0275  -23.1947 H         1 YKB1224     0.0000 
     48 H          -3.2307   34.0046  -24.5353 H         1 YKB1224     0.0000 
     49 H          -2.0499   33.7550  -23.2053 H         1 YKB1224     0.0000 
@<TRIPOS>BOND
     1    2    1 ar   
     2    4    1 ar   
     3   31    1 1    
     4    3    2 ar   
     5   32    2 1    
     6    6    3 ar   
     7   33    3 1    
     8    5    4 ar   
     9   34    4 1    
    10    6    5 ar   
    11    8    5 1    
    12    7    6 1    
    13    9    7 1    
    14   23    7 1    
    15   35    7 1    
    16    9    8 ar   
    17   13    8 ar   
    18   10    9 ar   
    19   11   10 ar   
    20   36   10 1    
    21   12   11 ar   
    22   37   11 1    
    23   13   12 ar   
    24   38   12 1    
    25   14   13 1    
    26   15   14 2    
    27   16   14 1    
    28   18   15 1    
    29   17   16 1    
    30   39   16 1    
    31   18   17 ar   
    32   22   17 ar   
    33   19   18 ar   
    34   20   19 ar   
    35   40   19 1    
    36   21   20 ar   
    37   41   20 1    
    38   22   21 ar   
    39   42   22 1    
    40   24   23 am   
    41   43   23 1    
    42   25   24 1    
    43   26   24 2    
    44   27   25 1    
    45   44   25 1    
    46   45   25 1    
    47   28   27 1    
    48   46   27 1    
    49   47   27 1    
    50   29   28 2    
    51   30   28 am   
    52   48   30 1    
    53   49   30 1    
@<TRIPOS>SUBSTRUCTURE
     1 YKB1224     1 GROUP   
@<TRIPOS>SET

