#    Name: 1eyn_2AN_1_INTS_M
#    Modification time : Tue Mar 25 00:24:05 2014

@<TRIPOS>MOLECULE
1eyn_2AN_1_INTS_M
   44     0     9     0     0
SMALL
NO_CHARGES


@<TRIPOS>ATOM
      1 CA        -32.6585    8.4840   82.2570 C.3       3 GLC5        0.0000 
      2 CA        -32.5700    9.2300   80.3040 C.3       9 GLL5        0.0000 
      3 CA        -32.7470    7.7380   84.2100 C.3       6 GLP5        0.0000 
      4 CA        -34.2635    9.2230   81.3480 C.3       3 GLC5        0.0000 
      5 CA        -35.9570    9.2160   82.3920 C.3       6 GLP5        0.0000 
      6 CA        -34.8540    6.4665   80.7830 C.3       3 GLC5        0.0000 
      7 CA        -33.9860    7.6200   79.1810 C.3       9 GLL5        0.0000 
      8 CA        -35.7220    5.3130   82.3850 C.3       6 GLP5        0.0000 
      9 CA        -35.2625   12.4310   81.2725 C.3       3 GLC5        0.0000 
     10 CA        -34.6070   14.1220   80.2720 C.3       9 GLL5        0.0000 
     11 CA        -35.9180   10.7400   82.2730 C.3       6 GLP5        0.0000 
     12 NZ        -37.9165   12.7840   76.7710 N.4       2 LYC4        0.0000 
     13 NZ        -37.2290   11.5690   77.9180 N.4       8 LYL4        0.0000 
     14 NZ        -38.6040   13.9990   75.6240 N.4       5 LYP4        0.0000 
     15 N         -37.3965   12.1005   79.0305 N.am      1 SEC2        0.0000 
     16 N         -37.2290   11.5690   77.9180 N.am      7 SEL2        0.0000 
     17 N         -37.5640   12.6320   80.1430 N.am      4 SEP2        0.0000 
     18 CA        -32.2722   10.5568   78.0482 C.3       3 GLC5        0.0000 
     19 CA        -33.8320   11.4280   78.9410 C.3       9 GLL5        0.0000 
     20 CA        -31.2500    9.5900   76.6820 C.3       6 GLP5        0.0000 
     21 CA        -31.8017    9.7417   78.5560 C.3       3 GLC5        0.0000 
     22 CA        -32.1370   10.5570   80.5560 C.3       9 GLL5        0.0000 
     23 CA        -34.3169   10.8901   81.1291 C.3       3 GLC5        0.0000 
     24 CA        -35.2987    8.5665   80.2195 C.3       3 GLC5        0.0000 
     25 CA        -33.6070    8.9800   79.3910 C.3       9 GLL5        0.0000 
     26 CA        -36.8010    8.8330   81.1530 C.3       6 GLP5        0.0000 
     27 CA        -32.8272    7.2628   77.8637 C.3       3 GLC5        0.0000 
     28 CA        -31.1540    7.0560   76.9970 C.3       6 GLP5        0.0000 
     29 CA        -37.3323    7.6190   77.4553 C.3       3 GLC5        0.0000 
     30 CA        -35.0150    7.3190   78.2800 C.3       9 GLL5        0.0000 
     31 CA        -39.3220    7.4010   76.9830 C.3       6 GLP5        0.0000 
     32 CA        -36.0718    8.3350   79.5403 C.3       3 GLC5        0.0000 
     33 CA        -35.6700    8.3550   77.5750 C.3       9 GLL5        0.0000 
     34 CA        -32.9483    9.6086   77.5300 C.3       3 GLC5        0.0000 
     35 CA        -35.3470    9.7270   77.7260 C.3       9 GLL5        0.0000 
     36 CA        -35.8085    9.3670   79.6753 C.3       3 GLC5        0.0000 
     37 CA        -34.2850   10.0750   78.6690 C.3       9 GLL5        0.0000 
     38 CA        -36.1725   14.1807   78.9958 C.3       3 GLC5        0.0000 
     39 CA        -34.5090   13.8470   78.8660 C.3       9 GLL5        0.0000 
     40 CA        -37.7780   13.9600   79.5790 C.3       6 GLP5        0.0000 
     41 CA        -36.3350   15.1835   79.3738 C.3       3 GLC5        0.0000 
     42 CA        -34.8450   16.2870   78.4660 C.3       9 GLL5        0.0000 
     43 CA        -36.2437   14.3725   80.0457 C.3       3 GLC5        0.0000 
     44 CA        -34.8120   15.4480   80.7530 C.3       9 GLL5        0.0000 
@<TRIPOS>BOND
@<TRIPOS>SUBSTRUCTURE
     1 SEC2       15 GROUP        1 X    SEC  0     ROOT SEC X 2
     2 LYC4       12 GROUP        1 X    LYC  0     **** LYC X 4
     3 GLC5        1 GROUP        1 X    GLC  0     **** GLC X 6
     4 SEP2       17 GROUP        1 Y    SEP  0     ROOT SEP Y 9
     5 LYP4       14 GROUP        1 Y    LYP  0     **** LYP Y 11
     6 GLP5        3 GROUP        1 Y    GLP  0     **** GLP Y 13
     7 SEL2       16 GROUP        1 Z    SEL  0     ROOT SEL Z 16
     8 LYL4       13 GROUP        1 Z    LYL  0     **** LYL Z 18
     9 GLL5        2 GROUP        1 Z    GLL  0     **** GLL Z 20
@<TRIPOS>SET

