#    Name: 1eyn_2AN_1_ligand
#    Modification time : Tue Mar 25 00:24:05 2014

@<TRIPOS>MOLECULE
1eyn_2AN_1_ligand
   33    35     1     0     0
SMALL
NO_CHARGES


@<TRIPOS>ATOM
      1 C1        -33.8320   11.4280   78.9410 C.ar      1 2AN550      0.0000 
      2 C2        -32.7570   11.6190   79.8880 C.ar      1 2AN550      0.0000 
      3 C3        -32.1370   10.5570   80.5560 C.ar      1 2AN550      0.0000 
      4 C4        -32.5700    9.2300   80.3040 C.ar      1 2AN550      0.0000 
      5 C5        -33.6070    8.9800   79.3910 C.ar      1 2AN550      0.0000 
      6 C6        -33.9860    7.6200   79.1810 C.ar      1 2AN550      0.0000 
      7 C7        -35.0150    7.3190   78.2800 C.ar      1 2AN550      0.0000 
      8 C8        -35.6700    8.3550   77.5750 C.ar      1 2AN550      0.0000 
      9 N         -34.3760   12.5550   78.3350 N.pl3     1 2AN550      0.0000 
     10 S         -36.1550   10.5810   76.8850 S.o2      1 2AN550      0.0000 
     11 C9        -35.3470    9.7270   77.7260 C.ar      1 2AN550      0.0000 
     12 C10       -34.2850   10.0750   78.6690 C.ar      1 2AN550      0.0000 
     13 C11       -34.5090   13.8470   78.8660 C.ar      1 2AN550      0.0000 
     14 C12       -34.6250   14.9560   77.9590 C.ar      1 2AN550      0.0000 
     15 C13       -34.8450   16.2870   78.4660 C.ar      1 2AN550      0.0000 
     16 C14       -34.9390   16.5270   79.8710 C.ar      1 2AN550      0.0000 
     17 C15       -34.8120   15.4480   80.7530 C.ar      1 2AN550      0.0000 
     18 C16       -34.6070   14.1220   80.2720 C.ar      1 2AN550      0.0000 
     19 O1        -35.1650   11.5950   75.8810 O.co2     1 2AN550      0.0000 
     20 O2        -37.1680    9.5140   75.8480 O.co2     1 2AN550      0.0000 
     21 O3        -37.2290   11.5690   77.9180 O.co2     1 2AN550      0.0000 
     22 H         -32.4451   12.5929   80.0673 H         1 2AN550      0.0000 
     23 H         -31.3825   10.7261   81.2174 H         1 2AN550      0.0000 
     24 H         -32.1185    8.4520   80.7953 H         1 2AN550      0.0000 
     25 H         -33.5036    6.8815   79.6892 H         1 2AN550      0.0000 
     26 H         -35.2986    6.3465   78.1269 H         1 2AN550      0.0000 
     27 H         -36.4314    8.0976   76.9082 H         1 2AN550      0.0000 
     28 H         -34.7457   12.4235   77.3234 H         1 2AN550      0.0000 
     29 H         -34.5521   14.8033   76.9598 H         1 2AN550      0.0000 
     30 H         -34.9338   17.0619   77.8104 H         1 2AN550      0.0000 
     31 H         -35.0954   17.4688   80.2106 H         1 2AN550      0.0000 
     32 H         -34.8660   15.6030   81.7693 H         1 2AN550      0.0000 
     33 H         -34.5276   13.3482   80.9376 H         1 2AN550      0.0000 
@<TRIPOS>BOND
     1    2    1 ar   
     2    9    1 1    
     3   12    1 ar   
     4    3    2 ar   
     5   22    2 1    
     6    4    3 ar   
     7   23    3 1    
     8    5    4 ar   
     9   24    4 1    
    10    6    5 ar   
    11   12    5 ar   
    12    7    6 ar   
    13   25    6 1    
    14    8    7 ar   
    15   26    7 1    
    16   11    8 ar   
    17   27    8 1    
    18   13    9 1    
    19   28    9 1    
    20   11   10 1    
    21   19   10 ar   
    22   20   10 ar   
    23   21   10 ar   
    24   12   11 ar   
    25   14   13 ar   
    26   18   13 ar   
    27   15   14 ar   
    28   29   14 1    
    29   16   15 ar   
    30   30   15 1    
    31   17   16 ar   
    32   31   16 1    
    33   18   17 ar   
    34   32   17 1    
    35   33   18 1    
@<TRIPOS>SUBSTRUCTURE
     1 2AN550      1 GROUP   
@<TRIPOS>SET

