#    Name: 2nq8_ZID_1_INTS_M
#    Modification time : Tue Mar 25 21:30:09 2014

@<TRIPOS>MOLECULE
2nq8_ZID_1_INTS_M
   88     0     9     0     0
SMALL
NO_CHARGES


@<TRIPOS>ATOM
      1 CA         52.1105   88.0005   38.4040 C.3       3 GLC5        0.0000 
      2 CA         50.5480   86.5030   38.8990 C.3       9 GLL5        0.0000 
      3 CA         53.6730   89.4980   37.9090 C.3       6 GLP5        0.0000 
      4 CA         49.8310   83.7370   39.4020 C.3       3 GLC5        0.0000 
      5 CA         51.2500   85.1660   38.8470 C.3       9 GLL5        0.0000 
      6 CA         48.4120   82.3080   39.9570 C.3       6 GLP5        0.0000 
      7 O          52.0625   83.5150   42.0255 O.2       1 ALC1        0.0000 
      8 O          52.0210   84.6310   41.0140 O.2       7 ALL1        0.0000 
      9 O          52.1040   82.3990   43.0370 O.2       4 ALP1        0.0000 
     10 CA         53.8760   81.8475   39.4270 C.3       3 GLC5        0.0000 
     11 CA         53.2870   83.9730   39.0790 C.3       9 GLL5        0.0000 
     12 CA         54.4650   79.7220   39.7750 C.3       6 GLP5        0.0000 
     13 CA         50.5665   83.2995   37.2030 C.3       3 GLC5        0.0000 
     14 CA         52.3460   83.5690   37.9550 C.3       9 GLL5        0.0000 
     15 CA         48.7870   83.0300   36.4510 C.3       6 GLP5        0.0000 
     16 CA         50.9915   81.3435   35.0990 C.3       3 GLC5        0.0000 
     17 CA         52.8880   80.7000   35.9770 C.3       9 GLL5        0.0000 
     18 CA         49.0950   81.9870   34.2210 C.3       6 GLP5        0.0000 
     19 CA         52.3410   77.3160   36.2120 C.3       3 GLC5        0.0000 
     20 CA         52.4360   79.3530   35.7500 C.3       9 GLL5        0.0000 
     21 CA         52.2460   75.2790   36.6740 C.3       6 GLP5        0.0000 
     22 CA         50.8715   78.6805   34.8945 C.3       3 GLC5        0.0000 
     23 CA         49.3070   78.0080   34.0390 C.3       6 GLP5        0.0000 
     24 O          53.2870   77.3870   34.5655 O.2       1 ALC1        0.0000 
     25 O          52.6790   78.8900   34.6990 O.2       7 ALL1        0.0000 
     26 O          53.8950   75.8840   34.4320 O.2       4 ALP1        0.0000 
     27 N          51.3050   77.5830   35.9205 N.am      2 SEC2        0.0000 
     28 N          51.7630   78.7110   36.7590 N.am      8 SEL2        0.0000 
     29 N          50.8470   76.4550   35.0820 N.am      5 SEP2        0.0000 
     30 CA         52.9860   79.5100   38.8710 C.3       3 GLC5        0.0000 
     31 CA         51.5070   79.2980   37.9670 C.3       9 GLL5        0.0000 
     32 CA         51.8765   77.2885   37.3205 C.3       3 GLC5        0.0000 
     33 CA         49.7560   79.9925   37.0085 C.3       3 GLC5        0.0000 
     34 CA         48.0050   80.6870   36.0500 C.3       6 GLP5        0.0000 
     35 CA         50.7160   82.1765   36.8300 C.3       3 GLC5        0.0000 
     36 CA         52.6450   81.3230   37.2090 C.3       9 GLL5        0.0000 
     37 N          50.2640   92.2935   40.0815 N.am      2 SEC2        0.0000 
     38 N          48.6990   91.7270   39.5480 N.am      8 SEL2        0.0000 
     39 N          51.8290   92.8600   40.6150 N.am      5 SEP2        0.0000 
     40 CA         45.9215   86.9285   37.5310 C.3       3 GLC5        0.0000 
     41 CA         46.8150   88.7790   37.1430 C.3       9 GLL5        0.0000 
     42 CA         45.0280   85.0780   37.9190 C.3       6 GLP5        0.0000 
     43 CA         47.8730   86.5105   36.0000 C.3       3 GLC5        0.0000 
     44 CA         47.3710   88.5280   35.7240 C.3       9 GLL5        0.0000 
     45 CA         48.3750   84.4930   36.2760 C.3       6 GLP5        0.0000 
     46 O          47.2210   86.2780   34.3975 O.2       1 ALC1        0.0000 
     47 O          46.5420   87.7690   34.8530 O.2       7 ALL1        0.0000 
     48 O          47.9000   84.7870   33.9420 O.2       4 ALP1        0.0000 
     49 CA         47.2255   89.9575   33.0755 C.3       3 GLC5        0.0000 
     50 CA         47.6530   89.9480   35.2580 C.3       9 GLL5        0.0000 
     51 CA         46.7980   89.9670   30.8930 C.3       6 GLP5        0.0000 
     52 N          47.1830   89.6365   32.9340 N.am      2 SEC2        0.0000 
     53 N          47.9790   90.2920   33.9080 N.am      8 SEL2        0.0000 
     54 N          46.3870   88.9810   31.9600 N.am      5 SEP2        0.0000 
     55 CA         45.8335   91.6070   37.6805 C.3       3 GLC5        0.0000 
     56 CA         46.4480   90.6760   35.7820 C.3       9 GLL5        0.0000 
     57 CA         45.2190   92.5380   39.5790 C.3       6 GLP5        0.0000 
     58 N          48.3625   97.1160   38.7000 N.am      2 SEC2        0.0000 
     59 N          48.5250   96.2920   37.7680 N.am      8 SEL2        0.0000 
     60 N          48.2000   97.9400   39.6320 N.am      5 SEP2        0.0000 
     61 O          49.8920   95.3430   39.3045 O.2       1 ALC1        0.0000 
     62 O          49.3580   94.2730   38.4190 O.2       7 ALL1        0.0000 
     63 O          50.4260   96.4130   40.1900 O.2       4 ALP1        0.0000 
     64 CA         44.4360   94.6045   35.7705 C.3       3 GLC5        0.0000 
     65 CA         46.2900   94.2770   34.5510 C.3       9 GLL5        0.0000 
     66 CA         42.5820   94.9320   36.9900 C.3       6 GLP5        0.0000 
     67 CA         50.1475  100.6525   34.0075 C.3       3 GLC5        0.0000 
     68 CA         49.6180   98.9590   33.3060 C.3       9 GLL5        0.0000 
     69 CA         50.6770  102.3460   34.7090 C.3       6 GLP5        0.0000 
     70 CA         47.8255   99.9645   35.9455 C.3       3 GLC5        0.0000 
     71 CA         47.5070   99.3890   34.3770 C.3       9 GLL5        0.0000 
     72 CA         48.1440  100.5400   37.5140 C.3       6 GLP5        0.0000 
     73 CA         49.0920  100.8675   34.5430 C.3       3 GLC5        0.0000 
     74 CA         49.6370   85.1637   37.5745 C.3       3 GLC5        0.0000 
     75 CA         53.6158   80.3667   38.1840 C.3       3 GLC5        0.0000 
     76 CA         48.7130   88.3785   34.3790 C.3       3 GLC5        0.0000 
     77 CA         49.9140   87.5190   33.2670 C.3       6 GLP5        0.0000 
     78 CA         45.9705   94.1488   32.7985 C.3       3 GLC5        0.0000 
     79 CA         46.0600   92.8880   34.6790 C.3       9 GLL5        0.0000 
     80 CA         45.7660   94.7150   30.9820 C.3       6 GLP5        0.0000 
     81 CA         47.6130   98.4283   36.1820 C.3       3 GLC5        0.0000 
     82 CA         48.4040   97.1010   34.3240 C.3       9 GLL5        0.0000 
     83 CA         47.3340   99.2950   37.8480 C.3       6 GLP5        0.0000 
     84 CA         45.5802   98.8963   35.5577 C.3       3 GLC5        0.0000 
     85 CA         47.3800   98.0220   34.7080 C.3       9 GLL5        0.0000 
     86 CA         43.7170   99.0870   36.5730 C.3       6 GLP5        0.0000 
     87 CA         45.1739   89.4144   35.9579 C.3       3 GLC5        0.0000 
     88 CA         43.2760   89.3460   35.9390 C.3       6 GLP5        0.0000 
@<TRIPOS>BOND
@<TRIPOS>SUBSTRUCTURE
     1 ALC1        7 GROUP        1 X    ALC  0     ROOT ALC X 1
     2 SEC2       27 GROUP        1 X    SEC  0     **** SEC X 2
     3 GLC5        1 GROUP        1 X    GLC  0     **** GLC X 6
     4 ALP1        9 GROUP        1 Y    ALP  0     ROOT ALP Y 8
     5 SEP2       29 GROUP        1 Y    SEP  0     **** SEP Y 9
     6 GLP5        3 GROUP        1 Y    GLP  0     **** GLP Y 13
     7 ALL1        8 GROUP        1 Z    ALL  0     ROOT ALL Z 15
     8 SEL2       28 GROUP        1 Z    SEL  0     **** SEL Z 16
     9 GLL5        2 GROUP        1 Z    GLL  0     **** GLL Z 20
@<TRIPOS>SET

