#    Name: 2nq8_ZID_1_ligand
#    Modification time : Tue Mar 25 21:30:09 2014

@<TRIPOS>MOLECULE
2nq8_ZID_1_ligand
   81    86     1     0     0
SMALL
NO_CHARGES


@<TRIPOS>ATOM
      1 PA         50.3580   88.1340   41.1560 P.3       1 ZID550      0.0000 
      2 O1A        48.9270   87.6240   41.3380 O.co2     1 ZID550      0.0000 
      3 O2A        51.2000   89.3130   41.5180 O.co2     1 ZID550      0.0000 
      4 O5B        51.0460   87.6080   39.7330 O.3       1 ZID550      0.0000 
      5 C5B        50.5480   86.5030   38.8990 C.3       1 ZID550      0.0000 
      6 C4B        51.2500   85.1660   38.8470 C.3       1 ZID550      0.0000 
      7 O4B        51.8500   84.8270   37.5340 O.3       1 ZID550      0.0000 
      8 C3B        52.4650   85.0420   39.7360 C.3       1 ZID550      0.0000 
      9 O3B        52.0210   84.6310   41.0140 O.3       1 ZID550      0.0000 
     10 C2B        53.2870   83.9730   39.0790 C.3       1 ZID550      0.0000 
     11 O2B        53.7240   82.9190   39.9610 O.3       1 ZID550      0.0000 
     12 C1B        52.3460   83.5690   37.9550 C.3       1 ZID550      0.0000 
     13 N9A        53.2010   82.5560   37.1110 N.pl3     1 ZID550      0.0000 
     14 C8A        53.7120   82.5990   35.8480 C.2       1 ZID550      0.0000 
     15 N7A        53.5310   81.4630   35.1500 N.2       1 ZID550      0.0000 
     16 C5A        52.8880   80.7000   35.9770 C.ar      1 ZID550      0.0000 
     17 C6A        52.4360   79.3530   35.7500 C.ar      1 ZID550      0.0000 
     18 N6A        52.6790   78.8900   34.6990 N.pl3     1 ZID550      0.0000 
     19 N1A        51.7630   78.7110   36.7590 N.ar      1 ZID550      0.0000 
     20 C2A        51.5070   79.2980   37.9670 C.ar      1 ZID550      0.0000 
     21 N3A        51.9140   80.5600   38.2370 N.ar      1 ZID550      0.0000 
     22 C4A        52.6450   81.3230   37.2090 C.ar      1 ZID550      0.0000 
     23 O3         49.3640   89.2980   40.5720 O.3       1 ZID550      0.0000 
     24 PN         49.4720   90.4590   39.4870 P.3       1 ZID550      0.0000 
     25 O1N        48.6990   91.7270   39.5480 O.co2     1 ZID550      0.0000 
     26 O2N        50.0240   89.8520   38.2440 O.co2     1 ZID550      0.0000 
     27 O5D        48.0220   89.8270   39.0610 O.3       1 ZID550      0.0000 
     28 C5D        47.8050   88.6040   38.3230 C.3       1 ZID550      0.0000 
     29 C4D        46.8150   88.7790   37.1430 C.3       1 ZID550      0.0000 
     30 O4D        46.3000   90.1470   37.1300 O.3       1 ZID550      0.0000 
     31 C3D        47.3710   88.5280   35.7240 C.3       1 ZID550      0.0000 
     32 O3D        46.5420   87.7690   34.8530 O.3       1 ZID550      0.0000 
     33 C2D        47.6530   89.9480   35.2580 C.3       1 ZID550      0.0000 
     34 O2D        47.9790   90.2920   33.9080 O.3       1 ZID550      0.0000 
     35 C1D        46.4480   90.6760   35.7820 C.3       1 ZID550      0.0000 
     36 N1N        46.6600   92.1730   35.7620 N.pl3     1 ZID550      0.0000 
     37 C2N        47.4660   92.8510   36.7330 C.ar      1 ZID550      0.0000 
     38 C3N        47.7020   94.2510   36.6120 C.ar      1 ZID550      0.0000 
     39 C7N        48.5680   95.0510   37.6570 C.2       1 ZID550      0.0000 
     40 O7N        48.5250   96.2920   37.7680 O.2       1 ZID550      0.0000 
     41 N7N        49.3580   94.2730   38.4190 N.am      1 ZID550      0.0000 
     42 C4N        47.1280   94.9600   35.4810 C.ar      1 ZID550      0.0000 
     43 C5N        46.2900   94.2770   34.5510 C.ar      1 ZID550      0.0000 
     44 C6N        46.0600   92.8880   34.6790 C.ar      1 ZID550      0.0000 
     45 C7Z        48.3150   95.6030   34.6690 C.2       1 ZID550      0.0000 
     46 O7Z        49.2540   94.8550   34.2920 O.2       1 ZID550      0.0000 
     47 N1Z        48.6210   99.8030   33.6920 N.ar      1 ZID550      0.0000 
     48 C2Z        49.6180   98.9590   33.3060 C.ar      1 ZID550      0.0000 
     49 C3Z        49.5440   97.5770   33.6040 C.ar      1 ZID550      0.0000 
     50 C4Z        48.4040   97.1010   34.3240 C.ar      1 ZID550      0.0000 
     51 C5Z        47.3800   98.0220   34.7080 C.ar      1 ZID550      0.0000 
     52 C6Z        47.5070   99.3890   34.3770 C.ar      1 ZID550      0.0000 
     53 H          50.4446   86.8743   37.8193 H         1 ZID550      0.0000 
     54 H          49.4528   86.3010   39.1712 H         1 ZID550      0.0000 
     55 H          50.5745   84.3603   39.1192 H         1 ZID550      0.0000 
     56 H          52.9838   85.9513   39.7303 H         1 ZID550      0.0000 
     57 H          54.1260   84.4902   38.5959 H         1 ZID550      0.0000 
     58 H          51.5725   82.9801   38.4865 H         1 ZID550      0.0000 
     59 H          54.1765   83.4042   35.4827 H         1 ZID550      0.0000 
     60 H          52.7494   79.5363   33.9391 H         1 ZID550      0.0000 
     61 H          52.7908   77.8966   34.6710 H         1 ZID550      0.0000 
     62 H          50.9845   78.7545   38.6946 H         1 ZID550      0.0000 
     63 H          47.3994   87.8080   38.9737 H         1 ZID550      0.0000 
     64 H          48.7498   88.2156   37.9012 H         1 ZID550      0.0000 
     65 H          45.9729   88.0996   37.2929 H         1 ZID550      0.0000 
     66 H          48.3602   88.0677   35.8799 H         1 ZID550      0.0000 
     67 H          48.4828   90.3124   35.9641 H         1 ZID550      0.0000 
     68 H          45.6052   90.4065   35.1843 H         1 ZID550      0.0000 
     69 H          47.8681   92.3304   37.5071 H         1 ZID550      0.0000 
     70 H          49.8938   94.7431   39.1204 H         1 ZID550      0.0000 
     71 H          49.3390   93.2940   38.2161 H         1 ZID550      0.0000 
     72 H          45.8551   94.8001   33.7885 H         1 ZID550      0.0000 
     73 H          45.4755   92.3964   34.0120 H         1 ZID550      0.0000 
     74 H          50.4430   99.3063   32.7916 H         1 ZID550      0.0000 
     75 H          50.2695   96.9425   33.3201 H         1 ZID550      0.0000 
     76 H          46.5668   97.6865   35.2171 H         1 ZID550      0.0000 
     77 H          46.7732  100.0422   34.6508 H         1 ZID550      0.0000 
     78 H          52.5824   83.8346   41.2391 H         1 ZID550      0.0000 
     79 H          53.2955   82.0889   39.6043 H         1 ZID550      0.0000 
     80 H          47.0686   86.9439   34.6484 H         1 ZID550      0.0000 
     81 H          48.9758   90.2286   33.8584 H         1 ZID550      0.0000 
@<TRIPOS>BOND
     1    2    1 ar   
     2    3    1 ar   
     3    4    1 1    
     4   23    1 1    
     5    5    4 1    
     6    6    5 1    
     7   53    5 1    
     8   54    5 1    
     9    7    6 1    
    10    8    6 1    
    11   55    6 1    
    12   12    7 1    
    13    9    8 1    
    14   10    8 1    
    15   56    8 1    
    16   78    9 1    
    17   11   10 1    
    18   12   10 1    
    19   57   10 1    
    20   79   11 1    
    21   13   12 1    
    22   58   12 1    
    23   14   13 1    
    24   22   13 1    
    25   15   14 2    
    26   59   14 1    
    27   16   15 1    
    28   17   16 ar   
    29   22   16 ar   
    30   18   17 1    
    31   19   17 ar   
    32   60   18 1    
    33   61   18 1    
    34   20   19 ar   
    35   21   20 ar   
    36   62   20 1    
    37   22   21 ar   
    38   24   23 1    
    39   25   24 ar   
    40   26   24 ar   
    41   27   24 1    
    42   28   27 1    
    43   29   28 1    
    44   63   28 1    
    45   64   28 1    
    46   30   29 1    
    47   31   29 1    
    48   65   29 1    
    49   35   30 1    
    50   32   31 1    
    51   33   31 1    
    52   66   31 1    
    53   80   32 1    
    54   34   33 1    
    55   35   33 1    
    56   67   33 1    
    57   81   34 1    
    58   36   35 1    
    59   68   35 1    
    60   37   36 ar   
    61   44   36 ar   
    62   38   37 ar   
    63   69   37 1    
    64   39   38 1    
    65   42   38 ar   
    66   40   39 2    
    67   41   39 am   
    68   70   41 1    
    69   71   41 1    
    70   43   42 ar   
    71   45   42 1    
    72   44   43 ar   
    73   72   43 1    
    74   73   44 1    
    75   46   45 2    
    76   50   45 1    
    77   48   47 ar   
    78   52   47 ar   
    79   49   48 ar   
    80   74   48 1    
    81   50   49 ar   
    82   75   49 1    
    83   51   50 ar   
    84   52   51 ar   
    85   76   51 1    
    86   77   52 1    
@<TRIPOS>SUBSTRUCTURE
     1 ZID550      1 GROUP   
@<TRIPOS>SET

