#    Name: 3hbl_ADP_1_INTS_M
#    Modification time : Tue Mar 25 13:54:28 2014

@<TRIPOS>MOLECULE
3hbl_ADP_1_INTS_M
   54     0    12     0     0
SMALL
NO_CHARGES


@<TRIPOS>ATOM
      1 NZ         61.1695   41.7240  -21.6935 N.4       3 LYC4        0.0000 
      2 NZ         59.7310   40.9540  -20.7890 N.4      11 LYL4        0.0000 
      3 NZ         62.6080   42.4940  -22.5980 N.4       7 LYP4        0.0000 
      4 NZ         62.6740   43.6830  -21.6530 N.4       3 LYC4        0.0000 
      5 NZ         62.7400   44.8720  -20.7080 N.4      11 LYL4        0.0000 
      6 NZ         64.1835   45.3065  -21.8065 N.4       3 LYC4        0.0000 
      7 NZ         65.6270   45.7410  -22.9050 N.4       7 LYP4        0.0000 
      8 N          61.8975   42.6950  -21.5510 N.am      2 SEC2        0.0000 
      9 N          61.1870   42.8960  -20.5040 N.am     10 SEL2        0.0000 
     10 N          62.6080   42.4940  -22.5980 N.am      6 SEP2        0.0000 
     11 N          59.9900   47.2620  -15.1850 N.am      2 SEC2        0.0000 
     12 N          60.6600   47.4040  -16.2620 N.am     10 SEL2        0.0000 
     13 N          59.3200   47.1200  -14.1080 N.am      6 SEP2        0.0000 
     14 O          59.7015   48.0670  -16.9350 O.2       1 ALC1        0.0000 
     15 O          60.6600   47.4040  -16.2620 O.2       9 ALL1        0.0000 
     16 O          58.7430   48.7300  -17.6080 O.2       5 ALP1        0.0000 
     17 O          62.1680   47.5700  -14.2165 O.2       1 ALC1        0.0000 
     18 O          62.9480   48.2330  -15.1620 O.2       9 ALL1        0.0000 
     19 O          61.3880   46.9070  -13.2710 O.2       5 ALP1        0.0000 
     20 CA         64.7890   45.1120  -15.3795 C.3       4 GLC5        0.0000 
     21 CA         64.2110   46.7550  -16.5790 C.3      12 GLL5        0.0000 
     22 CA         65.3670   43.4690  -14.1800 C.3       8 GLP5        0.0000 
     23 CA         66.6485   46.4300  -20.8635 C.3       4 GLC5        0.0000 
     24 CA         66.5010   47.9280  -19.2560 C.3      12 GLL5        0.0000 
     25 CA         66.7960   44.9320  -22.4710 C.3       8 GLP5        0.0000 
     26 CA         69.1840   47.7125  -19.6575 C.3       4 GLC5        0.0000 
     27 CA         67.5770   48.8840  -19.6290 C.3      12 GLL5        0.0000 
     28 CA         70.7910   46.5410  -19.6860 C.3       8 GLP5        0.0000 
     29 CA         69.6040   49.7810  -19.3795 C.3       4 GLC5        0.0000 
     30 CA         71.6310   50.6780  -19.1300 C.3       8 GLP5        0.0000 
     31 O          67.6630   48.5030  -22.1545 O.2       1 ALC1        0.0000 
     32 O          68.1070   48.8760  -20.8760 O.2       9 ALL1        0.0000 
     33 O          67.2190   48.1300  -23.4330 O.2       5 ALP1        0.0000 
     34 O          69.2825   49.7695  -21.2490 O.2       1 ALC1        0.0000 
     35 O          70.4580   50.6630  -21.6220 O.2       5 ALP1        0.0000 
     36 N          68.9575   51.0300  -18.6465 N.am      2 SEC2        0.0000 
     37 N          68.0100   49.7600  -18.6870 N.am     10 SEL2        0.0000 
     38 N          69.9050   52.3000  -18.6060 N.am      6 SEP2        0.0000 
     39 CA         68.0965   47.8680  -17.2400 C.3       4 GLC5        0.0000 
     40 CA         67.4840   49.7760  -17.4460 C.3      12 GLL5        0.0000 
     41 CA         68.7090   45.9600  -17.0340 C.3       8 GLP5        0.0000 
     42 CA         68.4270   51.6915  -17.8385 C.3       4 GLC5        0.0000 
     43 CA         69.3700   53.6070  -18.2310 C.3       8 GLP5        0.0000 
     44 CA         65.9770   50.3850  -18.3720 C.3       4 GLC5        0.0000 
     45 CA         64.4700   50.9940  -19.2980 C.3       8 GLP5        0.0000 
     46 CA         62.8678   44.0370  -15.5888 C.3       4 GLC5        0.0000 
     47 CA         62.1930   45.5470  -16.4920 C.3      12 GLL5        0.0000 
     48 CA         63.9330   43.0550  -14.2960 C.3       8 GLP5        0.0000 
     49 CA         62.2430   49.0045  -17.7308 C.3       4 GLC5        0.0000 
     50 CA         61.8450   46.9580  -16.9180 C.3      12 GLL5        0.0000 
     51 CA         62.0300   50.6530  -18.7500 C.3       8 GLP5        0.0000 
     52 CA         67.4745   46.9630  -17.8015 C.3       4 GLC5        0.0000 
     53 CA         65.9790   48.0040  -17.8820 C.3      12 GLL5        0.0000 
     54 CA         65.4895   49.5995  -18.9801 C.3       4 GLC5        0.0000 
@<TRIPOS>BOND
@<TRIPOS>SUBSTRUCTURE
     1 ALC1       14 GROUP        1 X    ALC  0     ROOT ALC X 1
     2 SEC2        8 GROUP        1 X    SEC  0     **** SEC X 2
     3 LYC4        1 GROUP        1 X    LYC  0     **** LYC X 4
     4 GLC5       20 GROUP        1 X    GLC  0     **** GLC X 6
     5 ALP1       16 GROUP        1 Y    ALP  0     ROOT ALP Y 8
     6 SEP2       10 GROUP        1 Y    SEP  0     **** SEP Y 9
     7 LYP4        3 GROUP        1 Y    LYP  0     **** LYP Y 11
     8 GLP5       22 GROUP        1 Y    GLP  0     **** GLP Y 13
     9 ALL1       15 GROUP        1 Z    ALL  0     ROOT ALL Z 15
    10 SEL2        9 GROUP        1 Z    SEL  0     **** SEL Z 16
    11 LYL4        2 GROUP        1 Z    LYL  0     **** LYL Z 18
    12 GLL5       21 GROUP        1 Z    GLL  0     **** GLL Z 20
@<TRIPOS>SET

