#    Name: 3hbl_ADP_1_ligand
#    Modification time : Tue Mar 25 13:54:28 2014

@<TRIPOS>MOLECULE
3hbl_ADP_1_ligand
   39    41     1     0     0
SMALL
NO_CHARGES


@<TRIPOS>ATOM
      1 PB         60.2940   41.8290  -19.6930 P.3       1 ADP2100     0.0000 
      2 O1B        59.7310   40.9540  -20.7890 O.co2     1 ADP2100     0.0000 
      3 O2B        61.2970   41.1330  -18.8060 O.co2     1 ADP2100     0.0000 
      4 O3B        59.2530   42.6470  -18.9570 O.co2     1 ADP2100     0.0000 
      5 PA         61.5620   44.3500  -19.9190 P.3       1 ADP2100     0.0000 
      6 O1A        60.2790   45.1540  -19.8500 O.co2     1 ADP2100     0.0000 
      7 O2A        62.7400   44.8720  -20.7080 O.co2     1 ADP2100     0.0000 
      8 O3A        61.1870   42.8960  -20.5040 O.3       1 ADP2100     0.0000 
      9 O5'        62.1120   44.0450  -18.4320 O.3       1 ADP2100     0.0000 
     10 C5'        61.4120   44.4910  -17.2710 C.3       1 ADP2100     0.0000 
     11 C4'        62.1930   45.5470  -16.4920 C.3       1 ADP2100     0.0000 
     12 O4'        63.6110   45.4530  -16.6600 O.3       1 ADP2100     0.0000 
     13 C3'        61.8450   46.9580  -16.9180 C.3       1 ADP2100     0.0000 
     14 O3'        60.6600   47.4040  -16.2620 O.3       1 ADP2100     0.0000 
     15 C2'        63.0670   47.7540  -16.5050 C.3       1 ADP2100     0.0000 
     16 O2'        62.9480   48.2330  -15.1620 O.3       1 ADP2100     0.0000 
     17 C1'        64.2110   46.7550  -16.5790 C.3       1 ADP2100     0.0000 
     18 N9         65.0330   47.0580  -17.7860 N.pl3     1 ADP2100     0.0000 
     19 C8         64.9440   46.4320  -18.9760 C.2       1 ADP2100     0.0000 
     20 N7         65.8240   46.9430  -19.8720 N.2       1 ADP2100     0.0000 
     21 C5         66.5010   47.9280  -19.2560 C.ar      1 ADP2100     0.0000 
     22 C6         67.5770   48.8840  -19.6290 C.ar      1 ADP2100     0.0000 
     23 N6         68.1070   48.8760  -20.8760 N.pl3     1 ADP2100     0.0000 
     24 N1         68.0100   49.7600  -18.6870 N.ar      1 ADP2100     0.0000 
     25 C2         67.4840   49.7760  -17.4460 C.ar      1 ADP2100     0.0000 
     26 N3         66.5070   48.9360  -17.0430 N.ar      1 ADP2100     0.0000 
     27 C4         65.9790   48.0040  -17.8820 C.ar      1 ADP2100     0.0000 
     28 H          61.2024   43.6536  -16.5776 H         1 ADP2100     0.0000 
     29 H          60.4301   44.9301  -17.5337 H         1 ADP2100     0.0000 
     30 H          61.9404   45.4629  -15.4338 H         1 ADP2100     0.0000 
     31 H          61.7772   46.9736  -17.9801 H         1 ADP2100     0.0000 
     32 H          63.2414   48.5169  -17.2129 H         1 ADP2100     0.0000 
     33 H          64.7989   46.8613  -15.6946 H         1 ADP2100     0.0000 
     34 H          64.3206   45.6965  -19.1742 H         1 ADP2100     0.0000 
     35 H          68.8424   49.5320  -21.0457 H         1 ADP2100     0.0000 
     36 H          67.7158   48.2148  -21.5162 H         1 ADP2100     0.0000 
     37 H          67.8577   50.4875  -16.7469 H         1 ADP2100     0.0000 
     38 H          60.0596   47.7177  -16.9976 H         1 ADP2100     0.0000 
     39 H          62.3188   47.5969  -14.7153 H         1 ADP2100     0.0000 
@<TRIPOS>BOND
     1    2    1 ar   
     2    3    1 ar   
     3    4    1 ar   
     4    8    1 1    
     5    6    5 ar   
     6    7    5 ar   
     7    8    5 1    
     8    9    5 1    
     9   10    9 1    
    10   11   10 1    
    11   28   10 1    
    12   29   10 1    
    13   12   11 1    
    14   13   11 1    
    15   30   11 1    
    16   17   12 1    
    17   14   13 1    
    18   15   13 1    
    19   31   13 1    
    20   38   14 1    
    21   16   15 1    
    22   17   15 1    
    23   32   15 1    
    24   39   16 1    
    25   18   17 1    
    26   33   17 1    
    27   19   18 1    
    28   27   18 1    
    29   20   19 2    
    30   34   19 1    
    31   21   20 1    
    32   22   21 ar   
    33   27   21 ar   
    34   23   22 1    
    35   24   22 ar   
    36   35   23 1    
    37   36   23 1    
    38   25   24 ar   
    39   26   25 ar   
    40   37   25 1    
    41   27   26 ar   
@<TRIPOS>SUBSTRUCTURE
     1 ADP2100     1 GROUP   
@<TRIPOS>SET

