#    Name: 1tkt_H12_1_INTS_M
#    Modification time : Tue Mar 25 05:27:12 2014

@<TRIPOS>MOLECULE
1tkt_H12_1_INTS_M
   74     0     9     0     0
SMALL
NO_CHARGES


@<TRIPOS>ATOM
      1 CA          2.2095  -34.8695   21.3275 C.3       3 GLC5        0.0000 
      2 CA          2.1270  -36.3630   22.7920 C.3       9 GLL5        0.0000 
      3 CA          2.2920  -33.3760   19.8630 C.3       6 GLP5        0.0000 
      4 CA          4.1155  -35.0805   21.2420 C.3       3 GLC5        0.0000 
      5 CA          3.6500  -35.9490   23.0730 C.3       9 GLL5        0.0000 
      6 CA          4.5810  -34.2120   19.4110 C.3       6 GLP5        0.0000 
      7 CA          4.5460  -33.2675   25.1835 C.3       3 GLC5        0.0000 
      8 CA          3.8040  -34.7460   24.0390 C.3       9 GLL5        0.0000 
      9 CA          5.2880  -31.7890   26.3280 C.3       6 GLP5        0.0000 
     10 CA          2.3830  -36.2905   26.8995 C.3       3 GLC5        0.0000 
     11 CA          3.1210  -35.0430   25.3880 C.3       9 GLL5        0.0000 
     12 CA          1.6450  -37.5380   28.4110 C.3       6 GLP5        0.0000 
     13 CA          3.7110  -33.5340   26.3415 C.3       3 GLC5        0.0000 
     14 CA          4.3010  -32.0250   27.2950 C.3       6 GLP5        0.0000 
     15 CA          1.1075  -36.5070   26.3520 C.3       3 GLC5        0.0000 
     16 CA          1.5990  -35.2470   25.1920 C.3       9 GLL5        0.0000 
     17 CA          0.6160  -37.7670   27.5120 C.3       6 GLP5        0.0000 
     18 CA          2.2970  -33.3670   26.1920 C.3       3 GLC5        0.0000 
     19 CA          2.9950  -31.4870   27.1920 C.3       6 GLP5        0.0000 
     20 CA          0.6830  -33.5395   24.7060 C.3       3 GLC5        0.0000 
     21 CA         -0.2330  -31.8320   24.2200 C.3       6 GLP5        0.0000 
     22 CA          1.0345  -37.5360   25.3305 C.3       3 GLC5        0.0000 
     23 CA          1.2820  -36.3820   24.1780 C.3       9 GLL5        0.0000 
     24 CA          0.7870  -38.6900   26.4830 C.3       6 GLP5        0.0000 
     25 CA         -0.8165  -36.5600   24.7195 C.3       3 GLC5        0.0000 
     26 CA         -2.9150  -36.7380   25.2610 C.3       6 GLP5        0.0000 
     27 O           0.7815  -36.9115   16.6225 O.2       1 ALC1        0.0000 
     28 O           1.2040  -36.9740   17.8230 O.2       7 ALL1        0.0000 
     29 O           0.3590  -36.8490   15.4220 O.2       4 ALP1        0.0000 
     30 N           3.0130  -36.6110   16.1790 N.am      2 SEC2        0.0000 
     31 N           3.3780  -37.6170   17.4450 N.am      8 SEL2        0.0000 
     32 N           2.6480  -35.6050   14.9130 N.am      5 SEP2        0.0000 
     33 CA          1.5585  -35.3895   18.1390 C.3       3 GLC5        0.0000 
     34 CA          0.1980  -36.7050   18.7310 C.3       9 GLL5        0.0000 
     35 CA          2.9190  -34.0740   17.5470 C.3       6 GLP5        0.0000 
     36 CA         -1.4560  -36.4280   16.1240 C.3       3 GLC5        0.0000 
     37 CA         -1.0520  -36.2930   18.2630 C.3       9 GLL5        0.0000 
     38 CA         -1.8600  -36.5630   13.9850 C.3       6 GLP5        0.0000 
     39 CA         -2.9165  -37.9295   21.7295 C.3       3 GLC5        0.0000 
     40 CA         -3.1250  -35.7350   21.6560 C.3       9 GLL5        0.0000 
     41 CA         -2.7080  -40.1240   21.8030 C.3       6 GLP5        0.0000 
     42 CA         -4.6950  -36.8560   22.6155 C.3       3 GLC5        0.0000 
     43 CA         -6.2650  -37.9770   23.5750 C.3       6 GLP5        0.0000 
     44 CA         -3.0200  -36.2365   23.4585 C.3       3 GLC5        0.0000 
     45 CA         -2.7820  -33.9970   22.3640 C.3       3 GLC5        0.0000 
     46 CA         -2.4390  -32.2590   23.0720 C.3       6 GLP5        0.0000 
     47 CA         -4.6740  -34.5195   21.1615 C.3       3 GLC5        0.0000 
     48 CA         -6.2230  -33.3040   20.6670 C.3       6 GLP5        0.0000 
     49 CA         -4.3960  -36.0190   20.0235 C.3       3 GLC5        0.0000 
     50 CA         -5.6670  -36.3030   18.3910 C.3       6 GLP5        0.0000 
     51 CA          4.4950  -42.1275   21.8535 C.3       3 GLC5        0.0000 
     52 CA          3.3490  -40.3840   21.3790 C.3       9 GLL5        0.0000 
     53 CA          5.6410  -43.8710   22.3280 C.3       6 GLP5        0.0000 
     54 CA          2.7465  -40.3945   23.2955 C.3       3 GLC5        0.0000 
     55 CA          2.1440  -40.4050   25.2120 C.3       6 GLP5        0.0000 
     56 CA          4.7960  -36.3701   24.8820 C.3       3 GLC5        0.0000 
     57 CA          6.1680  -37.5450   25.2920 C.3       6 GLP5        0.0000 
     58 CA          3.9515  -36.0692   19.6705 C.3       3 GLC5        0.0000 
     59 CA          3.9630  -38.2680   20.1630 C.3       9 GLL5        0.0000 
     60 CA         -0.5895  -38.2545   17.6935 C.3       3 GLC5        0.0000 
     61 CA         -0.7520  -40.0100   16.8900 C.3       6 GLP5        0.0000 
     62 CA         -0.9467  -38.3543   19.9068 C.3       3 GLC5        0.0000 
     63 CA         -2.2060  -39.9330   20.3800 C.3       6 GLP5        0.0000 
     64 CA          1.2470  -35.0940   20.2815 C.3       3 GLC5        0.0000 
     65 CA         -0.6410  -36.5600   21.0330 C.3       9 GLL5        0.0000 
     66 CA         -1.7355  -38.1412   20.5887 C.3       3 GLC5        0.0000 
     67 CA         -3.8325  -36.1887   19.1325 C.3       3 GLC5        0.0000 
     68 CA         -1.8890  -36.1390   20.5620 C.3       9 GLL5        0.0000 
     69 CA         -1.8928  -38.0422   19.5523 C.3       3 GLC5        0.0000 
     70 CA         -2.1070  -36.0100   19.1860 C.3       9 GLL5        0.0000 
     71 CA          3.4610  -41.2343   19.2913 C.3       3 GLC5        0.0000 
     72 CA          3.3340  -42.3870   17.8600 C.3       6 GLP5        0.0000 
     73 CA          4.9035  -39.5414   22.1479 C.3       3 GLC5        0.0000 
     74 CA          6.1850  -39.3790   23.5490 C.3       6 GLP5        0.0000 
@<TRIPOS>BOND
@<TRIPOS>SUBSTRUCTURE
     1 ALC1       27 GROUP        1 X    ALC  0     ROOT ALC X 1
     2 SEC2       30 GROUP        1 X    SEC  0     **** SEC X 2
     3 GLC5        1 GROUP        1 X    GLC  0     **** GLC X 6
     4 ALP1       29 GROUP        1 Y    ALP  0     ROOT ALP Y 8
     5 SEP2       32 GROUP        1 Y    SEP  0     **** SEP Y 9
     6 GLP5        3 GROUP        1 Y    GLP  0     **** GLP Y 13
     7 ALL1       28 GROUP        1 Z    ALL  0     ROOT ALL Z 15
     8 SEL2       31 GROUP        1 Z    SEL  0     **** SEL Z 16
     9 GLL5        2 GROUP        1 Z    GLL  0     **** GLL Z 20
@<TRIPOS>SET

