#    Name: 1tkt_H12_1_ligand
#    Modification time : Tue Mar 25 05:27:12 2014

@<TRIPOS>MOLECULE
1tkt_H12_1_ligand
   44    46     1     0     0
SMALL
NO_CHARGES


@<TRIPOS>ATOM
      1 CA          2.1270  -36.3630   22.7920 C.3       1 H12999      0.0000 
      2 CB          3.6500  -35.9490   23.0730 C.3       1 H12999      0.0000 
      3 CC          3.8040  -34.7460   24.0390 C.3       1 H12999      0.0000 
      4 CD          3.1210  -35.0430   25.3880 C.3       1 H12999      0.0000 
      5 CE          1.5990  -35.2470   25.1920 C.3       1 H12999      0.0000 
      6 CF          1.2820  -36.3820   24.1780 C.3       1 H12999      0.0000 
      7 N1          1.2040  -36.9740   17.8230 N.am      1 H12999      0.0000 
      8 C6          2.4610  -37.4150   18.2550 C.2       1 H12999      0.0000 
      9 O2          3.3780  -37.6170   17.4450 O.2       1 H12999      0.0000 
     10 C5          2.6810  -37.5850   19.6970 C.2       1 H12999      0.0000 
     11 C4          1.6630  -37.2820   20.5980 C.2       1 H12999      0.0000 
     12 O4          1.8900  -37.5100   21.9700 O.3       1 H12999      0.0000 
     13 C2          0.1980  -36.7050   18.7310 C.ar      1 H12999      0.0000 
     14 C3          0.4270  -36.8460   20.1360 C.ar      1 H12999      0.0000 
     15 C7         -0.6410  -36.5600   21.0330 C.ar      1 H12999      0.0000 
     16 C8         -1.8890  -36.1390   20.5620 C.ar      1 H12999      0.0000 
     17 C9         -2.1070  -36.0100   19.1860 C.ar      1 H12999      0.0000 
     18 C10        -1.0520  -36.2930   18.2630 C.ar      1 H12999      0.0000 
     19 CL         -3.1250  -35.7350   21.6560 Cl        1 H12999      0.0000 
     20 C11         3.9630  -38.2680   20.1630 C.3       1 H12999      0.0000 
     21 C12         3.8270  -39.7790   20.0660 C.3       1 H12999      0.0000 
     22 C13         3.3490  -40.3840   21.3790 C.3       1 H12999      0.0000 
     23 H           1.6928  -35.4326   22.2651 H         1 H12999      0.0000 
     24 H           4.1083  -35.7083   22.1121 H         1 H12999      0.0000 
     25 H           4.1565  -36.8211   23.4902 H         1 H12999      0.0000 
     26 H           3.3458  -33.8727   23.5894 H         1 H12999      0.0000 
     27 H           4.8589  -34.5600   24.2042 H         1 H12999      0.0000 
     28 H           3.2817  -34.2097   26.0620 H         1 H12999      0.0000 
     29 H           3.5461  -35.9443   25.8140 H         1 H12999      0.0000 
     30 H           1.1593  -34.3183   24.8285 H         1 H12999      0.0000 
     31 H           1.1468  -35.4970   26.1517 H         1 H12999      0.0000 
     32 H           1.4638  -37.3589   24.6499 H         1 H12999      0.0000 
     33 H           0.2173  -36.3443   23.9038 H         1 H12999      0.0000 
     34 H           1.0349  -36.8508   16.8106 H         1 H12999      0.0000 
     35 H          -0.4811  -36.6683   22.0445 H         1 H12999      0.0000 
     36 H          -3.0159  -35.7142   18.8266 H         1 H12999      0.0000 
     37 H          -1.2276  -36.1892   17.2617 H         1 H12999      0.0000 
     38 H           4.1635  -37.9879   21.1955 H         1 H12999      0.0000 
     39 H           4.7920  -37.9381   19.5395 H         1 H12999      0.0000 
     40 H           4.7955  -40.2125   19.8022 H         1 H12999      0.0000 
     41 H           3.1138  -40.0273   19.2753 H         1 H12999      0.0000 
     42 H           3.2589  -41.3781   21.3188 H         1 H12999      0.0000 
     43 H           3.9823  -40.1920   22.1287 H         1 H12999      0.0000 
     44 H           2.4561  -40.0246   21.6502 H         1 H12999      0.0000 
@<TRIPOS>BOND
     1    2    1 1    
     2    6    1 1    
     3   12    1 1    
     4   23    1 1    
     5    3    2 1    
     6   24    2 1    
     7   25    2 1    
     8    4    3 1    
     9   26    3 1    
    10   27    3 1    
    11    5    4 1    
    12   28    4 1    
    13   29    4 1    
    14    6    5 1    
    15   30    5 1    
    16   31    5 1    
    17   32    6 1    
    18   33    6 1    
    19    8    7 am   
    20   13    7 1    
    21   34    7 1    
    22    9    8 2    
    23   10    8 1    
    24   11   10 2    
    25   20   10 1    
    26   12   11 1    
    27   14   11 1    
    28   14   13 ar   
    29   18   13 ar   
    30   15   14 ar   
    31   16   15 ar   
    32   35   15 1    
    33   17   16 ar   
    34   19   16 1    
    35   18   17 ar   
    36   36   17 1    
    37   37   18 1    
    38   21   20 1    
    39   38   20 1    
    40   39   20 1    
    41   22   21 1    
    42   40   21 1    
    43   41   21 1    
    44   42   22 1    
    45   43   22 1    
    46   44   22 1    
@<TRIPOS>SUBSTRUCTURE
     1 H12999      1 GROUP   
@<TRIPOS>SET

