#    Name: 2o4r_VD5_1_INTS_M
#    Modification time : Tue Mar 25 22:00:04 2014

@<TRIPOS>MOLECULE
2o4r_VD5_1_INTS_M
  120     0     9     0     0
SMALL
NO_CHARGES


@<TRIPOS>ATOM
      1 N          58.0755    8.7090    2.1830 N.am      2 SEC2        0.0000 
      2 N          58.6410    8.1120    1.1290 N.am      8 SEL2        0.0000 
      3 N          57.5100    9.3060    3.2370 N.am      5 SEP2        0.0000 
      4 O          58.1960    9.1010    0.1430 O.2       1 ALC1        0.0000 
      5 O          58.6410    8.1120    1.1290 O.2       7 ALL1        0.0000 
      6 O          57.7510   10.0900   -0.8430 O.2       4 ALP1        0.0000 
      7 CA         58.8135    8.4925    2.8540 C.3       3 GLC5        0.0000 
      8 CA         60.0720    8.1510    1.1710 C.3       9 GLL5        0.0000 
      9 CA         57.5550    8.8340    4.5370 C.3       6 GLP5        0.0000 
     10 CA         60.0950    9.6425    2.3855 C.3       3 GLC5        0.0000 
     11 CA         60.1180   11.1340    3.6000 C.3       6 GLP5        0.0000 
     12 CA         60.6180    9.0885    3.3710 C.3       3 GLC5        0.0000 
     13 CA         61.1180    7.0430    3.1420 C.3       9 GLL5        0.0000 
     14 CA         62.5875    8.3945    2.4035 C.3       3 GLC5        0.0000 
     15 CA         64.0570    9.7460    1.6650 C.3       6 GLP5        0.0000 
     16 CA         58.8705    4.4775    2.2555 C.3       3 GLC5        0.0000 
     17 CA         60.1550    5.6100    1.4290 C.3       9 GLL5        0.0000 
     18 CA         57.5860    3.3450    3.0820 C.3       6 GLP5        0.0000 
     19 N          60.4220    4.4440    3.7910 N.am      2 SEC2        0.0000 
     20 N          60.6250    4.6310    2.3660 N.am      8 SEL2        0.0000 
     21 N          60.2190    4.2570    5.2160 N.am      5 SEP2        0.0000 
     22 O          61.8915    4.0800    2.3195 O.2       1 ALC1        0.0000 
     23 O          60.6250    4.6310    2.3660 O.2       7 ALL1        0.0000 
     24 O          63.1580    3.5290    2.2730 O.2       4 ALP1        0.0000 
     25 CA         62.7625    6.0105    0.3550 C.3       3 GLC5        0.0000 
     26 CA         60.8200    5.4780    0.0380 C.3       9 GLL5        0.0000 
     27 CA         64.7050    6.5430    0.6720 C.3       6 GLP5        0.0000 
     28 CA         60.6420    3.4490   -0.2380 C.3       3 GLC5        0.0000 
     29 CA         60.4640    1.4200   -0.5140 C.3       6 GLP5        0.0000 
     30 CA         58.7585    6.1190   -5.0315 C.3       3 GLC5        0.0000 
     31 CA         60.4950    5.1380   -4.2460 C.3       9 GLL5        0.0000 
     32 CA         57.0220    7.1000   -5.8170 C.3       6 GLP5        0.0000 
     33 CA         59.2700    7.2985   -5.5795 C.3       3 GLC5        0.0000 
     34 CA         60.6700    6.3700   -5.1360 C.3       9 GLL5        0.0000 
     35 CA         57.8700    8.2270   -6.0230 C.3       6 GLP5        0.0000 
     36 CA         63.9440    6.5700   -5.7280 C.3       3 GLC5        0.0000 
     37 CA         61.9240    6.2130   -6.0160 C.3       9 GLL5        0.0000 
     38 CA         65.9640    6.9270   -5.4400 C.3       6 GLP5        0.0000 
     39 CA         60.1885    7.3140   -6.6565 C.3       3 GLC5        0.0000 
     40 CA         58.4530    8.4150   -7.2970 C.3       6 GLP5        0.0000 
     41 CA         62.2180    8.2075   -6.5015 C.3       3 GLC5        0.0000 
     42 CA         62.5120   10.2020   -6.9870 C.3       6 GLP5        0.0000 
     43 CA         64.0720    5.4010   -7.2245 C.3       3 GLC5        0.0000 
     44 CA         62.1560    4.7980   -6.6190 C.3       9 GLL5        0.0000 
     45 CA         65.9880    6.0040   -7.8300 C.3       6 GLP5        0.0000 
     46 CA         64.5510    5.3460   -4.9570 C.3       3 GLC5        0.0000 
     47 CA         63.1380    3.7650   -4.4740 C.3       9 GLL5        0.0000 
     48 CA         63.7835    5.3040   -3.1675 C.3       3 GLC5        0.0000 
     49 CA         64.4290    6.8430   -1.8610 C.3       6 GLP5        0.0000 
     50 CA         64.0885    2.4215   -3.7060 C.3       3 GLC5        0.0000 
     51 CA         65.0390    1.0780   -2.9380 C.3       6 GLP5        0.0000 
     52 CA         60.3735    1.9390   -2.4470 C.3       3 GLC5        0.0000 
     53 CA         60.2830    2.4580   -4.3800 C.3       9 GLL5        0.0000 
     54 CA         58.4495    1.2030   -4.4005 C.3       3 GLC5        0.0000 
     55 CA         56.6160   -0.0520   -4.4210 C.3       6 GLP5        0.0000 
     56 CA         61.0860   -0.5745   -4.5345 C.3       3 GLC5        0.0000 
     57 CA         61.0310    1.4330   -5.2850 C.3       9 GLL5        0.0000 
     58 CA         61.1410   -2.5820   -3.7840 C.3       6 GLP5        0.0000 
     59 CA         63.5595    1.6565   -4.4860 C.3       3 GLC5        0.0000 
     60 CA         62.0800    2.2350   -6.0340 C.3       9 GLL5        0.0000 
     61 CA         64.9780    4.2685   -7.7685 C.3       3 GLC5        0.0000 
     62 CA         63.9680    2.5330   -7.7070 C.3       9 GLL5        0.0000 
     63 CA         65.5730    2.8240   -8.8640 C.3       3 GLC5        0.0000 
     64 CA         67.1780    3.1150  -10.0210 C.3       6 GLP5        0.0000 
     65 CA         64.1970    0.9230   -9.1480 C.3       3 GLC5        0.0000 
     66 CA         64.4260   -0.6870  -10.5890 C.3       6 GLP5        0.0000 
     67 CA         62.4540   -1.5785   -5.1255 C.3       3 GLC5        0.0000 
     68 CA         63.7670   -0.5750   -6.4670 C.3       9 GLL5        0.0000 
     69 CA         65.6730   -1.5575   -3.3095 C.3       3 GLC5        0.0000 
     70 CA         66.0010   -2.1750   -5.1590 C.3       9 GLL5        0.0000 
     71 CA         65.3450   -0.9400   -1.4600 C.3       6 GLP5        0.0000 
     72 CA         67.5825   -3.2170   -3.9460 C.3       3 GLC5        0.0000 
     73 CA         69.1640   -4.2590   -2.7330 C.3       6 GLP5        0.0000 
     74 CA         65.3975   -3.3545   -3.6445 C.3       3 GLC5        0.0000 
     75 CA         64.7940   -4.5340   -2.1300 C.3       6 GLP5        0.0000 
     76 CA         68.8875   -0.4430   -7.7140 C.3       3 GLC5        0.0000 
     77 CA         67.4820   -1.3990   -6.9750 C.3       9 GLL5        0.0000 
     78 CA         70.2930    0.5130   -8.4530 C.3       6 GLP5        0.0000 
     79 CA         67.7065   -2.1190   -8.9895 C.3       3 GLC5        0.0000 
     80 CA         67.9310   -2.8390  -11.0040 C.3       6 GLP5        0.0000 
     81 CA         69.4550   -1.9945   -6.5580 C.3       3 GLC5        0.0000 
     82 CA         71.4280   -2.5900   -6.1410 C.3       6 GLP5        0.0000 
     83 N          65.0630   -2.3100   -8.6825 N.am      2 SEC2        0.0000 
     84 N          65.5130   -2.7450   -7.4440 N.am      8 SEL2        0.0000 
     85 N          64.6130   -1.8750   -9.9210 N.am      5 SEP2        0.0000 
     86 N          64.3425   -3.4015   -7.1220 N.am      2 SEC2        0.0000 
     87 N          63.1720   -4.0580   -6.8000 N.am      5 SEP2        0.0000 
     88 CA         62.1910    8.9322    1.0585 C.3       3 GLC5        0.0000 
     89 CA         60.5780    8.0860   -0.2670 C.3       9 GLL5        0.0000 
     90 CA         58.9055    9.6852    0.1805 C.3       3 GLC5        0.0000 
     91 CA         57.4860   11.2520   -0.0910 C.3       6 GLP5        0.0000 
     92 CA         60.7800    9.7978    0.0375 C.3       3 GLC5        0.0000 
     93 CA         61.2350   11.4770   -0.3770 C.3       6 GLP5        0.0000 
     94 CA         59.2612    7.2338    3.6390 C.3       3 GLC5        0.0000 
     95 CA         60.4990    6.9420    1.9700 C.3       9 GLL5        0.0000 
     96 CA         57.7140    7.4750    4.7220 C.3       6 GLP5        0.0000 
     97 CA         62.7568    6.7677    1.6140 C.3       3 GLC5        0.0000 
     98 CA         58.8383    5.4960   -0.3472 C.3       3 GLC5        0.0000 
     99 CA         57.1890    5.4480   -1.4280 C.3       6 GLP5        0.0000 
    100 CA         58.8775    6.4175   -0.9960 C.3       3 GLC5        0.0000 
    101 CA         60.5540    6.6880   -0.8610 C.3       9 GLL5        0.0000 
    102 CA         62.4357    6.9080   -1.6225 C.3       3 GLC5        0.0000 
    103 CA         58.7450    7.0645   -3.2170 C.3       3 GLC5        0.0000 
    104 CA         60.3190    6.5590   -2.2040 C.3       9 GLL5        0.0000 
    105 CA         57.1710    8.2280   -3.8880 C.3       6 GLP5        0.0000 
    106 CA         58.7980    5.4838   -2.4120 C.3       3 GLC5        0.0000 
    107 CA         61.6995    5.7453   -8.1512 C.3       3 GLC5        0.0000 
    108 CA         61.3590    5.9850   -9.9850 C.3       6 GLP5        0.0000 
    109 CA         62.6795    2.8940   -9.0953 C.3       3 GLC5        0.0000 
    110 CA         61.9120    3.6640  -10.8520 C.3       6 GLP5        0.0000 
    111 CA         63.8770   -0.4215   -8.7580 C.3       3 GLC5        0.0000 
    112 CA         62.8890    0.2630   -7.3870 C.3       9 GLL5        0.0000 
    113 CA         62.7135   -2.0125   -7.2820 C.3       3 GLC5        0.0000 
    114 CA         62.0990   -3.8690   -7.6370 C.3       6 GLP5        0.0000 
    115 CA         64.7707    0.2878   -4.8045 C.3       3 GLC5        0.0000 
    116 CA         65.0318   -0.8748   -8.6687 C.3       3 GLC5        0.0000 
    117 CA         65.2380   -0.4300   -6.8750 C.3       9 GLL5        0.0000 
    118 CA         66.5690   -3.9700   -6.4458 C.3       3 GLC5        0.0000 
    119 CA         66.0370   -1.6950   -6.6220 C.3       9 GLL5        0.0000 
    120 CA         67.1190   -6.0050   -7.0010 C.3       6 GLP5        0.0000 
@<TRIPOS>BOND
@<TRIPOS>SUBSTRUCTURE
     1 ALC1        4 GROUP        1 X    ALC  0     ROOT ALC X 1
     2 SEC2        1 GROUP        1 X    SEC  0     **** SEC X 2
     3 GLC5        7 GROUP        1 X    GLC  0     **** GLC X 6
     4 ALP1        6 GROUP        1 Y    ALP  0     ROOT ALP Y 8
     5 SEP2        3 GROUP        1 Y    SEP  0     **** SEP Y 9
     6 GLP5        9 GROUP        1 Y    GLP  0     **** GLP Y 13
     7 ALL1        5 GROUP        1 Z    ALL  0     ROOT ALL Z 15
     8 SEL2        2 GROUP        1 Z    SEL  0     **** SEL Z 16
     9 GLL5        8 GROUP        1 Z    GLL  0     **** GLL Z 20
@<TRIPOS>SET

