#    Name: 2o4r_VD5_1_ligand
#    Modification time : Tue Mar 25 22:00:04 2014

@<TRIPOS>MOLECULE
2o4r_VD5_1_ligand
   70    72     1     0     0
SMALL
NO_CHARGES


@<TRIPOS>ATOM
      1 O2         58.6410    8.1120    1.1290 O.3       1 VD5500      0.0000 
      2 C3         60.0720    8.1510    1.1710 C.3       1 VD5500      0.0000 
      3 C2         60.4990    6.9420    1.9700 C.2       1 VD5500      0.0000 
      4 C28        61.1180    7.0430    3.1420 C.2       1 VD5500      0.0000 
      5 C1         60.1550    5.6100    1.4290 C.3       1 VD5500      0.0000 
      6 O1         60.6250    4.6310    2.3660 O.3       1 VD5500      0.0000 
      7 C10        60.8200    5.4780    0.0380 C.3       1 VD5500      0.0000 
      8 C4         60.5780    8.0860   -0.2670 C.3       1 VD5500      0.0000 
      9 C5         60.5540    6.6880   -0.8610 C.2       1 VD5500      0.0000 
     10 C6         60.3190    6.5590   -2.2040 C.2       1 VD5500      0.0000 
     11 C7         60.3190    5.2430   -2.8880 C.2       1 VD5500      0.0000 
     12 C8         60.4950    5.1380   -4.2460 C.2       1 VD5500      0.0000 
     13 C9         60.6700    6.3700   -5.1360 C.3       1 VD5500      0.0000 
     14 C11        61.9240    6.2130   -6.0160 C.3       1 VD5500      0.0000 
     15 C12        62.1560    4.7980   -6.6190 C.3       1 VD5500      0.0000 
     16 C14        60.6070    3.8140   -5.0110 C.3       1 VD5500      0.0000 
     17 C13        62.0390    3.6800   -5.5630 C.3       1 VD5500      0.0000 
     18 C18        63.1380    3.7650   -4.4740 C.3       1 VD5500      0.0000 
     19 C15        60.2830    2.4580   -4.3800 C.3       1 VD5500      0.0000 
     20 C16        61.0310    1.4330   -5.2850 C.3       1 VD5500      0.0000 
     21 C17        62.0800    2.2350   -6.0340 C.2       1 VD5500      0.0000 
     22 C20        62.9260    1.7150   -6.9700 C.2       1 VD5500      0.0000 
     23 C21        63.9680    2.5330   -7.7070 C.3       1 VD5500      0.0000 
     24 C22        62.8890    0.2630   -7.3870 C.3       1 VD5500      0.0000 
     25 C23        63.7670   -0.5750   -6.4670 C.3       1 VD5500      0.0000 
     26 C24        65.2380   -0.4300   -6.8750 C.3       1 VD5500      0.0000 
     27 C25        66.0370   -1.6950   -6.6220 C.3       1 VD5500      0.0000 
     28 C27        66.0010   -2.1750   -5.1590 C.3       1 VD5500      0.0000 
     29 C26        67.4820   -1.3990   -6.9750 C.3       1 VD5500      0.0000 
     30 O3         65.5130   -2.7450   -7.4440 O.3       1 VD5500      0.0000 
     31 H          60.4209    9.0329    1.6359 H         1 VD5500      0.0000 
     32 H          59.0910    5.5540    1.2962 H         1 VD5500      0.0000 
     33 H          60.4382    4.5750   -0.4482 H         1 VD5500      0.0000 
     34 H          61.8992    5.3598    0.1758 H         1 VD5500      0.0000 
     35 H          61.6093    8.4745   -0.2997 H         1 VD5500      0.0000 
     36 H          59.9627    8.7543   -0.8917 H         1 VD5500      0.0000 
     37 H          60.1298    7.3805   -2.8044 H         1 VD5500      0.0000 
     38 H          60.1804    4.4177   -2.2904 H         1 VD5500      0.0000 
     39 H          60.7811    7.2517   -4.5151 H         1 VD5500      0.0000 
     40 H          59.8009    6.4812   -5.7744 H         1 VD5500      0.0000 
     41 H          62.8155    6.4862   -5.4202 H         1 VD5500      0.0000 
     42 H          61.8700    6.9399   -6.8486 H         1 VD5500      0.0000 
     43 H          63.1516    4.7673   -7.0651 H         1 VD5500      0.0000 
     44 H          61.4180    4.6279   -7.4048 H         1 VD5500      0.0000 
     45 H          59.9796    3.9010   -5.9434 H         1 VD5500      0.0000 
     46 H          59.2438    2.2701   -4.4316 H         1 VD5500      0.0000 
     47 H          60.6785    2.4069   -3.4008 H         1 VD5500      0.0000 
     48 H          60.3334    1.0049   -5.9672 H         1 VD5500      0.0000 
     49 H          61.4953    0.7022   -4.6640 H         1 VD5500      0.0000 
     50 H          63.2494    0.1668   -8.4103 H         1 VD5500      0.0000 
     51 H          61.8654   -0.1059   -7.3378 H         1 VD5500      0.0000 
     52 H          63.4786   -1.6181   -6.5407 H         1 VD5500      0.0000 
     53 H          63.6469   -0.2370   -5.4433 H         1 VD5500      0.0000 
     54 H          65.6807    0.3997   -6.3115 H         1 VD5500      0.0000 
     55 H          65.2856   -0.1756   -7.9403 H         1 VD5500      0.0000 
     56 H          64.0551    3.6872   -4.8650 H         1 VD5500      0.0000 
     57 H          63.1034    4.6328   -3.9783 H         1 VD5500      0.0000 
     58 H          63.0458    3.0361   -3.7956 H         1 VD5500      0.0000 
     59 H          64.6260    2.9487   -7.0792 H         1 VD5500      0.0000 
     60 H          64.4904    1.9750   -8.3518 H         1 VD5500      0.0000 
     61 H          63.5535    3.2765   -8.2317 H         1 VD5500      0.0000 
     62 H          66.5392   -3.0076   -5.0279 H         1 VD5500      0.0000 
     63 H          66.3684   -1.4869   -4.5332 H         1 VD5500      0.0000 
     64 H          65.0693   -2.3777   -4.8575 H         1 VD5500      0.0000 
     65 H          67.8556   -0.6566   -6.4189 H         1 VD5500      0.0000 
     66 H          68.0696   -2.1956   -6.8332 H         1 VD5500      0.0000 
     67 H          67.5823   -1.1274   -7.9322 H         1 VD5500      0.0000 
     68 H          58.3743    8.9354    0.6280 H         1 VD5500      0.0000 
     69 H          61.5604    4.4255    2.0781 H         1 VD5500      0.0000 
     70 H          66.0904   -2.1676   -6.8666 H         1 VD5500      0.0000 
@<TRIPOS>BOND
     1    2    1 1    
     2   68    1 1    
     3    3    2 1    
     4    8    2 1    
     5   31    2 1    
     6    4    3 2    
     7    5    3 1    
     8    6    5 1    
     9    7    5 1    
    10   32    5 1    
    11   69    6 1    
    12    9    7 1    
    13   33    7 1    
    14   34    7 1    
    15    9    8 1    
    16   35    8 1    
    17   36    8 1    
    18   10    9 2    
    19   11   10 1    
    20   37   10 1    
    21   12   11 2    
    22   38   11 1    
    23   13   12 1    
    24   16   12 1    
    25   14   13 1    
    26   39   13 1    
    27   40   13 1    
    28   15   14 1    
    29   41   14 1    
    30   42   14 1    
    31   17   15 1    
    32   43   15 1    
    33   44   15 1    
    34   17   16 1    
    35   19   16 1    
    36   45   16 1    
    37   18   17 1    
    38   21   17 1    
    39   56   18 1    
    40   57   18 1    
    41   58   18 1    
    42   20   19 1    
    43   46   19 1    
    44   47   19 1    
    45   21   20 1    
    46   48   20 1    
    47   49   20 1    
    48   22   21 2    
    49   23   22 1    
    50   24   22 1    
    51   59   23 1    
    52   60   23 1    
    53   61   23 1    
    54   25   24 1    
    55   50   24 1    
    56   51   24 1    
    57   26   25 1    
    58   52   25 1    
    59   53   25 1    
    60   27   26 1    
    61   54   26 1    
    62   55   26 1    
    63   28   27 1    
    64   29   27 1    
    65   30   27 1    
    66   62   28 1    
    67   63   28 1    
    68   64   28 1    
    69   65   29 1    
    70   66   29 1    
    71   67   29 1    
    72   70   30 1    
@<TRIPOS>SUBSTRUCTURE
     1 VD5500      1 GROUP   
@<TRIPOS>SET

