#    Name: 1QF1_1_CAVITY_N1_6.mol2
#    Modification time : Tue Mar 11 03:27:18 2014

@<TRIPOS>MOLECULE
1QF1_1_CAVITY_N1_6.mol2
   69     0     7     0     0
SMALL
NO_CHARGES


@<TRIPOS>ATOM
      1 CZ         38.9567   34.5802   -0.3701 C.ar      5 PHE5        0.0000 
      2 CA         40.9002   36.2727   -0.0403 C.3       6 GLY6        0.0000 
      3 CZ         38.7942   36.0593   -0.1801 C.ar      5 PHE5        0.0000 
      4 CA         39.9026   36.3069   -1.1600 C.3       6 GLY6        0.0000 
      5 CA         41.0110   36.5545   -2.1399 C.3       6 GLY6        0.0000 
      6 N          37.7967   36.0935   -1.2998 N.2       2 ALA2        0.0000 
      7 DU         38.9050   36.3411   -2.2797 H         7 CUB7        0.0000 
      8 DU         40.0134   36.5887   -3.2596 H         7 CUB7        0.0000 
      9 DU         41.1218   36.8363   -4.2395 H         7 CUB7        0.0000 
     10 O          36.7991   36.1277   -2.4195 O.2       2 ALA2        0.0000 
     11 CA         39.7401   37.7859   -0.9701 C.3       6 GLY6        0.0000 
     12 CA         40.8485   38.0335   -1.9500 C.3       6 GLY6        0.0000 
     13 CZ         37.6342   37.5725   -1.1098 C.ar      5 PHE5        0.0000 
     14 CA         38.7426   37.8201   -2.0897 C.3       6 GLY6        0.0000 
     15 CA         39.8509   38.0677   -3.0697 C.3       6 GLY6        0.0000 
     16 O          37.7450   37.8543   -3.2094 O.2       2 ALA2        0.0000 
     17 CA         38.8534   38.1020   -4.1893 C.3       6 GLY6        0.0000 
     18 O          36.8582   38.1704   -6.4287 O.2       2 ALA2        0.0000 
     19 O          34.7523   37.9570   -6.5685 O.2       2 ALA2        0.0000 
     20 O          35.8607   38.2046   -7.5484 O.2       2 ALA2        0.0000 
     21 O          33.7547   37.9912   -7.6882 O.2       2 ALA2        0.0000 
     22 CZ         37.4717   39.0515   -0.9199 C.ar      5 PHE5        0.0000 
     23 CA         38.5801   39.2992   -1.8998 C.3       6 GLY6        0.0000 
     24 CA         39.6884   39.5468   -2.8797 C.3       6 GLY6        0.0000 
     25 N          37.5825   39.3334   -3.0195 N.2       2 ALA2        0.0000 
     26 CA         38.6909   39.5810   -3.9994 C.3       6 GLY6        0.0000 
     27 N          35.5874   39.4018   -5.2588 N.2       2 ALA2        0.0000 
     28 N          33.4815   39.1884   -5.3986 N.2       2 ALA2        0.0000 
     29 O          34.5898   39.4360   -6.3785 O.2       2 ALA2        0.0000 
     30 N          35.6982   39.6837   -7.3584 N.2       2 ALA2        0.0000 
     31 CA         32.4839   39.2226   -6.5183 C.3       6 GLY6        0.0000 
     32 CA         33.5923   39.4703   -7.4982 C.3       6 GLY6        0.0000 
     33 OG         34.7006   39.7179   -8.4781 O.2       1 SER1        0.0000 
     34 CA         36.2009   40.2829    0.2500 C.3       6 GLY6        0.0000 
     35 CA         37.3092   40.5306   -0.7299 C.3       6 GLY6        0.0000 
     36 CA         38.4176   40.7782   -1.7098 C.3       6 GLY6        0.0000 
     37 N          35.2033   40.3172   -0.8697 N.2       2 ALA2        0.0000 
     38 N          36.3117   40.5648   -1.8496 N.2       2 ALA2        0.0000 
     39 N          37.4200   40.8124   -2.8295 N.2       2 ALA2        0.0000 
     40 CA         38.5284   41.0600   -3.8094 C.3       6 GLY6        0.0000 
     41 N          36.4225   40.8466   -3.9492 N.2       2 ALA2        0.0000 
     42 N          35.4249   40.8808   -5.0689 N.2       2 ALA2        0.0000 
     43 N          34.4273   40.9151   -6.1886 N.2       2 ALA2        0.0000 
     44 N          35.5357   41.1627   -7.1685 N.2       2 ALA2        0.0000 
     45 CZ         37.0359   41.7277    1.5596 C.ar      5 PHE5        0.0000 
     46 CA         38.1443   41.9754    0.5797 C.3       6 GLY6        0.0000 
     47 CA         36.0384   41.7620    0.4400 C.3       6 GLY6        0.0000 
     48 CA         37.1467   42.0096   -0.5400 C.3       6 GLY6        0.0000 
     49 CA         38.2551   42.2572   -1.5199 C.3       6 GLY6        0.0000 
     50 CA         35.0408   41.7962   -0.6797 C.3       6 GLY6        0.0000 
     51 N          36.1492   42.0438   -1.6596 N.2       2 ALA2        0.0000 
     52 O          37.2575   42.2914   -2.6395 O.2       2 ALA2        0.0000 
     53 O          38.3659   42.5390   -3.6195 O.2       2 ALA2        0.0000 
     54 NZ         35.1516   42.0780   -2.7793 N.2       4 LYS4        0.0000 
     55 NZ         36.2600   42.3256   -3.7592 N.2       4 LYS4        0.0000 
     56 N          37.3683   42.5733   -4.7391 N.2       2 ALA2        0.0000 
     57 OD1        35.2624   42.3599   -4.8789 O.3       3 ASP3        0.0000 
     58 CA         37.9818   43.4544    0.7697 C.3       6 GLY6        0.0000 
     59 CA         39.0902   43.7020   -0.2102 C.3       6 GLY6        0.0000 
     60 CA         35.8759   43.2410    0.6299 C.3       6 GLY6        0.0000 
     61 CA         36.9843   43.4886   -0.3500 C.3       6 GLY6        0.0000 
     62 O          38.0926   43.7362   -1.3299 O.2       2 ALA2        0.0000 
     63 NZ         35.9867   43.5228   -1.4697 N.2       4 LYS4        0.0000 
     64 O          37.0951   43.7704   -2.4496 O.2       2 ALA2        0.0000 
     65 N          36.0975   43.8047   -3.5693 N.2       2 ALA2        0.0000 
     66 CA         37.8193   44.9334    0.9597 C.3       6 GLY6        0.0000 
     67 CA         36.8218   44.9676   -0.1600 C.3       6 GLY6        0.0000 
     68 O          37.9301   45.2152   -1.1399 O.2       2 ALA2        0.0000 
     69 CA         35.8242   45.0018   -1.2797 C.3       6 GLY6        0.0000 
@<TRIPOS>BOND
@<TRIPOS>SUBSTRUCTURE
     1 SER1       33 GROUP   
     2 ALA2        6 GROUP   
     3 ASP3       57 GROUP   
     4 LYS4       54 GROUP   
     5 PHE5        1 GROUP   
     6 GLY6        2 GROUP   
     7 CUB7        7 GROUP   
@<TRIPOS>SET

