#    Name: 1qf1_TI1_1_INTS_M
#    Modification time : Mon Mar 24 23:22:48 2014

@<TRIPOS>MOLECULE
1qf1_TI1_1_INTS_M
   69     0    12     0     0
SMALL
NO_CHARGES


@<TRIPOS>ATOM
      1 CA         32.3685   42.7495   -6.2195 C.3       4 GLC5        0.0000 
      2 CA         34.1310   43.3010   -7.0630 C.3      12 GLL5        0.0000 
      3 CA         30.6060   42.1980   -5.3760 C.3       8 GLP5        0.0000 
      4 CA         34.9565   44.7920   -5.8170 C.3       4 GLC5        0.0000 
      5 CA         35.7820   46.2830   -4.5710 C.3       8 GLP5        0.0000 
      6 CA         34.1650   44.9265   -7.4345 C.3       4 GLC5        0.0000 
      7 CA         34.1990   46.5520   -7.8060 C.3       8 GLP5        0.0000 
      8 CA         32.5575   41.2700   -6.4320 C.3       4 GLC5        0.0000 
      9 CA         34.4690   41.5490   -6.5380 C.3      12 GLL5        0.0000 
     10 CA         30.6460   40.9910   -6.3260 C.3       8 GLP5        0.0000 
     11 CA         35.9300   41.3970   -9.4350 C.3       4 GLC5        0.0000 
     12 CA         35.1010   40.6960   -7.6440 C.3      12 GLL5        0.0000 
     13 CA         36.7590   42.0980  -11.2260 C.3       8 GLP5        0.0000 
     14 CA         31.3175   35.9075   -5.1720 C.3       4 GLC5        0.0000 
     15 CA         32.4120   36.6230   -6.9030 C.3      12 GLL5        0.0000 
     16 CA         30.2230   35.1920   -3.4410 C.3       8 GLP5        0.0000 
     17 CA         30.8970   37.8405   -6.0765 C.3       4 GLC5        0.0000 
     18 CA         29.3820   39.0580   -5.2500 C.3       8 GLP5        0.0000 
     19 Zn         36.3935   43.3580   -6.4690 Zn        3 ZIC7        0.0000 
     20 Zn         36.6450   42.3190   -5.9160 Zn       11 ZIL7        0.0000 
     21 Zn         36.1420   44.3970   -7.0220 Zn        7 ZIP7        0.0000 
     22 O          33.9155   41.3760   -4.0675 O.2       1 ALC1        0.0000 
     23 O          35.2970   41.6760   -4.2370 O.2       9 ALL1        0.0000 
     24 O          32.5340   41.0760   -3.8980 O.2       5 ALP1        0.0000 
     25 CA         36.0475   44.1515   -3.9095 C.3       4 GLC5        0.0000 
     26 CA         36.3130   42.0200   -3.2480 C.3      12 GLL5        0.0000 
     27 CA         33.5725   41.9685   -1.3915 C.3       4 GLC5        0.0000 
     28 CA         35.7380   42.0520   -1.8300 C.3      12 GLL5        0.0000 
     29 CA         31.4070   41.8850   -0.9530 C.3       8 GLP5        0.0000 
     30 N          40.0765   41.8135   -3.2630 N.am      2 SEC2        0.0000 
     31 N          38.6880   41.6340   -3.2900 N.am     10 SEL2        0.0000 
     32 N          41.4650   41.9930   -3.2360 N.am      6 SEP2        0.0000 
     33 N          39.5585   42.8370   -3.2080 N.am      2 SEC2        0.0000 
     34 N          40.4290   44.0400   -3.1260 N.am      6 SEP2        0.0000 
     35 O          35.9880   39.3350   -3.1520 O.2       1 ALC1        0.0000 
     36 O          37.3470   39.8200   -3.3240 O.2       9 ALL1        0.0000 
     37 O          34.6290   38.8500   -2.9800 O.2       5 ALP1        0.0000 
     38 CA         39.1665   40.0145   -4.9405 C.3       4 GLC5        0.0000 
     39 CA         38.4450   38.8600   -3.3560 C.3      12 GLL5        0.0000 
     40 CA         39.8880   41.1690   -6.5250 C.3       8 GLP5        0.0000 
     41 CA         37.8675   37.5810   -0.0200 C.3       4 GLC5        0.0000 
     42 CA         38.3580   37.9350   -2.1490 C.3      12 GLL5        0.0000 
     43 CA         37.3770   37.2270    2.1090 C.3       8 GLP5        0.0000 
     44 N          36.1185   37.5145   -4.7585 N.am      2 SEC2        0.0000 
     45 N          37.3870   38.0180   -5.3340 N.am     10 SEL2        0.0000 
     46 N          34.8500   37.0110   -4.1830 N.am      6 SEP2        0.0000 
     47 CA         32.0176   39.7122   -7.0725 C.3       4 GLC5        0.0000 
     48 CA         33.8010   38.6400   -7.2630 C.3      12 GLL5        0.0000 
     49 CA         38.6453   41.4723   -0.2628 C.3       4 GLC5        0.0000 
     50 CA         36.6050   42.7960   -0.8590 C.3      12 GLL5        0.0000 
     51 CA         40.4020   40.4730   -0.2130 C.3       8 GLP5        0.0000 
     52 CA         35.0574   43.9567   -0.0826 C.3       4 GLC5        0.0000 
     53 CA         36.9100   44.1430   -1.0760 C.3      12 GLL5        0.0000 
     54 CA         33.5740   44.6300    1.0450 C.3       8 GLP5        0.0000 
     55 CA         36.9200   45.7957   -2.2032 C.3       4 GLC5        0.0000 
     56 CA         36.4980   47.1050   -3.7590 C.3       8 GLP5        0.0000 
     57 CA         35.3409   41.2302    0.5619 C.3       4 GLC5        0.0000 
     58 CA         34.0100   40.1750    1.6790 C.3       8 GLP5        0.0000 
     59 CA         36.5180   43.7302    1.6770 C.3       4 GLC5        0.0000 
     60 CA         37.1720   42.1470    0.2340 C.3      12 GLL5        0.0000 
     61 CA         35.4300   44.9730    2.6880 C.3       8 GLP5        0.0000 
     62 CA         36.7435   44.7362    1.5058 C.3       4 GLC5        0.0000 
     63 CA         38.3400   44.1690    0.8660 C.3      12 GLL5        0.0000 
     64 CA         39.5817   44.7619    0.3899 C.3       4 GLC5        0.0000 
     65 CA         41.1150   45.8600    0.0690 C.3       8 GLP5        0.0000 
     66 CA         39.0150   43.9838    2.5235 C.3       4 GLC5        0.0000 
     67 CA         39.8400   44.4690    4.0650 C.3       8 GLP5        0.0000 
     68 CA         39.2960   41.9857    0.3845 C.3       4 GLC5        0.0000 
     69 CA         39.4017   39.4352   -1.4828 C.3       4 GLC5        0.0000 
@<TRIPOS>BOND
@<TRIPOS>SUBSTRUCTURE
     1 ALC1       22 GROUP        1 X    ALC  0     ROOT ALC X 1
     2 SEC2       30 GROUP        1 X    SEC  0     **** SEC X 2
     3 ZIC7       19 GROUP        1 X    ZIC  0     **** ZIC X 5
     4 GLC5        1 GROUP        1 X    GLC  0     **** GLC X 6
     5 ALP1       24 GROUP        1 Y    ALP  0     ROOT ALP Y 8
     6 SEP2       32 GROUP        1 Y    SEP  0     **** SEP Y 9
     7 ZIP7       21 GROUP        1 Y    ZIP  0     **** ZIP Y 12
     8 GLP5        3 GROUP        1 Y    GLP  0     **** GLP Y 13
     9 ALL1       23 GROUP        1 Z    ALL  0     ROOT ALL Z 15
    10 SEL2       31 GROUP        1 Z    SEL  0     **** SEL Z 16
    11 ZIL7       20 GROUP        1 Z    ZIL  0     **** ZIL Z 19
    12 GLL5        2 GROUP        1 Z    GLL  0     **** GLL Z 20
@<TRIPOS>SET

