#    Name: 1qf1_TI1_1_ligand
#    Modification time : Mon Mar 24 23:22:49 2014

@<TRIPOS>MOLECULE
1qf1_TI1_1_ligand
   53    53     1     0     0
SMALL
NO_CHARGES


@<TRIPOS>ATOM
      1 SG         34.1310   43.3010   -7.0630 S.3       1 TI1317      0.0000 
      2 CA1        34.4690   41.5490   -6.5380 C.3       1 TI1317      0.0000 
      3 CB1        35.1010   40.6960   -7.6440 C.3       1 TI1317      0.0000 
      4 CG1        34.1900   39.6960   -8.2710 C.3       1 TI1317      0.0000 
      5 CD1        33.8010   38.6400   -7.2630 C.3       1 TI1317      0.0000 
      6 CE1        32.7830   37.6990   -7.8710 C.3       1 TI1317      0.0000 
      7 CF1        32.4120   36.6230   -6.9030 C.3       1 TI1317      0.0000 
      8 C1         35.5610   41.8690   -5.5230 C.2       1 TI1317      0.0000 
      9 O1         36.6450   42.3190   -5.9160 O.2       1 TI1317      0.0000 
     10 N2         35.2970   41.6760   -4.2370 N.am      1 TI1317      0.0000 
     11 CA2        36.3130   42.0200   -3.2480 C.3       1 TI1317      0.0000 
     12 CB2        35.7380   42.0520   -1.8300 C.3       1 TI1317      0.0000 
     13 CG2        36.6050   42.7960   -0.8590 C.ar      1 TI1317      0.0000 
     14 CD3        36.9100   44.1430   -1.0760 C.ar      1 TI1317      0.0000 
     15 CD4        37.1720   42.1470    0.2340 C.ar      1 TI1317      0.0000 
     16 CE3        37.7740   44.8300   -0.2190 C.ar      1 TI1317      0.0000 
     17 CE4        38.0400   42.8280    1.0980 C.ar      1 TI1317      0.0000 
     18 CZ2        38.3400   44.1690    0.8660 C.ar      1 TI1317      0.0000 
     19 C2         37.5570   41.1310   -3.2890 C.2       1 TI1317      0.0000 
     20 O2         38.6880   41.6340   -3.2900 O.2       1 TI1317      0.0000 
     21 N3         37.3470   39.8200   -3.3240 N.am      1 TI1317      0.0000 
     22 CA3        38.4450   38.8600   -3.3560 C.3       1 TI1317      0.0000 
     23 CB3        38.3580   37.9350   -2.1490 C.3       1 TI1317      0.0000 
     24 C3         38.4340   38.0570   -4.6560 C.2       1 TI1317      0.0000 
     25 O3         37.3870   38.0180   -5.3340 O.3       1 TI1317      0.0000 
     26 OXT        39.4860   37.5040   -5.0180 O.2       1 TI1317      0.0000 
     27 H          33.6268   41.2591   -6.1216 H         1 TI1317      0.0000 
     28 H          35.9870   40.1794   -7.2166 H         1 TI1317      0.0000 
     29 H          35.4979   41.3815   -8.4232 H         1 TI1317      0.0000 
     30 H          34.6881   39.2174   -9.1169 H         1 TI1317      0.0000 
     31 H          33.2881   40.1916   -8.6366 H         1 TI1317      0.0000 
     32 H          33.3732   39.1165   -6.3833 H         1 TI1317      0.0000 
     33 H          34.6835   38.0763   -6.9674 H         1 TI1317      0.0000 
     34 H          33.2041   37.2543   -8.7772 H         1 TI1317      0.0000 
     35 H          31.8927   38.2689   -8.1520 H         1 TI1317      0.0000 
     36 H          34.4162   41.2965   -3.8841 H         1 TI1317      0.0000 
     37 H          36.6701   43.0637   -3.4492 H         1 TI1317      0.0000 
     38 H          35.5995   41.0147   -1.4856 H         1 TI1317      0.0000 
     39 H          34.7396   42.5161   -1.8682 H         1 TI1317      0.0000 
     40 H          36.4913   44.6365   -1.8800 H         1 TI1317      0.0000 
     41 H          36.9538   41.1555    0.4133 H         1 TI1317      0.0000 
     42 H          37.9881   45.8178   -0.3920 H         1 TI1317      0.0000 
     43 H          38.4519   42.3375    1.8985 H         1 TI1317      0.0000 
     44 H          38.9792   44.6681    1.4970 H         1 TI1317      0.0000 
     45 H          36.3879   39.4087   -3.3304 H         1 TI1317      0.0000 
     46 H          39.3977   39.3891   -3.2989 H         1 TI1317      0.0000 
     47 H          33.2045   36.0753   -6.6348 H         1 TI1317      0.0000 
     48 H          32.0175   36.9980   -6.0641 H         1 TI1317      0.0000 
     49 H          31.7374   35.9933   -7.2882 H         1 TI1317      0.0000 
     50 H          39.0961   37.2604   -2.1441 H         1 TI1317      0.0000 
     51 H          38.4175   38.4408   -1.2884 H         1 TI1317      0.0000 
     52 H          37.4967   37.4272   -2.1316 H         1 TI1317      0.0000 
     53 H          37.2773   38.9445   -5.6940 H         1 TI1317      0.0000 
@<TRIPOS>BOND
     1    2    1 1    
     2    3    2 1    
     3    8    2 1    
     4   27    2 1    
     5    4    3 1    
     6   28    3 1    
     7   29    3 1    
     8    5    4 1    
     9   30    4 1    
    10   31    4 1    
    11    6    5 1    
    12   32    5 1    
    13   33    5 1    
    14    7    6 1    
    15   34    6 1    
    16   35    6 1    
    17   47    7 1    
    18   48    7 1    
    19   49    7 1    
    20    9    8 2    
    21   10    8 am   
    22   11   10 1    
    23   36   10 1    
    24   12   11 1    
    25   19   11 1    
    26   37   11 1    
    27   13   12 1    
    28   38   12 1    
    29   39   12 1    
    30   14   13 ar   
    31   15   13 ar   
    32   16   14 ar   
    33   40   14 1    
    34   17   15 ar   
    35   41   15 1    
    36   18   16 ar   
    37   42   16 1    
    38   18   17 ar   
    39   43   17 1    
    40   44   18 1    
    41   20   19 2    
    42   21   19 am   
    43   22   21 1    
    44   45   21 1    
    45   23   22 1    
    46   24   22 1    
    47   46   22 1    
    48   50   23 1    
    49   51   23 1    
    50   52   23 1    
    51   25   24 1    
    52   26   24 2    
    53   53   25 1    
@<TRIPOS>SUBSTRUCTURE
     1 TI1317      1 GROUP   
@<TRIPOS>SET

