#    Name: 4jlc_SU6_1_INTS_M
#    Modification time : Tue Mar 25 06:00:33 2014

@<TRIPOS>MOLECULE
4jlc_SU6_1_INTS_M
   63     0     9     0     0
SMALL
NO_CHARGES


@<TRIPOS>ATOM
      1 CA         26.8160   20.0090    6.5930 C.3       3 GLC5        0.0000 
      2 CA         26.1260   18.3590    7.9370 C.3       9 GLL5        0.0000 
      3 CA         27.5060   21.6590    5.2490 C.3       6 GLP5        0.0000 
      4 O          25.8240   19.4905   17.9565 O.2       1 ALC1        0.0000 
      5 O          26.2160   18.8200   16.7630 O.2       7 ALL1        0.0000 
      6 O          25.4320   20.1610   19.1500 O.2       4 ALP1        0.0000 
      7 N          27.8175   19.4615    6.2570 N.am      2 SEC2        0.0000 
      8 N          26.8020   18.4470    5.6400 N.am      8 SEL2        0.0000 
      9 N          28.8330   20.4760    6.8740 N.am      5 SEP2        0.0000 
     10 N          24.5205   20.5305   15.4820 N.am      2 SEC2        0.0000 
     11 N          24.7880   19.3640   14.9470 N.am      8 SEL2        0.0000 
     12 N          24.2530   21.6970   16.0170 N.am      5 SEP2        0.0000 
     13 CA         26.5300   19.3720   12.1050 C.3       3 GLC5        0.0000 
     14 CA         24.5370   18.8800   11.1960 C.3       9 GLL5        0.0000 
     15 CA         28.5230   19.8640   13.0140 C.3       6 GLP5        0.0000 
     16 CA         22.0250   19.9590   12.2030 C.3       3 GLC5        0.0000 
     17 CA         23.6030   19.9700   10.7960 C.3       9 GLL5        0.0000 
     18 CA         20.4470   19.9480   13.6100 C.3       6 GLP5        0.0000 
     19 CA         22.9585   21.6220   11.5615 C.3       3 GLC5        0.0000 
     20 CA         22.3140   23.2740   12.3270 C.3       6 GLP5        0.0000 
     21 CA         27.0605   14.3095   10.8530 C.3       3 GLC5        0.0000 
     22 CA         26.7820   16.0320   10.6460 C.3       9 GLL5        0.0000 
     23 CA         27.3390   12.5870   11.0600 C.3       6 GLP5        0.0000 
     24 CA         28.7525   19.1135   16.0750 C.3       3 GLC5        0.0000 
     25 CA         27.1970   17.9370   17.0660 C.3       9 GLL5        0.0000 
     26 CA         30.3080   20.2900   15.0840 C.3       6 GLP5        0.0000 
     27 CA         29.1805   19.4775   18.7225 C.3       3 GLC5        0.0000 
     28 CA         27.9600   17.7450   18.2290 C.3       9 GLL5        0.0000 
     29 CA         30.4010   21.2100   19.2160 C.3       6 GLP5        0.0000 
     30 CA         30.0120   18.1300   19.6015 C.3       3 GLC5        0.0000 
     31 CA         28.9200   16.7480   18.2780 C.3       9 GLL5        0.0000 
     32 CA         31.1040   19.5120   20.9250 C.3       6 GLP5        0.0000 
     33 CA         30.8175   17.3270   18.2035 C.3       3 GLC5        0.0000 
     34 CA         32.7150   17.9060   18.1290 C.3       6 GLP5        0.0000 
     35 CA         31.0195   16.6665   16.9380 C.3       3 GLC5        0.0000 
     36 CA         29.1300   15.9360   17.1690 C.3       9 GLL5        0.0000 
     37 CA         32.9090   17.3970   16.7070 C.3       6 GLP5        0.0000 
     38 CA         29.2620   17.7350   14.7870 C.3       3 GLC5        0.0000 
     39 CA         28.3770   16.1250   16.0150 C.3       9 GLL5        0.0000 
     40 CA         30.1470   19.3450   13.5590 C.3       6 GLP5        0.0000 
     41 CA         26.2388   19.9105    9.0683 C.3       3 GLC5        0.0000 
     42 CA         25.0010   17.9470    8.8320 C.3       9 GLL5        0.0000 
     43 CA         26.9140   21.6680    9.7520 C.3       6 GLP5        0.0000 
     44 CA         23.1425   17.5515   11.1846 C.3       3 GLC5        0.0000 
     45 CA         25.1490   17.9920   10.3210 C.3       9 GLL5        0.0000 
     46 CA         22.0620   15.9000   11.5920 C.3       6 GLP5        0.0000 
     47 CA         25.5685   20.4355   10.2646 C.3       3 GLC5        0.0000 
     48 CA         25.0742   15.4053   11.5895 C.3       3 GLC5        0.0000 
     49 CA         25.9290   17.1550   11.1220 C.3       9 GLL5        0.0000 
     50 CA         23.7930   14.2170   12.2950 C.3       6 GLP5        0.0000 
     51 CA         27.1860   18.6113   12.3983 C.3       3 GLC5        0.0000 
     52 CA         24.6148   16.6467   13.9625 C.3       3 GLC5        0.0000 
     53 CA         26.5090   17.5530   14.9510 C.3       9 GLL5        0.0000 
     54 CA         22.9220   15.9050   13.9380 C.3       6 GLP5        0.0000 
     55 CA         25.3860   17.0315   16.8008 C.3       3 GLC5        0.0000 
     56 CA         23.8160   16.7200   18.1430 C.3       6 GLP5        0.0000 
     57 CA         27.7312   18.5201   14.0677 C.3       3 GLC5        0.0000 
     58 CA         27.4030   17.1330   15.9660 C.3       9 GLL5        0.0000 
     59 CA         25.6972   17.2805   17.8953 C.3       3 GLC5        0.0000 
     60 CA         27.7763   14.0928   16.8075 C.3       3 GLC5        0.0000 
     61 CA         26.7990   12.1550   17.0230 C.3       6 GLP5        0.0000 
     62 CA         28.2485   15.7156   19.3071 C.3       3 GLC5        0.0000 
     63 CA         27.7120   14.8400   20.9030 C.3       6 GLP5        0.0000 
@<TRIPOS>BOND
@<TRIPOS>SUBSTRUCTURE
     1 ALC1        4 GROUP        1 X    ALC  0     ROOT ALC X 1
     2 SEC2        7 GROUP        1 X    SEC  0     **** SEC X 2
     3 GLC5        1 GROUP        1 X    GLC  0     **** GLC X 6
     4 ALP1        6 GROUP        1 Y    ALP  0     ROOT ALP Y 8
     5 SEP2        9 GROUP        1 Y    SEP  0     **** SEP Y 9
     6 GLP5        3 GROUP        1 Y    GLP  0     **** GLP Y 13
     7 ALL1        5 GROUP        1 Z    ALL  0     ROOT ALL Z 15
     8 SEL2        8 GROUP        1 Z    SEL  0     **** SEL Z 16
     9 GLL5        2 GROUP        1 Z    GLL  0     **** GLL Z 20
@<TRIPOS>SET

