#    Name: 4jlc_SU6_1_ligand
#    Modification time : Tue Mar 25 06:00:33 2014

@<TRIPOS>MOLECULE
4jlc_SU6_1_ligand
   40    42     1     0     0
SMALL
NO_CHARGES


@<TRIPOS>ATOM
      1 C1         25.8500   18.3760    6.4670 C.2       1 SU6701      0.0000 
      2 N1         24.9200   18.5930   12.4460 N.pl3     1 SU6701      0.0000 
      3 O1         24.6570   18.3170    6.0570 O.co2     1 SU6701      0.0000 
      4 C2         26.1260   18.3590    7.9370 C.3       1 SU6701      0.0000 
      5 N2         26.2160   18.8200   16.7630 N.am      1 SU6701      0.0000 
      6 O2         26.8020   18.4470    5.6400 O.co2     1 SU6701      0.0000 
      7 C3         25.0010   17.9470    8.8320 C.3       1 SU6701      0.0000 
      8 O3         24.7880   19.3640   14.9470 O.2       1 SU6701      0.0000 
      9 C4         25.1490   17.9920   10.3210 C.2       1 SU6701      0.0000 
     10 C5         24.5370   18.8800   11.1960 C.2       1 SU6701      0.0000 
     11 C6         23.6030   19.9700   10.7960 C.3       1 SU6701      0.0000 
     12 C7         25.9290   17.1550   11.1220 C.2       1 SU6701      0.0000 
     13 C8         26.7820   16.0320   10.6460 C.3       1 SU6701      0.0000 
     14 C9         25.7690   17.5620   12.4430 C.2       1 SU6701      0.0000 
     15 C10        26.4430   16.8860   13.6030 C.2       1 SU6701      0.0000 
     16 C11        26.5090   17.5530   14.9510 C.2       1 SU6701      0.0000 
     17 C12        25.7840   18.6120   15.5170 C.2       1 SU6701      0.0000 
     18 C13        27.4030   17.1330   15.9660 C.ar      1 SU6701      0.0000 
     19 C14        27.1970   17.9370   17.0660 C.ar      1 SU6701      0.0000 
     20 C15        27.9600   17.7450   18.2290 C.ar      1 SU6701      0.0000 
     21 C16        28.9200   16.7480   18.2780 C.ar      1 SU6701      0.0000 
     22 C17        29.1300   15.9360   17.1690 C.ar      1 SU6701      0.0000 
     23 C18        28.3770   16.1250   16.0150 C.ar      1 SU6701      0.0000 
     24 H          24.6192   19.0723   13.2484 H         1 SU6701      0.0000 
     25 H          26.4808   19.3772    8.2490 H         1 SU6701      0.0000 
     26 H          27.0053   17.6887    8.1310 H         1 SU6701      0.0000 
     27 H          25.8809   19.5051   17.3745 H         1 SU6701      0.0000 
     28 H          24.6827   16.8914    8.5395 H         1 SU6701      0.0000 
     29 H          24.0800   18.5577    8.5491 H         1 SU6701      0.0000 
     30 H          26.8516   15.9856   13.4801 H         1 SU6701      0.0000 
     31 H          27.7987   18.3522   19.0440 H         1 SU6701      0.0000 
     32 H          29.4768   16.6068   19.1303 H         1 SU6701      0.0000 
     33 H          29.8426   15.1950   17.2019 H         1 SU6701      0.0000 
     34 H          28.5307   15.5273   15.1935 H         1 SU6701      0.0000 
     35 H          23.9458   20.8701   11.0649 H         1 SU6701      0.0000 
     36 H          23.4620   19.9937    9.8063 H         1 SU6701      0.0000 
     37 H          22.7029   19.8612   11.2178 H         1 SU6701      0.0000 
     38 H          27.4908   16.3459   10.0143 H         1 SU6701      0.0000 
     39 H          27.2466   15.5719   11.4026 H         1 SU6701      0.0000 
     40 H          26.2472   15.3375   10.1647 H         1 SU6701      0.0000 
@<TRIPOS>BOND
     1    3    1 ar   
     2    4    1 1    
     3    6    1 ar   
     4   10    2 1    
     5   14    2 1    
     6   24    2 1    
     7    7    4 1    
     8   25    4 1    
     9   26    4 1    
    10   17    5 am   
    11   19    5 1    
    12   27    5 1    
    13    9    7 1    
    14   28    7 1    
    15   29    7 1    
    16   17    8 2    
    17   10    9 2    
    18   12    9 1    
    19   11   10 1    
    20   35   11 1    
    21   36   11 1    
    22   37   11 1    
    23   13   12 1    
    24   14   12 2    
    25   38   13 1    
    26   39   13 1    
    27   40   13 1    
    28   15   14 1    
    29   16   15 2    
    30   30   15 1    
    31   17   16 1    
    32   18   16 1    
    33   19   18 ar   
    34   23   18 ar   
    35   20   19 ar   
    36   21   20 ar   
    37   31   20 1    
    38   22   21 ar   
    39   32   21 1    
    40   23   22 ar   
    41   33   22 1    
    42   34   23 1    
@<TRIPOS>SUBSTRUCTURE
     1 SU6701      1 GROUP   
@<TRIPOS>SET

