#    Name: 2h8x_FMN_1_INTS_M
#    Modification time : Tue Mar 25 15:43:46 2014

@<TRIPOS>MOLECULE
2h8x_FMN_1_INTS_M
   73     0    12     0     0
SMALL
NO_CHARGES


@<TRIPOS>ATOM
      1 N          20.4190   23.1775   59.8140 N.am      2 SEC2        0.0000 
      2 N          19.2800   23.7470   59.2140 N.am     10 SEL2        0.0000 
      3 N          21.5580   22.6080   60.4140 N.am      6 SEP2        0.0000 
      4 N          20.5020   21.4310   56.9990 N.am      2 SEC2        0.0000 
      5 N          19.7750   21.9310   58.1330 N.am     10 SEL2        0.0000 
      6 N          21.2290   20.9310   55.8650 N.am      6 SEP2        0.0000 
      7 N          20.4745   21.1700   59.0335 N.am      2 SEC2        0.0000 
      8 N          21.1740   20.4090   59.9340 N.am      6 SEP2        0.0000 
      9 N          20.6665   22.2695   59.2735 N.am      2 SEC2        0.0000 
     10 O          19.7990   23.0940   55.6700 O.2       1 ALC1        0.0000 
     11 O          19.2550   23.6580   56.7810 O.2       9 ALL1        0.0000 
     12 O          20.3430   22.5300   54.5590 O.2       5 ALP1        0.0000 
     13 N          19.4220   25.5070   54.1510 N.am      2 SEC2        0.0000 
     14 N          18.7060   25.5400   55.4940 N.am     10 SEL2        0.0000 
     15 N          20.1380   25.4740   52.8080 N.am      6 SEP2        0.0000 
     16 N          18.5630   28.1105   56.8340 N.am      2 SEC2        0.0000 
     17 N          18.2850   27.1540   57.7630 N.am     10 SEL2        0.0000 
     18 N          18.8410   29.0670   55.9050 N.am      6 SEP2        0.0000 
     19 CA         19.4565   30.0875   59.0965 C.3       4 GLC5        0.0000 
     20 CA         17.5890   30.2190   59.8710 C.3      12 GLL5        0.0000 
     21 CA         21.3240   29.9560   58.3220 C.3       8 GLP5        0.0000 
     22 CA         18.7050   32.7995   60.5255 C.3       4 GLC5        0.0000 
     23 CA         17.2610   31.5460   59.5230 C.3      12 GLL5        0.0000 
     24 CA         20.1490   34.0530   61.5280 C.3       8 GLP5        0.0000 
     25 CA         18.6315   31.1070   63.9095 C.3       4 GLC5        0.0000 
     26 CA         17.6780   30.3910   62.5800 C.3      12 GLL5        0.0000 
     27 CA         19.5850   31.8230   65.2390 C.3       8 GLP5        0.0000 
     28 CA         20.0310   28.3775   60.0030 C.3       4 GLC5        0.0000 
     29 CA         18.3280   27.3690   60.3250 C.3      12 GLL5        0.0000 
     30 CA         21.7340   29.3860   59.6810 C.3       8 GLP5        0.0000 
     31 CA         21.1300   27.6235   60.8180 C.3       4 GLC5        0.0000 
     32 CA         20.5260   25.8610   61.9550 C.3      12 GLL5        0.0000 
     33 N          21.5200   23.9415   60.7195 N.am      2 SEC2        0.0000 
     34 N          21.4820   25.2750   61.0250 N.am     10 SEL2        0.0000 
     35 O          21.5030   25.8420   59.6530 O.2       1 ALC1        0.0000 
     36 O          21.4820   25.2750   61.0250 O.2       9 ALL1        0.0000 
     37 O          21.5240   26.4090   58.2810 O.2       5 ALP1        0.0000 
     38 CA         22.4560   24.5800   64.5050 C.3       4 GLC5        0.0000 
     39 CA         21.0780   25.5160   63.3430 C.3      12 GLL5        0.0000 
     40 CA         23.8340   23.6440   65.6670 C.3       8 GLP5        0.0000 
     41 N          21.3685   23.3355   61.9680 N.am      2 SEC2        0.0000 
     42 N          21.1790   24.0630   63.5220 N.am     10 SEL2        0.0000 
     43 CA         22.2175   24.7685   65.7430 C.3       4 GLC5        0.0000 
     44 CA         20.6010   25.8930   65.8190 C.3      12 GLL5        0.0000 
     45 CA         19.3005   25.5935   67.1705 C.3       4 GLC5        0.0000 
     46 CA         18.0000   25.2940   68.5220 C.3       8 GLP5        0.0000 
     47 NZ         20.1225   29.6495   66.4910 N.4       3 LYC4        0.0000 
     48 NZ         21.3230   29.0400   65.9760 N.4      11 LYL4        0.0000 
     49 NZ         18.1640   29.6740   67.9260 N.4       7 LYP4        0.0000 
     50 N          21.9500   30.1255   65.3445 N.am      2 SEC2        0.0000 
     51 N          21.3230   29.0400   65.9760 N.am     10 SEL2        0.0000 
     52 N          22.5770   31.2110   64.7130 N.am      6 SEP2        0.0000 
     53 N          20.1225   29.6495   66.4910 N.am      2 SEC2        0.0000 
     54 N          18.9220   30.2590   67.0060 N.am      6 SEP2        0.0000 
     55 NZ         20.0515   28.2715   68.4010 N.4       3 LYC4        0.0000 
     56 NZ         21.4670   27.8980   68.1840 N.4      11 LYL4        0.0000 
     57 N          22.1240   27.3205   69.4045 N.am      2 SEC2        0.0000 
     58 N          21.4670   27.8980   68.1840 N.am     10 SEL2        0.0000 
     59 N          22.7810   26.7430   70.6250 N.am      6 SEP2        0.0000 
     60 N          20.0515   28.2715   68.4010 N.am      2 SEC2        0.0000 
     61 N          18.6360   28.6450   68.6180 N.am      6 SEP2        0.0000 
     62 N          24.2610   28.6605   65.7070 N.am      2 SEC2        0.0000 
     63 N          23.5290   28.2820   66.8100 N.am     10 SEL2        0.0000 
     64 N          24.9930   29.0390   64.6040 N.am      6 SEP2        0.0000 
     65 CA         19.3615   28.7880   58.0727 C.3       4 GLC5        0.0000 
     66 CA         18.1120   27.9410   58.9270 C.3      12 GLL5        0.0000 
     67 CA         20.7980   28.9080   57.3280 C.3       8 GLP5        0.0000 
     68 CA         17.9535   29.1465   56.8418 C.3       4 GLC5        0.0000 
     69 CA         17.9820   29.6250   54.8660 C.3       8 GLP5        0.0000 
     70 CA         19.8480   29.1945   60.5573 C.3       4 GLC5        0.0000 
     71 CA         17.7930   29.6780   61.3800 C.3      12 GLL5        0.0000 
     72 CA         22.7935   26.0968   62.1475 C.3       4 GLC5        0.0000 
     73 CA         24.7850   26.5050   61.6460 C.3       8 GLP5        0.0000 
@<TRIPOS>BOND
@<TRIPOS>SUBSTRUCTURE
     1 ALC1       10 GROUP        1 X    ALC  0     ROOT ALC X 1
     2 SEC2        1 GROUP        1 X    SEC  0     **** SEC X 2
     3 LYC4       47 GROUP        1 X    LYC  0     **** LYC X 4
     4 GLC5       19 GROUP        1 X    GLC  0     **** GLC X 6
     5 ALP1       12 GROUP        1 Y    ALP  0     ROOT ALP Y 8
     6 SEP2        3 GROUP        1 Y    SEP  0     **** SEP Y 9
     7 LYP4       49 GROUP        1 Y    LYP  0     **** LYP Y 11
     8 GLP5       21 GROUP        1 Y    GLP  0     **** GLP Y 13
     9 ALL1       11 GROUP        1 Z    ALL  0     ROOT ALL Z 15
    10 SEL2        2 GROUP        1 Z    SEL  0     **** SEL Z 16
    11 LYL4       48 GROUP        1 Z    LYL  0     **** LYL Z 18
    12 GLL5       20 GROUP        1 Z    GLL  0     **** GLL Z 20
@<TRIPOS>SET

