#    Name: 2h8x_FMN_1_ligand
#    Modification time : Tue Mar 25 15:43:47 2014

@<TRIPOS>MOLECULE
2h8x_FMN_1_ligand
   50    52     1     0     0
SMALL
NO_CHARGES


@<TRIPOS>ATOM
      1 N1         19.2800   23.7470   59.2140 N.2       1 FMN1401     0.0000 
      2 C2         19.4710   22.9870   58.0860 C.2       1 FMN1401     0.0000 
      3 O2         19.7750   21.9310   58.1330 O.2       1 FMN1401     0.0000 
      4 N3         19.2550   23.6580   56.7810 N.am      1 FMN1401     0.0000 
      5 C4         18.8600   25.0250   56.6130 C.2       1 FMN1401     0.0000 
      6 O4         18.7060   25.5400   55.4940 O.2       1 FMN1401     0.0000 
      7 C4A        18.6530   25.8270   57.8150 C.2       1 FMN1401     0.0000 
      8 N5         18.2850   27.1540   57.7630 N.2       1 FMN1401     0.0000 
      9 C5A        18.1120   27.9410   58.9270 C.ar      1 FMN1401     0.0000 
     10 C6         17.7380   29.3950   58.7080 C.ar      1 FMN1401     0.0000 
     11 C7         17.5890   30.2190   59.8710 C.ar      1 FMN1401     0.0000 
     12 C7M        17.2610   31.5460   59.5230 C.3       1 FMN1401     0.0000 
     13 C8         17.7930   29.6780   61.3800 C.ar      1 FMN1401     0.0000 
     14 C8M        17.6780   30.3910   62.5800 C.3       1 FMN1401     0.0000 
     15 C9         18.1310   28.3280   61.4870 C.ar      1 FMN1401     0.0000 
     16 C9A        18.3280   27.3690   60.3250 C.ar      1 FMN1401     0.0000 
     17 N10        18.7270   25.8660   60.3300 N.pl3     1 FMN1401     0.0000 
     18 C10        18.9090   25.0560   59.1480 C.2       1 FMN1401     0.0000 
     19 C1'        18.9450   25.3290   61.6850 C.3       1 FMN1401     0.0000 
     20 C2'        20.5260   25.8610   61.9550 C.3       1 FMN1401     0.0000 
     21 O2'        21.4820   25.2750   61.0250 O.3       1 FMN1401     0.0000 
     22 C3'        21.0780   25.5160   63.3430 C.3       1 FMN1401     0.0000 
     23 O3'        21.1790   24.0630   63.5220 O.3       1 FMN1401     0.0000 
     24 C4'        20.1260   26.1380   64.4040 C.3       1 FMN1401     0.0000 
     25 O4'        20.0060   27.5730   64.2160 O.3       1 FMN1401     0.0000 
     26 C5'        20.6010   25.8930   65.8190 C.3       1 FMN1401     0.0000 
     27 O5'        21.9250   26.5910   66.0850 O.3       1 FMN1401     0.0000 
     28 P          22.0280   28.0270   66.7680 P.3       1 FMN1401     0.0000 
     29 O1P        21.3230   29.0400   65.9760 O.co2     1 FMN1401     0.0000 
     30 O2P        21.4670   27.8980   68.1840 O.co2     1 FMN1401     0.0000 
     31 O3P        23.5290   28.2820   66.8100 O.co2     1 FMN1401     0.0000 
     32 H          19.4076   23.0723   55.9305 H         1 FMN1401     0.0000 
     33 H          17.6117   29.7208   57.7910 H         1 FMN1401     0.0000 
     34 H          18.2717   27.8927   62.4316 H         1 FMN1401     0.0000 
     35 H          19.0025   24.2935   61.7192 H         1 FMN1401     0.0000 
     36 H          18.3773   25.7980   62.4160 H         1 FMN1401     0.0000 
     37 H          20.5029   26.9335   61.8490 H         1 FMN1401     0.0000 
     38 H          22.0376   25.9894   63.4514 H         1 FMN1401     0.0000 
     39 H          19.1505   25.6707   64.2873 H         1 FMN1401     0.0000 
     40 H          20.7228   24.8189   65.9814 H         1 FMN1401     0.0000 
     41 H          19.8521   26.2637   66.5238 H         1 FMN1401     0.0000 
     42 H          17.9675   31.9660   58.9533 H         1 FMN1401     0.0000 
     43 H          16.4038   31.5944   59.0102 H         1 FMN1401     0.0000 
     44 H          17.1526   32.1258   60.3305 H         1 FMN1401     0.0000 
     45 H          17.8585   29.8118   63.3749 H         1 FMN1401     0.0000 
     46 H          18.3223   31.1547   62.6215 H         1 FMN1401     0.0000 
     47 H          16.7618   30.7738   62.6982 H         1 FMN1401     0.0000 
     48 H          21.3793   25.8026   60.1817 H         1 FMN1401     0.0000 
     49 H          22.1254   23.8389   63.2893 H         1 FMN1401     0.0000 
     50 H          20.5282   27.9769   64.9671 H         1 FMN1401     0.0000 
@<TRIPOS>BOND
     1    2    1 1    
     2   18    1 2    
     3    3    2 2    
     4    4    2 am   
     5    5    4 am   
     6   32    4 1    
     7    6    5 2    
     8    7    5 1    
     9    8    7 2    
    10   18    7 1    
    11    9    8 1    
    12   10    9 ar   
    13   16    9 ar   
    14   11   10 ar   
    15   33   10 1    
    16   12   11 1    
    17   13   11 ar   
    18   42   12 1    
    19   43   12 1    
    20   44   12 1    
    21   14   13 1    
    22   15   13 ar   
    23   45   14 1    
    24   46   14 1    
    25   47   14 1    
    26   16   15 ar   
    27   34   15 1    
    28   17   16 1    
    29   18   17 1    
    30   19   17 1    
    31   20   19 1    
    32   35   19 1    
    33   36   19 1    
    34   21   20 1    
    35   22   20 1    
    36   37   20 1    
    37   48   21 1    
    38   23   22 1    
    39   24   22 1    
    40   38   22 1    
    41   49   23 1    
    42   25   24 1    
    43   26   24 1    
    44   39   24 1    
    45   50   25 1    
    46   27   26 1    
    47   40   26 1    
    48   41   26 1    
    49   28   27 1    
    50   29   28 ar   
    51   30   28 ar   
    52   31   28 ar   
@<TRIPOS>SUBSTRUCTURE
     1 FMN1401     1 GROUP   
@<TRIPOS>SET

