#    Name: 2a8s_GTP_1_INTS_M
#    Modification time : Mon Mar 24 18:38:29 2014

@<TRIPOS>MOLECULE
2a8s_GTP_1_INTS_M
   61     0    15     0     0
SMALL
NO_CHARGES


@<TRIPOS>ATOM
      1 Zn         15.8890   55.1405    2.6915 Zn        4 ZIC7        0.0000 
      2 Zn         16.8040   55.1210    2.8480 Zn       14 ZIL7        0.0000 
      3 Zn         14.9740   55.1600    2.5350 Zn        9 ZIP7        0.0000 
      4 Zn         15.7765   55.8445    1.6260 Zn        4 ZIC7        0.0000 
      5 Zn         16.5790   56.5290    0.7170 Zn       14 ZIL7        0.0000 
      6 Zn         16.6570   55.7905   -0.2305 Zn        4 ZIC7        0.0000 
      7 Zn         16.7350   55.0520   -1.1780 Zn        9 ZIP7        0.0000 
      8 Zn         15.8600   52.9230    0.9170 Zn        4 ZIC7        0.0000 
      9 Zn         15.5590   54.1250    0.7900 Zn       14 ZIL7        0.0000 
     10 Zn         16.1610   51.7210    1.0440 Zn        9 ZIP7        0.0000 
     11 Zn         15.2665   54.6425    1.6625 Zn        4 ZIC7        0.0000 
     12 Zn         16.1470   54.5885   -0.1940 Zn        4 ZIC7        0.0000 
     13 Zn         17.4275   54.7175   -0.2365 Zn        4 ZIC7        0.0000 
     14 Zn         18.1200   54.3830    0.7050 Zn       14 ZIL7        0.0000 
     15 N          19.1515   54.0430    4.1260 N.am      2 SEC2        0.0000 
     16 N          18.5180   53.4870    2.9690 N.am     12 SEL2        0.0000 
     17 N          19.7850   54.5990    5.2830 N.am      7 SEP2        0.0000 
     18 Zn         19.0575   51.0785    1.2930 Zn        4 ZIC7        0.0000 
     19 Zn         18.6810   51.9450    0.9650 Zn       14 ZIL7        0.0000 
     20 Zn         19.4340   50.2120    1.6210 Zn        9 ZIP7        0.0000 
     21 Zn         17.4210   51.8330    1.0045 Zn        4 ZIC7        0.0000 
     22 Zn         20.2755   50.7915    1.8105 Zn        4 ZIC7        0.0000 
     23 Zn         21.1170   51.3710    2.0000 Zn       14 ZIL7        0.0000 
     24 N          21.7685   50.6445    3.3475 N.am      2 SEC2        0.0000 
     25 N          21.1170   51.3710    2.0000 N.am     12 SEL2        0.0000 
     26 N          22.4200   49.9180    4.6950 N.am      7 SEP2        0.0000 
     27 NZ         22.7815   51.2060   -0.0560 N.4       3 LYC4        0.0000 
     28 NZ         22.3440   52.7150    0.1970 N.4      13 LYL4        0.0000 
     29 NZ         24.0300   49.8980   -1.3360 N.4       8 LYP4        0.0000 
     30 N          22.7815   51.2060   -0.0560 N.am      2 SEC2        0.0000 
     31 N          22.3440   52.7150    0.1970 N.am     12 SEL2        0.0000 
     32 N          23.2190   49.6970   -0.3090 N.am      7 SEP2        0.0000 
     33 N          23.2800   51.9215   -0.7965 N.am      2 SEC2        0.0000 
     34 N          24.2160   51.1280   -1.7900 N.am      7 SEP2        0.0000 
     35 CA         22.8175   55.9790    2.3530 C.3       5 GLC5        0.0000 
     36 CA         23.3380   54.4550    2.4650 C.3      15 GLL5        0.0000 
     37 CA         22.2970   57.5030    2.2410 C.3      10 GLP5        0.0000 
     38 CA         27.1510   51.6825    0.8175 C.3       5 GLC5        0.0000 
     39 CA         26.4880   53.1880    1.9360 C.3      15 GLL5        0.0000 
     40 CA         27.8140   50.1770   -0.3010 C.3      10 GLP5        0.0000 
     41 CA         24.3625   48.9320    5.2605 C.3       5 GLC5        0.0000 
     42 CA         25.9030   49.1670    4.0470 C.3      15 GLL5        0.0000 
     43 CA         22.8220   48.6970    6.4740 C.3      10 GLP5        0.0000 
     44 N          24.9030   45.7570    3.9480 N.am      2 SEC2        0.0000 
     45 N          25.7350   46.9570    4.5730 N.am     12 SEL2        0.0000 
     46 N          24.0710   44.5570    3.3230 N.am      7 SEP2        0.0000 
     47 O          27.4465   47.4405    6.8535 O.2       1 ALC1        0.0000 
     48 O          27.2250   48.2040    5.8150 O.2      11 ALL1        0.0000 
     49 O          27.6680   46.6770    7.8920 O.2       6 ALP1        0.0000 
     50 O          28.7120   50.8815    8.1960 O.2       1 ALC1        0.0000 
     51 O          28.7210   49.6330    6.9900 O.2      11 ALL1        0.0000 
     52 O          28.7030   52.1300    9.4020 O.2       6 ALP1        0.0000 
     53 O          28.1945   48.1550    7.4410 O.2       1 ALC1        0.0000 
     54 CA         26.8370   51.7165    6.0370 C.3       5 GLC5        0.0000 
     55 CA         26.5040   50.4000    4.3070 C.3      15 GLL5        0.0000 
     56 CA         27.1700   53.0330    7.7670 C.3      10 GLP5        0.0000 
     57 CA         24.3415   56.2315    2.7183 C.3       5 GLC5        0.0000 
     58 CA         25.7860   54.5410    1.9000 C.3      15 GLL5        0.0000 
     59 CA         23.4040   57.9460    2.9610 C.3      10 GLP5        0.0000 
     60 CA         26.6868   48.8918    2.5045 C.3       5 GLC5        0.0000 
     61 CA         27.1700   48.0000    0.8320 C.3      10 GLP5        0.0000 
@<TRIPOS>BOND
@<TRIPOS>SUBSTRUCTURE
     1 ALC1       47 GROUP        1 X    ALC  0     ROOT ALC X 1
     2 SEC2       15 GROUP        1 X    SEC  0     **** SEC X 2
     3 LYC4       27 GROUP        1 X    LYC  0     **** LYC X 4
     4 ZIC7        1 GROUP        1 X    ZIC  0     **** ZIC X 5
     5 GLC5       35 GROUP        1 X    GLC  0     **** GLC X 6
     6 ALP1       49 GROUP        1 Y    ALP  0     ROOT ALP Y 8
     7 SEP2       17 GROUP        1 Y    SEP  0     **** SEP Y 9
     8 LYP4       29 GROUP        1 Y    LYP  0     **** LYP Y 11
     9 ZIP7        3 GROUP        1 Y    ZIP  0     **** ZIP Y 12
    10 GLP5       37 GROUP        1 Y    GLP  0     **** GLP Y 13
    11 ALL1       48 GROUP        1 Z    ALL  0     ROOT ALL Z 15
    12 SEL2       16 GROUP        1 Z    SEL  0     **** SEL Z 16
    13 LYL4       28 GROUP        1 Z    LYL  0     **** LYL Z 18
    14 ZIL7        2 GROUP        1 Z    ZIL  0     **** ZIL Z 19
    15 GLL5       36 GROUP        1 Z    GLL  0     **** GLL Z 20
@<TRIPOS>SET

