#    Name: 2a8s_GTP_1_ligand
#    Modification time : Mon Mar 24 18:38:29 2014

@<TRIPOS>MOLECULE
2a8s_GTP_1_ligand
   44    46     1     0     0
SMALL
NO_CHARGES


@<TRIPOS>ATOM
      1 PG         16.7800   55.0410    1.3630 P.3       1 GTP250      0.0000 
      2 O1G        16.8040   55.1210    2.8480 O.co2     1 GTP250      0.0000 
      3 O2G        16.5790   56.5290    0.7170 O.co2     1 GTP250      0.0000 
      4 O3G        15.5590   54.1250    0.7900 O.co2     1 GTP250      0.0000 
      5 O3B        18.1200   54.3830    0.7050 O.3       1 GTP250      0.0000 
      6 PB         18.8840   53.2860    1.5590 P.3       1 GTP250      0.0000 
      7 O1B        18.5180   53.4870    2.9690 O.co2     1 GTP250      0.0000 
      8 O2B        18.6810   51.9450    0.9650 O.co2     1 GTP250      0.0000 
      9 O3A        20.4440   53.7490    1.4490 O.3       1 GTP250      0.0000 
     10 PA         21.6460   52.6600    1.5020 P.3       1 GTP250      0.0000 
     11 O1A        21.1170   51.3710    2.0000 O.co2     1 GTP250      0.0000 
     12 O2A        22.3440   52.7150    0.1970 O.co2     1 GTP250      0.0000 
     13 O5'        22.6600   53.2110    2.6480 O.3       1 GTP250      0.0000 
     14 C5'        23.3380   54.4550    2.4650 C.3       1 GTP250      0.0000 
     15 C4'        24.7720   54.4930    3.0510 C.3       1 GTP250      0.0000 
     16 O4'        25.0810   53.3330    3.8570 O.3       1 GTP250      0.0000 
     17 C3'        25.7860   54.5410    1.9000 C.3       1 GTP250      0.0000 
     18 O3'        26.7280   55.5840    2.1700 O.3       1 GTP250      0.0000 
     19 C2'        26.4880   53.1880    1.9360 C.3       1 GTP250      0.0000 
     20 O2'        27.8880   53.3680    1.7360 O.3       1 GTP250      0.0000 
     21 C1'        26.2960   52.7120    3.3640 C.3       1 GTP250      0.0000 
     22 N9         25.9830   51.2700    3.4410 N.pl3     1 GTP250      0.0000 
     23 C8         25.0900   50.6240    2.6840 C.2       1 GTP250      0.0000 
     24 N7         25.0400   49.3410    3.0460 N.2       1 GTP250      0.0000 
     25 C5         25.9030   49.1670    4.0470 C.2       1 GTP250      0.0000 
     26 C6         26.2580   48.0500    4.8010 C.2       1 GTP250      0.0000 
     27 O6         25.7350   46.9570    4.5730 O.2       1 GTP250      0.0000 
     28 N1         27.2250   48.2040    5.8150 N.am      1 GTP250      0.0000 
     29 C2         27.8020   49.4730    6.0360 C.2       1 GTP250      0.0000 
     30 N2         28.7210   49.6330    6.9900 N.pl3     1 GTP250      0.0000 
     31 N3         27.4270   50.5250    5.2830 N.2       1 GTP250      0.0000 
     32 C4         26.5040   50.4000    4.3070 C.2       1 GTP250      0.0000 
     33 H          22.7786   55.2976    2.9311 H         1 GTP250      0.0000 
     34 H          23.4252   54.7179    1.3864 H         1 GTP250      0.0000 
     35 H          24.8832   55.4033    3.6171 H         1 GTP250      0.0000 
     36 H          25.2739   54.6502    0.9977 H         1 GTP250      0.0000 
     37 H          26.0350   52.5306    1.2818 H         1 GTP250      0.0000 
     38 H          27.1114   52.9610    3.9610 H         1 GTP250      0.0000 
     39 H          24.5552   51.0319    1.9729 H         1 GTP250      0.0000 
     40 H          27.5052   47.4077    6.3832 H         1 GTP250      0.0000 
     41 H          29.1159   50.5481    7.0715 H         1 GTP250      0.0000 
     42 H          28.9322   48.8234    7.5377 H         1 GTP250      0.0000 
     43 H          26.7164   56.1609    1.3533 H         1 GTP250      0.0000 
     44 H          28.0119   54.3565    1.6494 H         1 GTP250      0.0000 
@<TRIPOS>BOND
     1    2    1 ar   
     2    3    1 ar   
     3    4    1 ar   
     4    5    1 1    
     5    6    5 1    
     6    7    6 ar   
     7    8    6 ar   
     8    9    6 1    
     9   10    9 1    
    10   11   10 ar   
    11   12   10 ar   
    12   13   10 1    
    13   14   13 1    
    14   15   14 1    
    15   33   14 1    
    16   34   14 1    
    17   16   15 1    
    18   17   15 1    
    19   35   15 1    
    20   21   16 1    
    21   18   17 1    
    22   19   17 1    
    23   36   17 1    
    24   43   18 1    
    25   20   19 1    
    26   21   19 1    
    27   37   19 1    
    28   44   20 1    
    29   22   21 1    
    30   38   21 1    
    31   23   22 1    
    32   32   22 1    
    33   24   23 2    
    34   39   23 1    
    35   25   24 1    
    36   26   25 1    
    37   32   25 2    
    38   27   26 2    
    39   28   26 am   
    40   29   28 1    
    41   40   28 1    
    42   30   29 1    
    43   31   29 2    
    44   41   30 1    
    45   42   30 1    
    46   32   31 1    
@<TRIPOS>SUBSTRUCTURE
     1 GTP250      1 GROUP   
@<TRIPOS>SET

