#    Name: 4fox_D16_2_INTS_M
#    Modification time : Mon Mar 24 20:28:28 2014

@<TRIPOS>MOLECULE
4fox_D16_2_INTS_M
   58     0     6     0     0
SMALL
NO_CHARGES


@<TRIPOS>ATOM
      1 CA          6.9585    0.7195   34.1975 C.3       2 GLC5        0.0000 
      2 CA          7.0340    1.2550   36.1500 C.3       6 GLL5        0.0000 
      3 CA          6.8830    0.1840   32.2450 C.3       4 GLP5        0.0000 
      4 CA          7.4350   -0.1090   36.8480 C.3       2 GLC5        0.0000 
      5 CA          7.8360   -1.4730   37.5460 C.3       4 GLP5        0.0000 
      6 CA          5.1615    1.2655   36.4385 C.3       2 GLC5        0.0000 
      7 CA          3.2890    1.2760   36.7270 C.3       4 GLP5        0.0000 
      8 CA          7.8420    4.6885   39.5775 C.3       2 GLC5        0.0000 
      9 CA          5.8420    4.8050   38.7900 C.3       6 GLL5        0.0000 
     10 CA          9.8420    4.5720   40.3650 C.3       4 GLP5        0.0000 
     11 CA          3.8845    4.4335   38.3130 C.3       2 GLC5        0.0000 
     12 CA          5.5520    4.8040   37.3000 C.3       6 GLL5        0.0000 
     13 CA          2.2170    4.0630   39.3260 C.3       4 GLP5        0.0000 
     14 CA          2.6845    9.1950   39.4600 C.3       2 GLC5        0.0000 
     15 CA          4.3730    8.6240   39.7120 C.3       6 GLL5        0.0000 
     16 CA          0.9960    9.7660   39.2080 C.3       4 GLP5        0.0000 
     17 CA          8.4070   10.0645   42.2890 C.3       2 GLC5        0.0000 
     18 CA          8.6180    8.0700   42.3440 C.3       6 GLL5        0.0000 
     19 CA          8.1960   12.0590   42.2340 C.3       4 GLP5        0.0000 
     20 CA          7.3040   10.1915   41.1045 C.3       2 GLC5        0.0000 
     21 CA          7.4590    8.4220   41.0670 C.3       6 GLL5        0.0000 
     22 CA          7.1490   11.9610   41.1420 C.3       4 GLP5        0.0000 
     23 CA          5.9190    5.5845   43.5975 C.3       2 GLC5        0.0000 
     24 CA          6.1350    7.8030   43.3010 C.3       6 GLL5        0.0000 
     25 CA          5.7030    3.3660   43.8940 C.3       4 GLP5        0.0000 
     26 CA         11.8015    6.5440   43.1370 C.3       2 GLC5        0.0000 
     27 CA         12.1850    8.2910   43.9590 C.3       6 GLL5        0.0000 
     28 CA         11.4180    4.7970   42.3150 C.3       4 GLP5        0.0000 
     29 CA         12.6495   10.8670   46.3305 C.3       2 GLC5        0.0000 
     30 CA         12.3990    9.7490   44.4510 C.3       6 GLL5        0.0000 
     31 CA         12.9000   11.9850   48.2100 C.3       4 GLP5        0.0000 
     32 CA         10.5350    9.6500   45.4850 C.3       2 GLC5        0.0000 
     33 CA          8.6710    9.5510   46.5190 C.3       4 GLP5        0.0000 
     34 CA         10.0310   11.4010   42.8130 C.3       2 GLC5        0.0000 
     35 CA         11.8660   10.7430   43.3920 C.3       6 GLL5        0.0000 
     36 N          10.3440   13.2080   45.6445 N.am      1 SEC2        0.0000 
     37 N          11.5060   12.1530   45.4760 N.am      5 SEL2        0.0000 
     38 N           9.1820   14.2630   45.8130 N.am      3 SEP2        0.0000 
     39 CA          4.3405    9.8515   42.3985 C.3       2 GLC5        0.0000 
     40 CA          3.4760    7.9110   41.9640 C.3       6 GLL5        0.0000 
     41 CA          5.2050   11.7920   42.8330 C.3       4 GLP5        0.0000 
     42 CA          2.2360    8.8385   40.5860 C.3       2 GLC5        0.0000 
     43 CA          2.5465    6.5225   41.1075 C.3       2 GLC5        0.0000 
     44 CA          1.6170    5.1340   40.2510 C.3       4 GLP5        0.0000 
     45 CA          3.9242    4.7555   39.2740 C.3       2 GLC5        0.0000 
     46 CA          5.4210    6.0910   39.6540 C.3       6 GLL5        0.0000 
     47 CA          3.0797    6.5553   39.7877 C.3       2 GLC5        0.0000 
     48 CA          4.7120    7.3290   38.9370 C.3       6 GLL5        0.0000 
     49 CA          3.1870    6.3385   35.9852 C.3       2 GLC5        0.0000 
     50 CA          4.4190    7.3090   37.4310 C.3       6 GLL5        0.0000 
     51 CA          1.7460    6.0010   34.9540 C.3       4 GLP5        0.0000 
     52 CA          3.4225    5.3695   38.1713 C.3       2 GLC5        0.0000 
     53 CA          4.8370    6.0430   36.6020 C.3       6 GLL5        0.0000 
     54 CA          9.1115    6.1583   42.4380 C.3       2 GLC5        0.0000 
     55 CA         10.0060    4.4260   41.8740 C.3       4 GLP5        0.0000 
     56 CA          5.6220    9.9070   42.6757 C.3       2 GLC5        0.0000 
     57 CA          6.0438    7.4790   45.2527 C.3       2 GLC5        0.0000 
     58 CA          5.1120    7.2010   47.0250 C.3       4 GLP5        0.0000 
@<TRIPOS>BOND
@<TRIPOS>SUBSTRUCTURE
     1 SEC2       36 GROUP        1 X    SEC  0     ROOT SEC X 2
     2 GLC5        1 GROUP        1 X    GLC  0     **** GLC X 6
     3 SEP2       38 GROUP        1 Y    SEP  0     ROOT SEP Y 9
     4 GLP5        3 GROUP        1 Y    GLP  0     **** GLP Y 13
     5 SEL2       37 GROUP        1 Z    SEL  0     ROOT SEL Z 16
     6 GLL5        2 GROUP        1 Z    GLL  0     **** GLL Z 20
@<TRIPOS>SET

