#    Name: 4fox_D16_2_ligand
#    Modification time : Mon Mar 24 20:28:28 2014

@<TRIPOS>MOLECULE
4fox_D16_2_ligand
   52    54     1     0     0
SMALL
NO_CHARGES


@<TRIPOS>ATOM
      1 N1          5.9280    3.6270   36.4560 N.pl3     1 D16302      0.0000 
      2 C2          6.6140    2.4190   37.0730 C.2       1 D16302      0.0000 
      3 CM2         7.0340    1.2550   36.1500 C.3       1 D16302      0.0000 
      4 N3          6.9180    2.4130   38.5890 N.2       1 D16302      0.0000 
      5 C4          6.5320    3.5780   39.4320 C.2       1 D16302      0.0000 
      6 O4          6.7760    3.5200   40.7970 O.2       1 D16302      0.0000 
      7 C4A         5.8420    4.8050   38.7900 C.ar      1 D16302      0.0000 
      8 C5          5.4210    6.0910   39.6540 C.ar      1 D16302      0.0000 
      9 C6          4.7120    7.3290   38.9370 C.ar      1 D16302      0.0000 
     10 C7          4.4190    7.3090   37.4310 C.ar      1 D16302      0.0000 
     11 C8          4.8370    6.0430   36.6020 C.ar      1 D16302      0.0000 
     12 C8A         5.5520    4.8040   37.3000 C.ar      1 D16302      0.0000 
     13 C9          4.3730    8.6240   39.7120 C.3       1 D16302      0.0000 
     14 N10         4.6000    8.3960   41.1500 N.pl3     1 D16302      0.0000 
     15 C11         8.6180    8.0700   42.3440 C.2       1 D16302      0.0000 
     16 S13         7.4590    8.4220   41.0670 S.3       1 D16302      0.0000 
     17 C14         5.9430    8.2410   41.7360 C.2       1 D16302      0.0000 
     18 C15         6.1350    7.8030   43.3010 C.2       1 D16302      0.0000 
     19 C16         7.8160    7.7110   43.6600 C.2       1 D16302      0.0000 
     20 C          10.1490    8.0830   42.3270 C.2       1 D16302      0.0000 
     21 O          10.7200    8.5300   41.4030 O.2       1 D16302      0.0000 
     22 N          10.7570    8.1230   43.6600 N.am      1 D16302      0.0000 
     23 CA         12.1850    8.2910   43.9590 C.3       1 D16302      0.0000 
     24 CB         12.3990    9.7490   44.4510 C.3       1 D16302      0.0000 
     25 CG         11.8660   10.7430   43.3920 C.3       1 D16302      0.0000 
     26 CD         11.3730   12.0280   44.0800 C.2       1 D16302      0.0000 
     27 OE1        10.8800   12.9050   43.4450 O.co2     1 D16302      0.0000 
     28 OE2        11.5060   12.1530   45.4760 O.co2     1 D16302      0.0000 
     29 CT         12.4590    7.3440   45.1460 C.2       1 D16302      0.0000 
     30 O1         11.5370    6.9800   45.8060 O.co2     1 D16302      0.0000 
     31 O2         13.6780    6.6690   45.2510 O.co2     1 D16302      0.0000 
     32 CP1         3.4760    7.9110   41.9640 C.3       1 D16302      0.0000 
     33 H           5.7317    3.6253   35.4816 H         1 D16302      0.0000 
     34 H           5.5957    6.1118   40.5936 H         1 D16302      0.0000 
     35 H           3.9888    8.0490   36.9892 H         1 D16302      0.0000 
     36 H           4.6601    6.0064   35.6456 H         1 D16302      0.0000 
     37 H           3.3348    8.8726   39.5157 H         1 D16302      0.0000 
     38 H           5.0113    9.4181   39.3375 H         1 D16302      0.0000 
     39 H           5.5371    7.6392   43.8737 H         1 D16302      0.0000 
     40 H           8.0922    7.5024   44.4331 H         1 D16302      0.0000 
     41 H          10.1104    8.0219   44.4809 H         1 D16302      0.0000 
     42 H          12.7947    8.0718   43.1702 H         1 D16302      0.0000 
     43 H          13.4544    9.9190   44.6006 H         1 D16302      0.0000 
     44 H          11.8614    9.8911   45.3762 H         1 D16302      0.0000 
     45 H          11.0450   10.2837   42.8582 H         1 D16302      0.0000 
     46 H          12.6639   10.9875   42.7039 H         1 D16302      0.0000 
     47 H           7.6828    1.5521   35.4494 H         1 D16302      0.0000 
     48 H           7.4724    0.5155   36.6609 H         1 D16302      0.0000 
     49 H           6.2499    0.8573   35.6735 H         1 D16302      0.0000 
     50 H           3.7362    7.7900   42.9219 H         1 D16302      0.0000 
     51 H           2.7043    8.5468   41.9479 H         1 D16302      0.0000 
     52 H           3.1356    7.0286   41.6390 H         1 D16302      0.0000 
@<TRIPOS>BOND
     1    2    1 1    
     2   12    1 1    
     3   33    1 1    
     4    3    2 1    
     5    4    2 2    
     6   47    3 1    
     7   48    3 1    
     8   49    3 1    
     9    5    4 1    
    10    6    5 2    
    11    7    5 1    
    12    8    7 ar   
    13   12    7 ar   
    14    9    8 ar   
    15   34    8 1    
    16   10    9 ar   
    17   13    9 1    
    18   11   10 ar   
    19   35   10 1    
    20   12   11 ar   
    21   36   11 1    
    22   14   13 1    
    23   37   13 1    
    24   38   13 1    
    25   17   14 1    
    26   32   14 1    
    27   16   15 1    
    28   19   15 2    
    29   20   15 1    
    30   17   16 1    
    31   18   17 2    
    32   19   18 1    
    33   39   18 1    
    34   40   19 1    
    35   21   20 2    
    36   22   20 am   
    37   23   22 1    
    38   41   22 1    
    39   24   23 1    
    40   29   23 1    
    41   42   23 1    
    42   25   24 1    
    43   43   24 1    
    44   44   24 1    
    45   26   25 1    
    46   45   25 1    
    47   46   25 1    
    48   27   26 ar   
    49   28   26 ar   
    50   30   29 ar   
    51   31   29 ar   
    52   50   32 1    
    53   51   32 1    
    54   52   32 1    
@<TRIPOS>SUBSTRUCTURE
     1 D16302      1 GROUP   
@<TRIPOS>SET

