#    Name: 2yyl_FAD_1_INTS_M
#    Modification time : Mon Apr  7 18:31:38 2014

@<TRIPOS>MOLECULE
2yyl_FAD_1_INTS_M
   77     0    12     0     0
SMALL
NO_CHARGES


@<TRIPOS>ATOM
      1 NZ         19.4255   11.3610    4.2305 N.4       3 LYC4        0.0000 
      2 NZ         19.4740   12.4250    3.3450 N.4      11 LYL4        0.0000 
      3 NZ         20.2170    9.5330    5.8000 N.4       7 LYP4        0.0000 
      4 N          19.4255   11.3610    4.2305 N.am      2 SEC2        0.0000 
      5 N          19.4740   12.4250    3.3450 N.am     10 SEL2        0.0000 
      6 N          19.3770   10.2970    5.1160 N.am      6 SEP2        0.0000 
      7 NZ         20.4305   15.8005    3.8370 N.4       3 LYC4        0.0000 
      8 NZ         19.3540   14.9110    2.8390 N.4      11 LYL4        0.0000 
      9 NZ         22.4410   15.9690    4.2270 N.4       7 LYP4        0.0000 
     10 N          18.6775   15.7470    1.9590 N.am      2 SEC2        0.0000 
     11 N          19.3540   14.9110    2.8390 N.am     10 SEL2        0.0000 
     12 N          18.0010   16.5830    1.0790 N.am      6 SEP2        0.0000 
     13 N          20.7300   15.0150    3.0500 N.am      2 SEC2        0.0000 
     14 N          22.1060   15.1190    3.2610 N.am      6 SEP2        0.0000 
     15 N          20.4305   15.8005    3.8370 N.am      2 SEC2        0.0000 
     16 N          21.5070   16.6900    4.8350 N.am      6 SEP2        0.0000 
     17 N          17.8030   14.9820    1.4760 N.am      2 SEC2        0.0000 
     18 N          17.6050   13.3810    1.8730 N.am     10 SEL2        0.0000 
     19 O          16.8785    8.2505    3.3905 O.2       1 ALC1        0.0000 
     20 O          16.5970    8.0740    1.9570 O.2       9 ALL1        0.0000 
     21 O          17.1600    8.4270    4.8240 O.2       5 ALP1        0.0000 
     22 CA         18.9485    4.8000    3.4595 C.3       4 GLC5        0.0000 
     23 CA         20.6770    5.6000    2.7680 C.3      12 GLL5        0.0000 
     24 CA         17.2200    4.0000    4.1510 C.3       8 GLP5        0.0000 
     25 N          18.6690   19.6880   13.9100 N.am      2 SEC2        0.0000 
     26 N          17.4000   19.3440   13.7170 N.am     10 SEL2        0.0000 
     27 N          19.9380   20.0320   14.1030 N.am      6 SEP2        0.0000 
     28 O          16.0355   21.6875   14.6020 O.2       1 ALC1        0.0000 
     29 O          15.3820   20.4060   13.9030 O.2       9 ALL1        0.0000 
     30 O          16.6890   22.9690   15.3010 O.2       5 ALP1        0.0000 
     31 N          13.3420   22.9250   13.5760 N.am      2 SEC2        0.0000 
     32 N          13.3060   21.3650   13.9500 N.am     10 SEL2        0.0000 
     33 N          13.3780   24.4850   13.2020 N.am      6 SEP2        0.0000 
     34 CA          7.5260   21.1140    7.0995 C.3       4 GLC5        0.0000 
     35 CA          9.2300   20.0490    7.8800 C.3      12 GLL5        0.0000 
     36 CA          5.8220   22.1790    6.3190 C.3       8 GLP5        0.0000 
     37 CA          7.8845   19.1510    8.5960 C.3       4 GLC5        0.0000 
     38 CA          6.5390   18.2530    9.3120 C.3       8 GLP5        0.0000 
     39 CA          9.8825   17.6870    5.1425 C.3       4 GLC5        0.0000 
     40 CA         11.0300   18.1010    6.5110 C.3      12 GLL5        0.0000 
     41 CA          8.7350   17.2730    3.7740 C.3       8 GLP5        0.0000 
     42 CA         11.3435   16.0980    6.8665 C.3       4 GLC5        0.0000 
     43 CA         11.6570   14.0950    7.2220 C.3       8 GLP5        0.0000 
     44 CA         12.0895   17.0885   10.6645 C.3       4 GLC5        0.0000 
     45 CA         12.9750   18.8610    9.7160 C.3      12 GLL5        0.0000 
     46 CA         11.2040   15.3160   11.6130 C.3       8 GLP5        0.0000 
     47 CA         17.3470   17.1880    9.9540 C.3       4 GLC5        0.0000 
     48 CA         15.2600   17.7890    9.5570 C.3      12 GLL5        0.0000 
     49 CA         19.4340   16.5870   10.3510 C.3       8 GLP5        0.0000 
     50 CA         15.6455   19.9135    9.3065 C.3       4 GLC5        0.0000 
     51 CA         16.0310   22.0380    9.0560 C.3       8 GLP5        0.0000 
     52 CA         13.0665   15.8060   10.5680 C.3       4 GLC5        0.0000 
     53 CA         14.9290   16.2960    9.5230 C.3      12 GLL5        0.0000 
     54 CA         17.5185   16.1280    9.3250 C.3       4 GLC5        0.0000 
     55 CA         15.6030   15.6690    8.2990 C.3      12 GLL5        0.0000 
     56 CA         15.3340   12.7540    9.6670 C.3       4 GLC5        0.0000 
     57 CA         15.7420   14.1470    8.4070 C.3      12 GLL5        0.0000 
     58 CA         14.9260   11.3610   10.9270 C.3       8 GLP5        0.0000 
     59 CA         14.5610   12.9455    6.4845 C.3       4 GLC5        0.0000 
     60 CA         16.3180   13.5670    7.1080 C.3      12 GLL5        0.0000 
     61 CA         12.8040   12.3240    5.8610 C.3       8 GLP5        0.0000 
     62 CA         16.2900   11.5830    6.8900 C.3       4 GLC5        0.0000 
     63 CA         16.2620    9.5990    6.6720 C.3       8 GLP5        0.0000 
     64 NZ         20.3250   16.1110    5.0980 N.4       3 LYC4        0.0000 
     65 NZ         19.1430   15.5320    5.3610 N.4      11 LYL4        0.0000 
     66 N          20.3250   16.1110    5.0980 N.am      2 SEC2        0.0000 
     67 N          19.1430   15.5320    5.3610 N.am     10 SEL2        0.0000 
     68 CA         21.3158    7.5507    5.0183 C.3       4 GLC5        0.0000 
     69 CA         21.5680    8.1670    2.7490 C.3      12 GLL5        0.0000 
     70 CA         20.7020    7.4330    6.9720 C.3       8 GLP5        0.0000 
     71 CA          9.1416   17.8893    7.9482 C.3       4 GLC5        0.0000 
     72 CA         10.5460   19.6020    8.5220 C.3      12 GLL5        0.0000 
     73 CA          7.2810   17.1520    8.5430 C.3       8 GLP5        0.0000 
     74 CA         13.4200   20.9384    9.6108 C.3       4 GLC5        0.0000 
     75 CA         12.1060   19.7480   10.3670 C.3      12 GLL5        0.0000 
     76 CA         14.6010   22.4800    9.3290 C.3       8 GLP5        0.0000 
     77 CA         13.6647   14.5015    7.7875 C.3       4 GLC5        0.0000 
@<TRIPOS>BOND
@<TRIPOS>SUBSTRUCTURE
     1 ALC1       19 GROUP        1 X    ALC  0     ROOT ALC X 1
     2 SEC2        4 GROUP        1 X    SEC  0     **** SEC X 2
     3 LYC4        1 GROUP        1 X    LYC  0     **** LYC X 4
     4 GLC5       22 GROUP        1 X    GLC  0     **** GLC X 6
     5 ALP1       21 GROUP        1 Y    ALP  0     ROOT ALP Y 8
     6 SEP2        6 GROUP        1 Y    SEP  0     **** SEP Y 9
     7 LYP4        3 GROUP        1 Y    LYP  0     **** LYP Y 11
     8 GLP5       24 GROUP        1 Y    GLP  0     **** GLP Y 13
     9 ALL1       20 GROUP        1 Z    ALL  0     ROOT ALL Z 15
    10 SEL2        5 GROUP        1 Z    SEL  0     **** SEL Z 16
    11 LYL4        2 GROUP        1 Z    LYL  0     **** LYL Z 18
    12 GLL5       23 GROUP        1 Z    GLL  0     **** GLL Z 20
@<TRIPOS>SET

