#    Name: 2yyl_FAD_1_ligand
#    Modification time : Mon Apr  7 18:31:38 2014

@<TRIPOS>MOLECULE
2yyl_FAD_1_ligand
   84    89     1     0     0
SMALL
NO_CHARGES


@<TRIPOS>ATOM
      1 PA         18.6560   13.6290    3.0840 P.3       1 FAD600      0.0000 
      2 O1A        19.4740   12.4250    3.3450 O.co2     1 FAD600      0.0000 
      3 O2A        19.3540   14.9110    2.8390 O.co2     1 FAD600      0.0000 
      4 O5B        17.6050   13.3810    1.8730 O.3       1 FAD600      0.0000 
      5 C5B        17.9110   12.6220    0.7060 C.3       1 FAD600      0.0000 
      6 C4B        18.0430   11.1710    1.1230 C.3       1 FAD600      0.0000 
      7 O4B        18.5600   10.2610    0.1670 O.3       1 FAD600      0.0000 
      8 C3B        16.7710   10.4340    1.5010 C.3       1 FAD600      0.0000 
      9 O3B        15.9450   10.1070    0.3600 O.3       1 FAD600      0.0000 
     10 C2B        17.4840    9.1810    1.9740 C.3       1 FAD600      0.0000 
     11 O2B        16.5970    8.0740    1.9570 O.3       1 FAD600      0.0000 
     12 C1B        18.5840    9.0170    0.9130 C.3       1 FAD600      0.0000 
     13 N9A        19.8740    8.9210    1.6210 N.pl3     1 FAD600      0.0000 
     14 C8A        20.7000    9.9350    1.8940 C.2       1 FAD600      0.0000 
     15 N7A        21.7390    9.4730    2.5890 N.2       1 FAD600      0.0000 
     16 C5A        21.5680    8.1670    2.7490 C.ar      1 FAD600      0.0000 
     17 C6A        22.2910    7.1700    3.3800 C.ar      1 FAD600      0.0000 
     18 N6A        23.4140    7.4760    4.0280 N.pl3     1 FAD600      0.0000 
     19 N1A        21.8220    5.9090    3.3700 N.ar      1 FAD600      0.0000 
     20 C2A        20.6770    5.6000    2.7680 C.ar      1 FAD600      0.0000 
     21 N3A        19.9600    6.5330    2.1560 N.ar      1 FAD600      0.0000 
     22 C4A        20.3790    7.8080    2.1300 C.ar      1 FAD600      0.0000 
     23 N1         15.8900   18.9370   12.0490 N.2       1 FAD600      0.0000 
     24 C2         16.2830   19.5550   13.2460 C.2       1 FAD600      0.0000 
     25 O2         17.4000   19.3440   13.7170 O.2       1 FAD600      0.0000 
     26 N3         15.3820   20.4060   13.9030 N.am      1 FAD600      0.0000 
     27 C4         14.1010   20.6290   13.3660 C.2       1 FAD600      0.0000 
     28 O4         13.3060   21.3650   13.9500 O.2       1 FAD600      0.0000 
     29 C4X        13.7180   20.0160   12.1770 C.2       1 FAD600      0.0000 
     30 N5         12.4490   20.2610   11.6300 N.2       1 FAD600      0.0000 
     31 C5X        12.1060   19.7480   10.3670 C.ar      1 FAD600      0.0000 
     32 C6         10.9000   20.1170    9.7710 C.ar      1 FAD600      0.0000 
     33 C7         10.5460   19.6020    8.5220 C.ar      1 FAD600      0.0000 
     34 C7M         9.2300   20.0490    7.8800 C.3       1 FAD600      0.0000 
     35 C8         11.4030   18.7020    7.8700 C.ar      1 FAD600      0.0000 
     36 C8M        11.0300   18.1010    6.5110 C.3       1 FAD600      0.0000 
     37 C9         12.6120   18.3360    8.4680 C.ar      1 FAD600      0.0000 
     38 C9A        12.9750   18.8610    9.7160 C.ar      1 FAD600      0.0000 
     39 N10        14.2450   18.5950   10.2830 N.pl3     1 FAD600      0.0000 
     40 C10        14.6100   19.1690   11.5160 C.2       1 FAD600      0.0000 
     41 C1'        15.2600   17.7890    9.5570 C.3       1 FAD600      0.0000 
     42 C2'        14.9290   16.2960    9.5230 C.3       1 FAD600      0.0000 
     43 O2'        15.3930   15.6780   10.7270 O.3       1 FAD600      0.0000 
     44 C3'        15.6030   15.6690    8.2990 C.3       1 FAD600      0.0000 
     45 O3'        14.8440   15.9950    7.1320 O.3       1 FAD600      0.0000 
     46 C4'        15.7420   14.1470    8.4070 C.3       1 FAD600      0.0000 
     47 O4'        16.6170   13.8320    9.4960 O.3       1 FAD600      0.0000 
     48 C5'        16.3180   13.5670    7.1080 C.3       1 FAD600      0.0000 
     49 O5'        17.5750   14.1700    6.7760 O.3       1 FAD600      0.0000 
     50 P          17.7690   14.9800    5.4010 P.3       1 FAD600      0.0000 
     51 O1P        16.6280   15.9150    5.2610 O.co2     1 FAD600      0.0000 
     52 O2P        19.1430   15.5320    5.3610 O.co2     1 FAD600      0.0000 
     53 O3P        17.6160   13.8140    4.3050 O.3       1 FAD600      0.0000 
     54 H          18.8520   12.9334    0.2545 H         1 FAD600      0.0000 
     55 H          17.1218   12.6909   -0.0415 H         1 FAD600      0.0000 
     56 H          18.6890   11.1046    2.0313 H         1 FAD600      0.0000 
     57 H          16.3245   10.8852    2.2939 H         1 FAD600      0.0000 
     58 H          17.9380    9.3745    2.8968 H         1 FAD600      0.0000 
     59 H          18.3826    8.1931    0.3284 H         1 FAD600      0.0000 
     60 H          20.5630   10.8628    1.6269 H         1 FAD600      0.0000 
     61 H          23.9044    6.7103    4.4442 H         1 FAD600      0.0000 
     62 H          23.6654    8.4438    4.0399 H         1 FAD600      0.0000 
     63 H          20.3371    4.6025    2.7783 H         1 FAD600      0.0000 
     64 H          15.6558   20.8671   14.7761 H         1 FAD600      0.0000 
     65 H          10.2688   20.7706   10.2524 H         1 FAD600      0.0000 
     66 H          13.2410   17.6770    7.9906 H         1 FAD600      0.0000 
     67 H          16.2495   17.9136   10.0286 H         1 FAD600      0.0000 
     68 H          15.3537   18.1466    8.5176 H         1 FAD600      0.0000 
     69 H          13.8639   16.1950    9.4091 H         1 FAD600      0.0000 
     70 H          16.6059   16.0909    8.2196 H         1 FAD600      0.0000 
     71 H          14.7636   13.7280    8.5594 H         1 FAD600      0.0000 
     72 H          15.5704   13.7260    6.3141 H         1 FAD600      0.0000 
     73 H          16.4152   12.4779    7.2460 H         1 FAD600      0.0000 
     74 H           9.2054   21.0379    7.7334 H         1 FAD600      0.0000 
     75 H           9.0855   19.6170    6.9898 H         1 FAD600      0.0000 
     76 H           8.4414   19.8174    8.4496 H         1 FAD600      0.0000 
     77 H          11.7387   17.4827    6.1713 H         1 FAD600      0.0000 
     78 H          10.1804   17.5756    6.5578 H         1 FAD600      0.0000 
     79 H          10.8996   18.8077    5.8156 H         1 FAD600      0.0000 
     80 H          15.8676    9.1101    0.3739 H         1 FAD600      0.0000 
     81 H          16.5942    7.7303    2.8961 H         1 FAD600      0.0000 
     82 H          16.2788   16.1038   10.9116 H         1 FAD600      0.0000 
     83 H          15.3041   15.5186    6.3827 H         1 FAD600      0.0000 
     84 H          16.3583   14.4637   10.2267 H         1 FAD600      0.0000 
@<TRIPOS>BOND
     1    2    1 ar   
     2    3    1 ar   
     3    4    1 1    
     4   53    1 1    
     5    5    4 1    
     6    6    5 1    
     7   54    5 1    
     8   55    5 1    
     9    7    6 1    
    10    8    6 1    
    11   56    6 1    
    12   12    7 1    
    13    9    8 1    
    14   10    8 1    
    15   57    8 1    
    16   80    9 1    
    17   11   10 1    
    18   12   10 1    
    19   58   10 1    
    20   81   11 1    
    21   13   12 1    
    22   59   12 1    
    23   14   13 1    
    24   22   13 1    
    25   15   14 2    
    26   60   14 1    
    27   16   15 1    
    28   17   16 ar   
    29   22   16 ar   
    30   18   17 1    
    31   19   17 ar   
    32   61   18 1    
    33   62   18 1    
    34   20   19 ar   
    35   21   20 ar   
    36   63   20 1    
    37   22   21 ar   
    38   24   23 1    
    39   40   23 2    
    40   25   24 2    
    41   26   24 am   
    42   27   26 am   
    43   64   26 1    
    44   28   27 2    
    45   29   27 1    
    46   30   29 2    
    47   40   29 1    
    48   31   30 1    
    49   32   31 ar   
    50   38   31 ar   
    51   33   32 ar   
    52   65   32 1    
    53   34   33 1    
    54   35   33 ar   
    55   74   34 1    
    56   75   34 1    
    57   76   34 1    
    58   36   35 1    
    59   37   35 ar   
    60   77   36 1    
    61   78   36 1    
    62   79   36 1    
    63   38   37 ar   
    64   66   37 1    
    65   39   38 1    
    66   40   39 1    
    67   41   39 1    
    68   42   41 1    
    69   67   41 1    
    70   68   41 1    
    71   43   42 1    
    72   44   42 1    
    73   69   42 1    
    74   82   43 1    
    75   45   44 1    
    76   46   44 1    
    77   70   44 1    
    78   83   45 1    
    79   47   46 1    
    80   48   46 1    
    81   71   46 1    
    82   84   47 1    
    83   49   48 1    
    84   72   48 1    
    85   73   48 1    
    86   50   49 1    
    87   51   50 ar   
    88   52   50 ar   
    89   53   50 1    
@<TRIPOS>SUBSTRUCTURE
     1 FAD600      1 GROUP   
@<TRIPOS>SET

