#    Name: 3b0u_FMN_2_INTS_M
#    Modification time : Mon Mar 24 18:33:32 2014

@<TRIPOS>MOLECULE
3b0u_FMN_2_INTS_M
   79     0    12     0     0
SMALL
NO_CHARGES


@<TRIPOS>ATOM
      1 N         -43.0140   19.3720   16.3215 N.am      2 SEC2        0.0000 
      2 N         -42.1840   18.1610   16.7080 N.am     10 SEL2        0.0000 
      3 N         -43.8440   20.5830   15.9350 N.am      6 SEP2        0.0000 
      4 N         -41.1710   20.7345   18.9280 N.am      2 SEC2        0.0000 
      5 N         -42.0080   19.8660   18.1900 N.am     10 SEL2        0.0000 
      6 N         -40.3340   21.6030   19.6660 N.am      6 SEP2        0.0000 
      7 N         -42.9260   20.2245   17.0625 N.am      2 SEC2        0.0000 
      8 O         -39.9055   18.9575   19.4055 O.2       1 ALC1        0.0000 
      9 O         -40.5580   18.1540   18.4520 O.2       9 ALL1        0.0000 
     10 O         -39.2530   19.7610   20.3590 O.2       5 ALP1        0.0000 
     11 N         -37.8355   16.8655   19.2935 N.am      2 SEC2        0.0000 
     12 N         -39.1450   16.4070   18.6250 N.am     10 SEL2        0.0000 
     13 N         -36.5260   17.3240   19.9620 N.am      6 SEP2        0.0000 
     14 N         -38.7800   14.6840   16.4280 N.am      2 SEC2        0.0000 
     15 N         -40.2150   15.0800   16.4870 N.am     10 SEL2        0.0000 
     16 N         -37.3450   14.2880   16.3690 N.am      6 SEP2        0.0000 
     17 CA        -38.3530   13.3490   15.9190 C.3       4 GLC5        0.0000 
     18 CA        -40.0780   13.4450   14.7320 C.3      12 GLL5        0.0000 
     19 CA        -36.6280   13.2530   17.1060 C.3       8 GLP5        0.0000 
     20 CA        -38.0365   12.0715   12.3170 C.3       4 GLC5        0.0000 
     21 CA        -39.8940   11.7230   12.9200 C.3      12 GLL5        0.0000 
     22 CA        -36.1790   12.4200   11.7140 C.3       8 GLP5        0.0000 
     23 CA        -40.4840   14.5170   11.0640 C.3       4 GLC5        0.0000 
     24 CA        -42.0640   13.0490   11.5430 C.3      12 GLL5        0.0000 
     25 CA        -38.9040   15.9850   10.5850 C.3       8 GLP5        0.0000 
     26 CA        -42.3005   13.5685    9.7125 C.3       4 GLC5        0.0000 
     27 CA        -42.5370   14.0880    7.8820 C.3       8 GLP5        0.0000 
     28 CA        -40.8285   17.1560   12.8850 C.3       4 GLC5        0.0000 
     29 CA        -42.7900   17.9500   13.4220 C.3      12 GLL5        0.0000 
     30 CA        -38.8670   16.3620   12.3480 C.3       8 GLP5        0.0000 
     31 O         -40.6665   18.5000   14.4590 O.2       1 ALC1        0.0000 
     32 O         -41.9640   18.9170   14.0470 O.2       9 ALL1        0.0000 
     33 O         -39.3690   18.0830   14.8710 O.2       5 ALP1        0.0000 
     34 N         -44.2265   20.0445   14.6795 N.am      2 SEC2        0.0000 
     35 N         -44.6090   19.5060   13.4240 N.am     10 SEL2        0.0000 
     36 O         -45.0970   20.5585   12.7580 O.2       1 ALC1        0.0000 
     37 O         -44.6090   19.5060   13.4240 O.2       9 ALL1        0.0000 
     38 O         -45.5850   21.6110   12.0920 O.2       5 ALP1        0.0000 
     39 CA        -47.1620   19.1525   11.6795 C.3       4 GLC5        0.0000 
     40 CA        -45.6020   18.3150   10.8130 C.3      12 GLL5        0.0000 
     41 CA        -48.7220   19.9900   12.5460 C.3       8 GLP5        0.0000 
     42 CA        -46.8140   19.6245    9.7490 C.3       4 GLC5        0.0000 
     43 CA        -48.0260   20.9340    8.6850 C.3       8 GLP5        0.0000 
     44 N         -44.4815   20.5215   10.1530 N.am      2 SEC2        0.0000 
     45 N         -44.7670   19.0440    9.9400 N.am     10 SEL2        0.0000 
     46 N         -44.1960   21.9990   10.3660 N.am      6 SEP2        0.0000 
     47 NZ        -46.3680   16.9100    7.9235 N.4       3 LYC4        0.0000 
     48 NZ        -45.7320   18.1020    7.7750 N.4      11 LYL4        0.0000 
     49 NZ        -46.2310   14.6440    7.9760 N.4       7 LYP4        0.0000 
     50 N         -46.7405   18.8555    7.2290 N.am      2 SEC2        0.0000 
     51 N         -45.7320   18.1020    7.7750 N.am     10 SEL2        0.0000 
     52 N         -47.7490   19.6090    6.6830 N.am      6 SEP2        0.0000 
     53 N         -45.3200   16.4320    7.9085 N.am      2 SEC2        0.0000 
     54 N         -44.9080   14.7620    8.0420 N.am      6 SEP2        0.0000 
     55 N         -46.3680   16.9100    7.9235 N.am      2 SEC2        0.0000 
     56 N         -47.0040   15.7180    8.0720 N.am      6 SEP2        0.0000 
     57 NZ        -44.2420   16.0040    8.3200 N.4       3 LYC4        0.0000 
     58 NZ        -43.5760   17.2460    8.5980 N.4      11 LYL4        0.0000 
     59 N         -42.3395   17.0405    8.0015 N.am      2 SEC2        0.0000 
     60 N         -43.5760   17.2460    8.5980 N.am     10 SEL2        0.0000 
     61 N         -41.1030   16.8350    7.4050 N.am      6 SEP2        0.0000 
     62 N         -44.2420   16.0040    8.3200 N.am      2 SEC2        0.0000 
     63 N         -42.3340   19.7545    7.8135 N.am      2 SEC2        0.0000 
     64 N         -43.7280   19.5500    7.6890 N.am     10 SEL2        0.0000 
     65 N         -40.9400   19.9590    7.9380 N.am      6 SEP2        0.0000 
     66 CA        -39.0443   14.9525   14.8030 C.3       4 GLC5        0.0000 
     67 CA        -40.6690   14.5770   15.2820 C.3      12 GLL5        0.0000 
     68 CA        -37.7150   15.8940   14.5990 C.3       8 GLP5        0.0000 
     69 CA        -38.9933   13.9670   13.1580 C.3       4 GLC5        0.0000 
     70 CA        -40.5310   12.9450   13.5180 C.3      12 GLL5        0.0000 
     71 CA        -37.7740   15.6000   13.0970 C.3       8 GLP5        0.0000 
     72 CA        -43.8056   13.4896   12.0912 C.3       4 GLC5        0.0000 
     73 CA        -41.5730   13.5840   12.8550 C.3      12 GLL5        0.0000 
     74 CA        -45.6190   12.9640   11.3810 C.3       8 GLP5        0.0000 
     75 CA        -40.3296   15.5218   13.1111 C.3       4 GLC5        0.0000 
     76 CA        -41.7820   19.3933   12.3435 C.3       4 GLC5        0.0000 
     77 CA        -40.2470   20.4790   11.6830 C.3       8 GLP5        0.0000 
     78 CA        -43.2065   20.0502   14.2275 C.3       4 GLC5        0.0000 
     79 CA        -43.0960   21.7930   15.4510 C.3       8 GLP5        0.0000 
@<TRIPOS>BOND
@<TRIPOS>SUBSTRUCTURE
     1 ALC1        8 GROUP        1 X    ALC  0     ROOT ALC X 1
     2 SEC2        1 GROUP        1 X    SEC  0     **** SEC X 2
     3 LYC4       47 GROUP        1 X    LYC  0     **** LYC X 4
     4 GLC5       17 GROUP        1 X    GLC  0     **** GLC X 6
     5 ALP1       10 GROUP        1 Y    ALP  0     ROOT ALP Y 8
     6 SEP2        3 GROUP        1 Y    SEP  0     **** SEP Y 9
     7 LYP4       49 GROUP        1 Y    LYP  0     **** LYP Y 11
     8 GLP5       19 GROUP        1 Y    GLP  0     **** GLP Y 13
     9 ALL1        9 GROUP        1 Z    ALL  0     ROOT ALL Z 15
    10 SEL2        2 GROUP        1 Z    SEL  0     **** SEL Z 16
    11 LYL4       48 GROUP        1 Z    LYL  0     **** LYL Z 18
    12 GLL5       18 GROUP        1 Z    GLL  0     **** GLL Z 20
@<TRIPOS>SET

