#    Name: 3b0u_FMN_2_ligand
#    Modification time : Mon Mar 24 18:33:32 2014

@<TRIPOS>MOLECULE
3b0u_FMN_2_ligand
   50    52     1     0     0
SMALL
NO_CHARGES


@<TRIPOS>ATOM
      1 N1        -42.1840   18.1610   16.7080 N.2       1 FMN400      0.0000 
      2 C2        -41.6030   18.7710   17.7970 C.2       1 FMN400      0.0000 
      3 O2        -42.0080   19.8660   18.1900 O.2       1 FMN400      0.0000 
      4 N3        -40.5580   18.1540   18.4520 N.am      1 FMN400      0.0000 
      5 C4        -40.0840   16.9310   18.0270 C.2       1 FMN400      0.0000 
      6 O4        -39.1450   16.4070   18.6250 O.2       1 FMN400      0.0000 
      7 C4A       -40.6670   16.3090   16.9290 C.2       1 FMN400      0.0000 
      8 N5        -40.2150   15.0800   16.4870 N.2       1 FMN400      0.0000 
      9 C5A       -40.6690   14.5770   15.2820 C.ar      1 FMN400      0.0000 
     10 C6        -40.0780   13.4450   14.7320 C.ar      1 FMN400      0.0000 
     11 C7        -40.5310   12.9450   13.5180 C.ar      1 FMN400      0.0000 
     12 C7M       -39.8940   11.7230   12.9200 C.3       1 FMN400      0.0000 
     13 C8        -41.5730   13.5840   12.8550 C.ar      1 FMN400      0.0000 
     14 C8M       -42.0640   13.0490   11.5430 C.3       1 FMN400      0.0000 
     15 C9        -42.1660   14.7140   13.4040 C.ar      1 FMN400      0.0000 
     16 C9A       -41.7150   15.2140   14.6190 C.ar      1 FMN400      0.0000 
     17 N10       -42.2970   16.3400   15.1760 N.pl3     1 FMN400      0.0000 
     18 C10       -41.7180   16.9370   16.2710 C.2       1 FMN400      0.0000 
     19 C1'       -43.4230   17.0460   14.4830 C.3       1 FMN400      0.0000 
     20 C2'       -42.7900   17.9500   13.4220 C.3       1 FMN400      0.0000 
     21 O2'       -41.9640   18.9170   14.0470 O.3       1 FMN400      0.0000 
     22 C3'       -43.8440   18.6650   12.5860 C.3       1 FMN400      0.0000 
     23 O3'       -44.6090   19.5060   13.4240 O.3       1 FMN400      0.0000 
     24 C4'       -44.7460   17.6550   11.8860 C.3       1 FMN400      0.0000 
     25 O4'       -43.9570   16.6450   11.2900 O.3       1 FMN400      0.0000 
     26 C5'       -45.6020   18.3150   10.8130 C.3       1 FMN400      0.0000 
     27 O5'       -44.7670   19.0440    9.9400 O.3       1 FMN400      0.0000 
     28 P         -44.4420   18.4730    8.4710 P.3       1 FMN400      0.0000 
     29 O1P       -45.7320   18.1020    7.7750 O.co2     1 FMN400      0.0000 
     30 O2P       -43.5760   17.2460    8.5980 O.co2     1 FMN400      0.0000 
     31 O3P       -43.7280   19.5500    7.6890 O.co2     1 FMN400      0.0000 
     32 H         -40.1239   18.6151   19.2734 H         1 FMN400      0.0000 
     33 H         -39.3051   12.9782   15.2249 H         1 FMN400      0.0000 
     34 H         -42.9389   15.1804   12.9108 H         1 FMN400      0.0000 
     35 H         -43.9703   17.6532   15.1809 H         1 FMN400      0.0000 
     36 H         -44.0692   16.3360   13.9997 H         1 FMN400      0.0000 
     37 H         -42.2058   17.3208   12.7544 H         1 FMN400      0.0000 
     38 H         -43.3272   19.2373   11.8227 H         1 FMN400      0.0000 
     39 H         -45.4151   17.2312   12.6310 H         1 FMN400      0.0000 
     40 H         -46.3329   18.9566   11.3188 H         1 FMN400      0.0000 
     41 H         -46.1531   17.5226   10.2933 H         1 FMN400      0.0000 
     42 H         -38.9199   11.8616   12.7413 H         1 FMN400      0.0000 
     43 H         -39.9712   10.9303   13.5247 H         1 FMN400      0.0000 
     44 H         -40.3185   11.4707   12.0504 H         1 FMN400      0.0000 
     45 H         -41.3403   13.0359   10.8530 H         1 FMN400      0.0000 
     46 H         -42.4050   12.1128   11.6279 H         1 FMN400      0.0000 
     47 H         -42.8115   13.6008   11.1732 H         1 FMN400      0.0000 
     48 H         -41.1137   18.4342   14.2567 H         1 FMN400      0.0000 
     49 H         -44.9566   20.2245   12.8216 H         1 FMN400      0.0000 
     50 H         -43.8792   16.9108   10.3291 H         1 FMN400      0.0000 
@<TRIPOS>BOND
     1    2    1 1    
     2   18    1 2    
     3    3    2 2    
     4    4    2 am   
     5    5    4 am   
     6   32    4 1    
     7    6    5 2    
     8    7    5 1    
     9    8    7 2    
    10   18    7 1    
    11    9    8 1    
    12   10    9 ar   
    13   16    9 ar   
    14   11   10 ar   
    15   33   10 1    
    16   12   11 1    
    17   13   11 ar   
    18   42   12 1    
    19   43   12 1    
    20   44   12 1    
    21   14   13 1    
    22   15   13 ar   
    23   45   14 1    
    24   46   14 1    
    25   47   14 1    
    26   16   15 ar   
    27   34   15 1    
    28   17   16 1    
    29   18   17 1    
    30   19   17 1    
    31   20   19 1    
    32   35   19 1    
    33   36   19 1    
    34   21   20 1    
    35   22   20 1    
    36   37   20 1    
    37   48   21 1    
    38   23   22 1    
    39   24   22 1    
    40   38   22 1    
    41   49   23 1    
    42   25   24 1    
    43   26   24 1    
    44   39   24 1    
    45   50   25 1    
    46   27   26 1    
    47   40   26 1    
    48   41   26 1    
    49   28   27 1    
    50   29   28 ar   
    51   30   28 ar   
    52   31   28 ar   
@<TRIPOS>SUBSTRUCTURE
     1 FMN400      1 GROUP   
@<TRIPOS>SET

