#    Name: 3KFX_1_CAVITY_N1_ALL.mol2
#    Modification time : Tue Mar 11 07:09:33 2014

@<TRIPOS>MOLECULE
3KFX_1_CAVITY_N1_ALL.mol2
   65     0     7     0     0
SMALL
NO_CHARGES


@<TRIPOS>ATOM
      1 O          -1.8516   45.7674  -13.6832 O.2       2 ALA2        0.0000 
      2 CZ         -1.1832   45.1646  -15.6042 C.ar      5 PHE5        0.0000 
      3 O          -2.5230   45.4113  -14.9764 O.2       2 ALA2        0.0000 
      4 O          -3.8628   45.6580  -14.3487 O.2       2 ALA2        0.0000 
      5 CZ         -1.8547   44.8085  -16.8974 C.ar      5 PHE5        0.0000 
      6 CA         -3.1945   45.0552  -16.2696 C.3       6 GLY6        0.0000 
      7 CZ         -2.5261   44.4524  -18.1905 C.ar      5 PHE5        0.0000 
      8 CA         -3.8659   44.6991  -17.5628 C.3       6 GLY6        0.0000 
      9 DU         -3.1976   44.0963  -19.4837 H         7 CUB7        0.0000 
     10 CA         -4.5374   44.3430  -18.8560 C.3       6 GLY6        0.0000 
     11 CA         -5.2089   43.9869  -20.1492 C.3       6 GLY6        0.0000 
     12 O          -0.5754   44.0846  -13.8825 O.2       2 ALA2        0.0000 
     13 OD1        -1.2469   43.7285  -15.1757 O.3       3 ASP3        0.0000 
     14 CZ         -1.9183   43.3724  -16.4689 C.ar      5 PHE5        0.0000 
     15 O          -3.2581   43.6191  -15.8411 O.2       2 ALA2        0.0000 
     16 CZ         -1.2500   42.7696  -18.3898 C.ar      5 PHE5        0.0000 
     17 CZ         -2.5898   43.0163  -17.7621 C.ar      5 PHE5        0.0000 
     18 CA         -3.9296   43.2630  -17.1343 C.3       6 GLY6        0.0000 
     19 CZ         -1.9214   42.4135  -19.6830 C.ar      5 PHE5        0.0000 
     20 DU         -3.2612   42.6602  -19.0552 H         7 CUB7        0.0000 
     21 CA         -4.6010   42.9069  -18.4275 C.3       6 GLY6        0.0000 
     22 DU         -3.9327   42.3041  -20.3484 H         7 CUB7        0.0000 
     23 CA         -5.2725   42.5508  -19.7207 C.3       6 GLY6        0.0000 
     24 CZ          0.0293   42.0457  -15.3749 C.ar      5 PHE5        0.0000 
     25 OD1        -1.3105   42.2924  -14.7472 O.3       3 ASP3        0.0000 
     26 CZ         -0.6422   41.6896  -16.6681 C.ar      5 PHE5        0.0000 
     27 CA         -1.9820   41.9363  -16.0404 C.3       6 GLY6        0.0000 
     28 OG         -1.3136   41.3336  -17.9613 O.2       1 SER1        0.0000 
     29 DU         -2.6534   41.5802  -17.3336 H         7 CUB7        0.0000 
     30 CA         -3.9932   41.8269  -16.7058 C.3       6 GLY6        0.0000 
     31 OG         -1.9851   40.9775  -19.2545 O.2       1 SER1        0.0000 
     32 DU         -3.3249   41.2241  -18.6268 H         7 CUB7        0.0000 
     33 CA         -4.6647   41.4708  -17.9990 C.3       6 GLY6        0.0000 
     34 OG         -2.6565   40.6214  -20.5477 O.2       1 SER1        0.0000 
     35 DU         -3.9963   40.8680  -19.9199 H         7 CUB7        0.0000 
     36 CA         -5.3362   41.1147  -19.2922 C.3       6 GLY6        0.0000 
     37 CA         -4.6678   40.5120  -21.2131 C.3       6 GLY6        0.0000 
     38 OG         -0.7058   40.2536  -16.2396 O.2       1 SER1        0.0000 
     39 CA         -2.0456   40.5002  -15.6119 C.3       6 GLY6        0.0000 
     40 OG         -2.7171   40.1441  -16.9051 O.2       1 SER1        0.0000 
     41 CA         -4.0569   40.3908  -16.2773 C.3       6 GLY6        0.0000 
     42 OG         -3.3885   39.7881  -18.1983 O.2       1 SER1        0.0000 
     43 CA         -4.7283   40.0347  -17.5705 C.3       6 GLY6        0.0000 
     44 OG         -2.7202   39.1853  -20.1192 O.2       1 SER1        0.0000 
     45 CA         -4.0600   39.4320  -19.4915 C.3       6 GLY6        0.0000 
     46 CA         -5.3998   39.6786  -18.8637 C.3       6 GLY6        0.0000 
     47 CA         -3.3916   38.8292  -21.4124 C.3       6 GLY6        0.0000 
     48 CA         -4.7314   39.0759  -20.7846 C.3       6 GLY6        0.0000 
     49 CA         -3.1277   47.4501  -13.4840 C.3       6 GLY6        0.0000 
     50 NZ         -1.1196   46.6007  -16.0327 N.2       4 LYS4        0.0000 
     51 NZ         -2.4594   46.8474  -15.4049 N.2       4 LYS4        0.0000 
     52 CA         -3.7992   47.0940  -14.7772 C.3       6 GLY6        0.0000 
     53 CZ         -1.7910   46.2446  -17.3258 C.ar      5 PHE5        0.0000 
     54 CA         -3.1308   46.4913  -16.6981 C.3       6 GLY6        0.0000 
     55 CA         -2.7807   38.7081  -16.4766 C.3       6 GLY6        0.0000 
     56 OG         -3.4522   38.3520  -17.7698 O.2       1 SER1        0.0000 
     57 CA         -4.7920   38.5987  -17.1420 C.3       6 GLY6        0.0000 
     58 OG         -1.4440   37.5025  -20.3184 O.2       1 SER1        0.0000 
     59 OG         -2.7838   37.7492  -19.6907 O.2       1 SER1        0.0000 
     60 CA         -4.1236   37.9959  -19.0630 C.3       6 GLY6        0.0000 
     61 O          -5.4635   38.2426  -18.4352 O.2       2 ALA2        0.0000 
     62 CA         -3.4553   37.3931  -20.9839 C.3       6 GLY6        0.0000 
     63 OG         -2.1760   36.6692  -17.9690 O.2       1 SER1        0.0000 
     64 O          -3.5158   36.9159  -17.3413 O.2       2 ALA2        0.0000 
     65 CA         -2.8475   36.3131  -19.2622 C.3       6 GLY6        0.0000 
@<TRIPOS>BOND
@<TRIPOS>SUBSTRUCTURE
     1 SER1       28 GROUP   
     2 ALA2        1 GROUP   
     3 ASP3       13 GROUP   
     4 LYS4       50 GROUP   
     5 PHE5        2 GROUP   
     6 GLY6        6 GROUP   
     7 CUB7        9 GROUP   
@<TRIPOS>SET

