#    Name: 3kfx_ADP_1_INTS_M
#    Modification time : Mon Mar 24 19:27:00 2014

@<TRIPOS>MOLECULE
3kfx_ADP_1_INTS_M
   61     0    12     0     0
SMALL
NO_CHARGES


@<TRIPOS>ATOM
      1 NZ         -4.7715   33.3995  -15.0715 N.4       3 LYC4        0.0000 
      2 NZ         -5.2520   34.3710  -16.5110 N.4      11 LYL4        0.0000 
      3 NZ         -4.2910   32.4280  -13.6320 N.4       7 LYP4        0.0000 
      4 NZ         -5.7970   34.9555  -17.5095 N.4       3 LYC4        0.0000 
      5 NZ         -7.5940   35.8490  -18.8260 N.4       7 LYP4        0.0000 
      6 N          -6.2010   34.9735  -15.5050 N.am      2 SEC2        0.0000 
      7 N          -5.2520   34.3710  -16.5110 N.am     10 SEL2        0.0000 
      8 N          -7.1500   35.5760  -14.4990 N.am      6 SEP2        0.0000 
      9 N          -5.7970   34.9555  -17.5095 N.am      2 SEC2        0.0000 
     10 N          -6.3420   35.5400  -18.5080 N.am      6 SEP2        0.0000 
     11 N          -1.4055   34.0155  -17.1760 N.am      2 SEC2        0.0000 
     12 N          -2.8380   33.9930  -17.1830 N.am     10 SEL2        0.0000 
     13 N           0.0270   34.0380  -17.1690 N.am      6 SEP2        0.0000 
     14 NZ         -3.8850   33.5955  -14.2240 N.4       3 LYC4        0.0000 
     15 NZ         -3.4790   34.7630  -14.8160 N.4      11 LYL4        0.0000 
     16 N          -3.0215   36.0040  -14.2890 N.am      2 SEC2        0.0000 
     17 N          -3.4790   34.7630  -14.8160 N.am     10 SEL2        0.0000 
     18 N          -2.5640   37.2450  -13.7620 N.am      6 SEP2        0.0000 
     19 N          -2.1210   35.0445  -14.7285 N.am      2 SEC2        0.0000 
     20 N          -0.7630   35.3260  -14.6410 N.am      6 SEP2        0.0000 
     21 N          -3.8850   33.5955  -14.2240 N.am      2 SEC2        0.0000 
     22 N          -4.2910   32.4280  -13.6320 N.am      6 SEP2        0.0000 
     23 N          -0.7290   37.9550  -18.2450 N.am      2 SEC2        0.0000 
     24 N          -1.5060   37.0020  -17.7640 N.am     10 SEL2        0.0000 
     25 N           0.0480   38.9080  -18.7260 N.am      6 SEP2        0.0000 
     26 N          -0.1665   36.6335  -18.0355 N.am      2 SEC2        0.0000 
     27 N           1.1730   36.2650  -18.3070 N.am      6 SEP2        0.0000 
     28 N          -4.9805   36.1125  -18.8690 N.am      2 SEC2        0.0000 
     29 N          -3.6190   36.6850  -19.2300 N.am     10 SEL2        0.0000 
     30 N          -3.1595   36.7710  -15.2275 N.am      2 SEC2        0.0000 
     31 N          -3.7550   36.2970  -16.6930 N.am     10 SEL2        0.0000 
     32 CA         -6.2125   38.4105  -16.5055 C.3       4 GLC5        0.0000 
     33 CA         -4.8090   39.0280  -17.6100 C.3      12 GLL5        0.0000 
     34 CA         -7.6160   37.7930  -15.4010 C.3       8 GLP5        0.0000 
     35 CA         -5.8320   38.0750  -19.2050 C.3       4 GLC5        0.0000 
     36 CA         -6.8550   37.1220  -20.8000 C.3       8 GLP5        0.0000 
     37 CA         -4.0025   41.9615  -15.7845 C.3       4 GLC5        0.0000 
     38 CA         -3.1910   42.0610  -17.8510 C.3      12 GLL5        0.0000 
     39 CA         -4.8140   41.8620  -13.7180 C.3       8 GLP5        0.0000 
     40 CA         -0.1575   45.7305  -13.2680 C.3       4 GLC5        0.0000 
     41 CA         -0.3060   43.7030  -14.1630 C.3      12 GLL5        0.0000 
     42 CA         -0.0090   47.7580  -12.3730 C.3       8 GLP5        0.0000 
     43 CA          1.4840   44.2985  -14.5235 C.3       4 GLC5        0.0000 
     44 CA          3.2740   44.8940  -14.8840 C.3       8 GLP5        0.0000 
     45 O           0.3770   44.3790  -11.9860 O.2       1 ALC1        0.0000 
     46 O           0.5370   43.3300  -13.1760 O.2       9 ALL1        0.0000 
     47 O           0.2170   45.4280  -10.7960 O.2       5 ALP1        0.0000 
     48 O           1.4910   41.9480  -13.0850 O.2       1 ALC1        0.0000 
     49 O           2.4450   40.5660  -12.9940 O.2       5 ALP1        0.0000 
     50 N           0.5280   45.7745  -14.0325 N.am      2 SEC2        0.0000 
     51 N          -0.6570   44.9940  -14.4020 N.am     10 SEL2        0.0000 
     52 N           1.7130   46.5550  -13.6630 N.am      6 SEP2        0.0000 
     53 CA         -0.7480   46.5580  -13.8845 C.3       4 GLC5        0.0000 
     54 CA         -1.4870   45.3580  -15.3960 C.3      12 GLL5        0.0000 
     55 CA         -5.9250   40.5307  -16.4567 C.3       4 GLC5        0.0000 
     56 CA         -4.8830   40.4430  -18.2030 C.3      12 GLL5        0.0000 
     57 CA         -7.0040   41.3260  -15.0070 C.3       8 GLP5        0.0000 
     58 CA         -6.1707   39.9435  -19.8038 C.3       4 GLC5        0.0000 
     59 CA         -7.8390   39.3650  -20.7520 C.3       8 GLP5        0.0000 
     60 CA         -3.0913   42.3850  -14.6405 C.3       4 GLC5        0.0000 
     61 CA         -1.8220   43.1450  -16.0910 C.3      12 GLL5        0.0000 
@<TRIPOS>BOND
@<TRIPOS>SUBSTRUCTURE
     1 ALC1       45 GROUP        1 X    ALC  0     ROOT ALC X 1
     2 SEC2        6 GROUP        1 X    SEC  0     **** SEC X 2
     3 LYC4        1 GROUP        1 X    LYC  0     **** LYC X 4
     4 GLC5       32 GROUP        1 X    GLC  0     **** GLC X 6
     5 ALP1       47 GROUP        1 Y    ALP  0     ROOT ALP Y 8
     6 SEP2        8 GROUP        1 Y    SEP  0     **** SEP Y 9
     7 LYP4        3 GROUP        1 Y    LYP  0     **** LYP Y 11
     8 GLP5       34 GROUP        1 Y    GLP  0     **** GLP Y 13
     9 ALL1       46 GROUP        1 Z    ALL  0     ROOT ALL Z 15
    10 SEL2        7 GROUP        1 Z    SEL  0     **** SEL Z 16
    11 LYL4        2 GROUP        1 Z    LYL  0     **** LYL Z 18
    12 GLL5       33 GROUP        1 Z    GLL  0     **** GLL Z 20
@<TRIPOS>SET

