#    Name: 3kfx_ADP_1_ligand
#    Modification time : Mon Mar 24 19:27:00 2014

@<TRIPOS>MOLECULE
3kfx_ADP_1_ligand
   39    41     1     0     0
SMALL
NO_CHARGES


@<TRIPOS>ATOM
      1 PB         -3.7960   34.7050  -16.2910 P.3       1 ADP401      0.0000 
      2 O1B        -5.2520   34.3710  -16.5110 O.co2     1 ADP401      0.0000 
      3 O2B        -2.8380   33.9930  -17.1830 O.co2     1 ADP401      0.0000 
      4 O3B        -3.4790   34.7630  -14.8160 O.co2     1 ADP401      0.0000 
      5 PA         -3.0360   37.0800  -17.9080 P.3       1 ADP401      0.0000 
      6 O1A        -1.5060   37.0020  -17.7640 O.co2     1 ADP401      0.0000 
      7 O2A        -3.6190   36.6850  -19.2300 O.co2     1 ADP401      0.0000 
      8 O3A        -3.7550   36.2970  -16.6930 O.3       1 ADP401      0.0000 
      9 O5'        -3.4510   38.5780  -17.5590 O.3       1 ADP401      0.0000 
     10 C5'        -4.8090   39.0280  -17.6100 C.3       1 ADP401      0.0000 
     11 C4'        -4.8830   40.4430  -18.2030 C.3       1 ADP401      0.0000 
     12 O4'        -4.3380   41.3980  -17.2880 O.3       1 ADP401      0.0000 
     13 C3'        -4.1220   40.6010  -19.5080 C.3       1 ADP401      0.0000 
     14 O3'        -4.8700   41.5080  -20.3350 O.3       1 ADP401      0.0000 
     15 C2'        -2.8010   41.2500  -19.0780 C.3       1 ADP401      0.0000 
     16 O2'        -2.1840   42.0530  -20.1060 O.3       1 ADP401      0.0000 
     17 C1'        -3.1910   42.0610  -17.8510 C.3       1 ADP401      0.0000 
     18 N9         -2.2110   42.0630  -16.7300 N.pl3     1 ADP401      0.0000 
     19 C8         -1.6610   40.9860  -16.1470 C.2       1 ADP401      0.0000 
     20 N7         -0.8290   41.3400  -15.1350 N.2       1 ADP401      0.0000 
     21 C5         -0.9150   42.6710  -15.0350 C.ar      1 ADP401      0.0000 
     22 C6         -0.3060   43.7030  -14.1630 C.ar      1 ADP401      0.0000 
     23 N6          0.5370   43.3300  -13.1760 N.pl3     1 ADP401      0.0000 
     24 N1         -0.6570   44.9940  -14.4020 N.ar      1 ADP401      0.0000 
     25 C2         -1.4870   45.3580  -15.3960 C.ar      1 ADP401      0.0000 
     26 N3         -2.0800   44.4860  -16.2280 N.ar      1 ADP401      0.0000 
     27 C4         -1.8220   43.1450  -16.0910 C.ar      1 ADP401      0.0000 
     28 H          -5.2634   39.0635  -16.6114 H         1 ADP401      0.0000 
     29 H          -5.4309   38.3742  -18.2352 H         1 ADP401      0.0000 
     30 H          -5.9295   40.6773  -18.3968 H         1 ADP401      0.0000 
     31 H          -3.9450   39.6760  -19.9272 H         1 ADP401      0.0000 
     32 H          -2.1551   40.4492  -18.7346 H         1 ADP401      0.0000 
     33 H          -3.4504   43.0495  -18.1273 H         1 ADP401      0.0000 
     34 H          -1.8342   40.0538  -16.4140 H         1 ADP401      0.0000 
     35 H           1.0732   42.5029  -13.3444 H         1 ADP401      0.0000 
     36 H           0.5501   43.9140  -12.3644 H         1 ADP401      0.0000 
     37 H          -1.6852   46.3996  -15.5307 H         1 ADP401      0.0000 
     38 H          -4.2290   42.2420  -20.5595 H         1 ADP401      0.0000 
     39 H          -1.4836   41.4639  -20.5089 H         1 ADP401      0.0000 
@<TRIPOS>BOND
     1    2    1 ar   
     2    3    1 ar   
     3    4    1 ar   
     4    8    1 1    
     5    6    5 ar   
     6    7    5 ar   
     7    8    5 1    
     8    9    5 1    
     9   10    9 1    
    10   11   10 1    
    11   28   10 1    
    12   29   10 1    
    13   12   11 1    
    14   13   11 1    
    15   30   11 1    
    16   17   12 1    
    17   14   13 1    
    18   15   13 1    
    19   31   13 1    
    20   38   14 1    
    21   16   15 1    
    22   17   15 1    
    23   32   15 1    
    24   39   16 1    
    25   18   17 1    
    26   33   17 1    
    27   19   18 1    
    28   27   18 1    
    29   20   19 2    
    30   34   19 1    
    31   21   20 1    
    32   22   21 ar   
    33   27   21 ar   
    34   23   22 1    
    35   24   22 ar   
    36   35   23 1    
    37   36   23 1    
    38   25   24 ar   
    39   26   25 ar   
    40   37   25 1    
    41   27   26 ar   
@<TRIPOS>SUBSTRUCTURE
     1 ADP401      1 GROUP   
@<TRIPOS>SET

