#    Name: 2x5w_K2B_1_INTS_M
#    Modification time : Tue Mar 25 05:05:44 2014

@<TRIPOS>MOLECULE
2x5w_K2B_1_INTS_M
   83     0     3     0     0
SMALL
NO_CHARGES


@<TRIPOS>ATOM
      1 CA         59.2710   28.1370   74.7485 C.3       1 GLC5        0.0000 
      2 CA         58.7750   28.4840   76.5720 C.3       3 GLL5        0.0000 
      3 CA         59.7670   27.7900   72.9250 C.3       2 GLP5        0.0000 
      4 CA         59.6550   27.5710   79.7665 C.3       1 GLC5        0.0000 
      5 CA         59.3270   27.8650   77.8630 C.3       3 GLL5        0.0000 
      6 CA         59.9830   27.2770   81.6700 C.3       2 GLP5        0.0000 
      7 CA         62.4815   30.0050   77.5830 C.3       1 GLC5        0.0000 
      8 CA         60.5890   30.0760   78.2130 C.3       3 GLL5        0.0000 
      9 CA         64.3740   29.9340   76.9530 C.3       2 GLP5        0.0000 
     10 CA         60.2440   31.1630   79.8550 C.3       1 GLC5        0.0000 
     11 CA         59.8990   32.2500   81.4970 C.3       2 GLP5        0.0000 
     12 CA         60.2860   28.6765   79.9415 C.3       1 GLC5        0.0000 
     13 CA         61.0255   32.4335   74.6695 C.3       1 GLC5        0.0000 
     14 CA         59.4790   32.6060   75.8980 C.3       3 GLL5        0.0000 
     15 CA         62.5720   32.2610   73.4410 C.3       2 GLP5        0.0000 
     16 CA         55.9895   27.9515   74.6230 C.3       1 GLC5        0.0000 
     17 CA         56.9950   29.9060   74.6660 C.3       3 GLL5        0.0000 
     18 CA         54.9840   25.9970   74.5800 C.3       2 GLP5        0.0000 
     19 CA         58.2565   29.1460   73.0690 C.3       1 GLC5        0.0000 
     20 CA         56.7460   30.5020   73.2130 C.3       3 GLL5        0.0000 
     21 CA         58.3900   34.4680   70.7130 C.3       1 GLC5        0.0000 
     22 CA         57.1690   34.2810   72.3170 C.3       3 GLL5        0.0000 
     23 CA         59.6110   34.6550   69.1090 C.3       2 GLP5        0.0000 
     24 CA         58.5235   33.2005   70.8700 C.3       1 GLC5        0.0000 
     25 CA         56.6570   32.8440   71.9190 C.3       3 GLL5        0.0000 
     26 CA         60.3900   33.5570   69.8210 C.3       2 GLP5        0.0000 
     27 CA         54.9995   33.0985   76.0655 C.3       1 GLC5        0.0000 
     28 CA         55.3390   32.4820   74.0830 C.3       3 GLL5        0.0000 
     29 CA         54.6600   33.7150   78.0480 C.3       2 GLP5        0.0000 
     30 CA         53.9495   31.1200   74.1265 C.3       1 GLC5        0.0000 
     31 CA         52.5600   29.7580   74.1700 C.3       2 GLP5        0.0000 
     32 CA         53.7345   33.3985   74.0025 C.3       1 GLC5        0.0000 
     33 CA         52.1300   34.3150   73.9220 C.3       2 GLP5        0.0000 
     34 CA         55.6020   31.3665   78.2230 C.3       1 GLC5        0.0000 
     35 CA         57.1480   30.2160   77.6440 C.3       3 GLL5        0.0000 
     36 CA         54.0560   32.5170   78.8020 C.3       2 GLP5        0.0000 
     37 CA         57.7950   31.4205   79.3660 C.3       1 GLC5        0.0000 
     38 CA         58.4420   32.6250   81.0880 C.3       2 GLP5        0.0000 
     39 CA         55.7760   29.1115   78.4240 C.3       1 GLC5        0.0000 
     40 CA         54.4040   28.0070   79.2040 C.3       2 GLP5        0.0000 
     41 CA         54.7920   30.0585   69.3795 C.3       1 GLC5        0.0000 
     42 CA         55.0190   31.4580   70.5920 C.3       3 GLL5        0.0000 
     43 CA         54.5650   28.6590   68.1670 C.3       2 GLP5        0.0000 
     44 CA         52.9620   31.1345   70.4040 C.3       1 GLC5        0.0000 
     45 CA         50.9050   30.8110   70.2160 C.3       2 GLP5        0.0000 
     46 CA         57.6150   34.2550   69.4655 C.3       1 GLC5        0.0000 
     47 CA         55.6190   33.8550   69.8220 C.3       3 GLL5        0.0000 
     48 CA         56.6210   35.7515   70.3015 C.3       1 GLC5        0.0000 
     49 CA         57.6230   37.6480   70.7810 C.3       2 GLP5        0.0000 
     50 CA         55.9135   36.0100   66.9540 C.3       1 GLC5        0.0000 
     51 CA         54.3790   35.2990   68.1230 C.3       3 GLL5        0.0000 
     52 CA         57.4480   36.7210   65.7850 C.3       2 GLP5        0.0000 
     53 CA         54.5950   33.5475   66.2310 C.3       1 GLC5        0.0000 
     54 CA         52.7760   34.5060   66.2790 C.3       3 GLL5        0.0000 
     55 CA         56.4140   32.5890   66.1830 C.3       2 GLP5        0.0000 
     56 CA         52.0890   32.6605   67.0055 C.3       1 GLC5        0.0000 
     57 CA         51.4020   30.8150   67.7320 C.3       2 GLP5        0.0000 
     58 CA         52.6590   38.6505   67.1095 C.3       1 GLC5        0.0000 
     59 CA         53.4600   36.9490   66.4530 C.3       3 GLL5        0.0000 
     60 CA         51.8580   40.3520   67.7660 C.3       2 GLP5        0.0000 
     61 CA         54.7015   38.7650   66.2800 C.3       1 GLC5        0.0000 
     62 CA         55.9430   40.5810   66.1070 C.3       2 GLP5        0.0000 
     63 CA         55.4540   36.8350   66.1190 C.3       1 GLC5        0.0000 
     64 CA         59.4280   26.2612   76.2447 C.3       1 GLC5        0.0000 
     65 CA         59.8050   24.3480   75.2720 C.3       2 GLP5        0.0000 
     66 CA         59.0210   32.0525   79.2742 C.3       1 GLC5        0.0000 
     67 CA         59.5840   30.7140   77.5020 C.3       3 GLL5        0.0000 
     68 CA         58.6865   29.0090   73.9712 C.3       1 GLC5        0.0000 
     69 CA         58.2170   30.5500   75.3690 C.3       3 GLL5        0.0000 
     70 CA         54.7153   29.9810   74.0547 C.3       1 GLC5        0.0000 
     71 CA         56.3685   35.6440   73.9160 C.3       1 GLC5        0.0000 
     72 CA         57.8690   34.1270   73.6990 C.3       3 GLL5        0.0000 
     73 CA         55.2180   37.0840   74.8240 C.3       2 GLP5        0.0000 
     74 CA         58.0215   35.8065   72.3930 C.3       1 GLC5        0.0000 
     75 CA         58.5240   37.4090   71.7780 C.3       2 GLP5        0.0000 
     76 CA         54.1882   34.6320   71.2995 C.3       1 GLC5        0.0000 
     77 CA         52.8700   35.8960   72.1690 C.3       2 GLP5        0.0000 
     78 CA         53.6000   35.2927   70.3822 C.3       1 GLC5        0.0000 
     79 CA         54.2810   34.0800   69.0680 C.3       3 GLL5        0.0000 
     80 CA         55.5393   33.6111   67.4835 C.3       1 GLC5        0.0000 
     81 CA         51.3629   35.8275   67.1616 C.3       1 GLC5        0.0000 
     82 CA         53.1470   35.6320   67.2600 C.3       3 GLL5        0.0000 
     83 CA         49.5150   35.6460   67.7120 C.3       2 GLP5        0.0000 
@<TRIPOS>BOND
@<TRIPOS>SUBSTRUCTURE
     1 GLC5        1 GROUP        1 X    GLC  0     ROOT GLC X 6
     2 GLP5        3 GROUP        1 Y    GLP  0     ROOT GLP Y 13
     3 GLL5        2 GROUP        1 Z    GLL  0     ROOT GLL Z 20
@<TRIPOS>SET

