#    Name: 2x5w_K2B_1_ligand
#    Modification time : Tue Mar 25 05:05:44 2014

@<TRIPOS>MOLECULE
2x5w_K2B_1_ligand
   72    75     1     0     0
SMALL
NO_CHARGES


@<TRIPOS>ATOM
      1 C1         58.7750   28.4840   76.5720 C.3       1 K2B1429     0.0000 
      2 C2         59.3270   27.8650   77.8630 C.3       1 K2B1429     0.0000 
      3 C3         60.4960   28.6400   78.4490 C.2       1 K2B1429     0.0000 
      4 C4         60.5890   30.0760   78.2130 C.2       1 K2B1429     0.0000 
      5 C5         59.5840   30.7140   77.5020 C.2       1 K2B1429     0.0000 
      6 C6         59.6160   32.2460   77.4190 C.3       1 K2B1429     0.0000 
      7 C7         59.4790   32.6060   75.8980 C.3       1 K2B1429     0.0000 
      8 C8         58.1530   32.0990   75.3390 C.3       1 K2B1429     0.0000 
      9 C9         58.2170   30.5500   75.3690 C.3       1 K2B1429     0.0000 
     10 C10        58.4120   29.9910   76.8050 C.3       1 K2B1429     0.0000 
     11 C11        56.9950   29.9060   74.6660 C.3       1 K2B1429     0.0000 
     12 C12        56.7460   30.5020   73.2130 C.3       1 K2B1429     0.0000 
     13 C13        56.6140   32.0650   73.2730 C.3       1 K2B1429     0.0000 
     14 C14        57.9250   32.5940   73.8710 C.3       1 K2B1429     0.0000 
     15 C15        57.8690   34.1270   73.6990 C.3       1 K2B1429     0.0000 
     16 C16        57.1690   34.2810   72.3170 C.3       1 K2B1429     0.0000 
     17 C17        56.6570   32.8440   71.9190 C.3       1 K2B1429     0.0000 
     18 C18        55.3390   32.4820   74.0830 C.3       1 K2B1429     0.0000 
     19 C19        57.1480   30.2160   77.6440 C.3       1 K2B1429     0.0000 
     20 C20        55.3940   32.8810   71.0380 C.3       1 K2B1429     0.0000 
     21 C21        55.0190   31.4580   70.5920 C.3       1 K2B1429     0.0000 
     22 C22        55.6190   33.8550   69.8220 C.3       1 K2B1429     0.0000 
     23 C23        54.2810   34.0800   69.0680 C.3       1 K2B1429     0.0000 
     24 C24        54.3790   35.2990   68.1230 C.3       1 K2B1429     0.0000 
     25 C25        53.1470   35.6320   67.2600 C.3       1 K2B1429     0.0000 
     26 C27        52.7760   34.5060   66.2790 C.3       1 K2B1429     0.0000 
     27 C26        53.4600   36.9490   66.4530 C.3       1 K2B1429     0.0000 
     28 O1         61.3380   28.0520   79.1740 O.2       1 K2B1429     0.0000 
     29 H          57.8799   27.9591   76.2679 H         1 K2B1429     0.0000 
     30 H          59.5209   28.4281   75.7911 H         1 K2B1429     0.0000 
     31 H          59.6443   26.8336   77.6522 H         1 K2B1429     0.0000 
     32 H          58.5167   27.8143   78.6045 H         1 K2B1429     0.0000 
     33 H          61.3927   30.5737   78.5781 H         1 K2B1429     0.0000 
     34 H          60.5502   32.6127   77.7743 H         1 K2B1429     0.0000 
     35 H          58.7869   32.6587   77.9440 H         1 K2B1429     0.0000 
     36 H          60.3050   32.1482   75.3650 H         1 K2B1429     0.0000 
     37 H          59.5351   33.6843   75.7979 H         1 K2B1429     0.0000 
     38 H          57.3532   32.4202   75.9521 H         1 K2B1429     0.0000 
     39 H          59.1139   30.2526   74.7854 H         1 K2B1429     0.0000 
     40 H          56.1006   30.0809   75.2581 H         1 K2B1429     0.0000 
     41 H          57.1546   28.8356   74.5666 H         1 K2B1429     0.0000 
     42 H          55.8337   30.0831   72.8246 H         1 K2B1429     0.0000 
     43 H          57.5830   30.2399   72.5891 H         1 K2B1429     0.0000 
     44 H          58.7361   32.2219   73.2443 H         1 K2B1429     0.0000 
     45 H          58.8421   34.5162   73.6418 H         1 K2B1429     0.0000 
     46 H          57.2631   34.5487   74.4452 H         1 K2B1429     0.0000 
     47 H          57.8738   34.6072   71.5936 H         1 K2B1429     0.0000 
     48 H          56.3342   34.9298   72.4094 H         1 K2B1429     0.0000 
     49 H          57.4978   32.4064   71.3379 H         1 K2B1429     0.0000 
     50 H          54.5823   33.2848   71.6353 H         1 K2B1429     0.0000 
     51 H          56.3379   33.4105   69.1538 H         1 K2B1429     0.0000 
     52 H          55.9823   34.7969   70.1985 H         1 K2B1429     0.0000 
     53 H          53.4930   34.2525   69.7927 H         1 K2B1429     0.0000 
     54 H          54.0516   33.1944   68.4857 H         1 K2B1429     0.0000 
     55 H          55.2532   35.1478   67.4470 H         1 K2B1429     0.0000 
     56 H          54.6344   36.1960   68.7348 H         1 K2B1429     0.0000 
     57 H          52.3133   35.8440   67.9006 H         1 K2B1429     0.0000 
     58 H          55.3678   32.1407   75.0225 H         1 K2B1429     0.0000 
     59 H          55.2406   33.4758   74.1351 H         1 K2B1429     0.0000 
     60 H          54.5020   32.1260   73.6673 H         1 K2B1429     0.0000 
     61 H          57.2300   29.8115   78.5549 H         1 K2B1429     0.0000 
     62 H          56.9552   31.1889   77.7716 H         1 K2B1429     0.0000 
     63 H          56.3405   29.8110   77.2150 H         1 K2B1429     0.0000 
     64 H          55.7503   31.0305   70.0606 H         1 K2B1429     0.0000 
     65 H          54.8360   30.8603   71.3725 H         1 K2B1429     0.0000 
     66 H          54.1989   31.4521   70.0198 H         1 K2B1429     0.0000 
     67 H          53.5196   34.3105   65.6396 H         1 K2B1429     0.0000 
     68 H          52.5671   33.6520   66.7556 H         1 K2B1429     0.0000 
     69 H          51.9726   34.7402   65.7315 H         1 K2B1429     0.0000 
     70 H          53.6517   37.7200   67.0603 H         1 K2B1429     0.0000 
     71 H          54.2562   36.8396   65.8579 H         1 K2B1429     0.0000 
     72 H          52.6934   37.2185   65.8702 H         1 K2B1429     0.0000 
@<TRIPOS>BOND
     1    2    1 1    
     2   10    1 1    
     3   29    1 1    
     4   30    1 1    
     5    3    2 1    
     6   31    2 1    
     7   32    2 1    
     8    4    3 1    
     9   28    3 2    
    10    5    4 2    
    11   33    4 1    
    12    6    5 1    
    13   10    5 1    
    14    7    6 1    
    15   34    6 1    
    16   35    6 1    
    17    8    7 1    
    18   36    7 1    
    19   37    7 1    
    20    9    8 1    
    21   14    8 1    
    22   38    8 1    
    23   10    9 1    
    24   11    9 1    
    25   39    9 1    
    26   19   10 1    
    27   12   11 1    
    28   40   11 1    
    29   41   11 1    
    30   13   12 1    
    31   42   12 1    
    32   43   12 1    
    33   14   13 1    
    34   17   13 1    
    35   18   13 1    
    36   15   14 1    
    37   44   14 1    
    38   16   15 1    
    39   45   15 1    
    40   46   15 1    
    41   17   16 1    
    42   47   16 1    
    43   48   16 1    
    44   20   17 1    
    45   49   17 1    
    46   58   18 1    
    47   59   18 1    
    48   60   18 1    
    49   61   19 1    
    50   62   19 1    
    51   63   19 1    
    52   21   20 1    
    53   22   20 1    
    54   50   20 1    
    55   64   21 1    
    56   65   21 1    
    57   66   21 1    
    58   23   22 1    
    59   51   22 1    
    60   52   22 1    
    61   24   23 1    
    62   53   23 1    
    63   54   23 1    
    64   25   24 1    
    65   55   24 1    
    66   56   24 1    
    67   26   25 1    
    68   27   25 1    
    69   57   25 1    
    70   67   26 1    
    71   68   26 1    
    72   69   26 1    
    73   70   27 1    
    74   71   27 1    
    75   72   27 1    
@<TRIPOS>SUBSTRUCTURE
     1 K2B1429     1 GROUP   
@<TRIPOS>SET

