#    Name: 2x2r_X2O_1_INTS_M
#    Modification time : Tue Mar 25 05:01:40 2014

@<TRIPOS>MOLECULE
2x2r_X2O_1_INTS_M
   71     0    15     0     0
SMALL
NO_CHARGES


@<TRIPOS>ATOM
      1 CA         53.8635   12.4290   -2.5200 C.3       5 GLC5        0.0000 
      2 CA         54.4910   10.9610   -1.2200 C.3      15 GLL5        0.0000 
      3 CA         53.2360   13.8970   -3.8200 C.3      10 GLP5        0.0000 
      4 CA         52.6905    7.8690   -0.9250 C.3       5 GLC5        0.0000 
      5 CA         54.4670    8.6000   -1.6390 C.3      15 GLL5        0.0000 
      6 CA         50.9140    7.1380   -0.2110 C.3      10 GLP5        0.0000 
      7 CA         56.2810    8.2205   -2.0565 C.3       5 GLC5        0.0000 
      8 CA         58.0950    7.8410   -2.4740 C.3      10 GLP5        0.0000 
      9 CA         51.8470    9.9255    1.3785 C.3       5 GLC5        0.0000 
     10 CA         52.6770   11.9680    1.6670 C.3      15 GLL5        0.0000 
     11 CA         51.0170    7.8830    1.0900 C.3      10 GLP5        0.0000 
     12 CA         51.8970   12.5260    3.4755 C.3       5 GLC5        0.0000 
     13 CA         51.1170   13.0840    5.2840 C.3      10 GLP5        0.0000 
     14 CA         52.5325   13.1405   -1.8610 C.3       5 GLC5        0.0000 
     15 CA         51.8290   12.3840    0.0980 C.3      15 GLL5        0.0000 
     16 NZ         49.5035   11.4225   -2.3625 N.4       4 LYC4        0.0000 
     17 NZ         48.7190   12.2940   -1.4340 N.4      14 LYL4        0.0000 
     18 NZ         49.7150   10.1490   -4.4140 N.4       9 LYP4        0.0000 
     19 N          49.5035   11.4225   -2.3625 N.am      2 SEC2        0.0000 
     20 N          48.7190   12.2940   -1.4340 N.am     12 SEL2        0.0000 
     21 N          50.2880   10.5510   -3.2910 N.am      7 SEP2        0.0000 
     22 OD1        50.1750   10.3060   -0.1785 O.co2     3 ASC3        0.0000 
     23 OD1        49.7170   11.3290    0.8390 O.co2    13 ASL3        0.0000 
     24 OD1        50.6330    9.2830   -1.1960 O.co2     8 ASP3        0.0000 
     25 O          50.1750   10.3060   -0.1785 O.2       1 ALC1        0.0000 
     26 O          49.7170   11.3290    0.8390 O.2      11 ALL1        0.0000 
     27 O          50.6330    9.2830   -1.1960 O.2       6 ALP1        0.0000 
     28 O          50.0425   11.1625    2.1895 O.2       1 ALC1        0.0000 
     29 O          50.3680   10.9960    3.5400 O.2       6 ALP1        0.0000 
     30 CA         57.7115   13.7335    1.1735 C.3       5 GLC5        0.0000 
     31 CA         56.2850   13.2070   -0.0870 C.3      15 GLL5        0.0000 
     32 CA         59.1380   14.2600    2.4340 C.3      10 GLP5        0.0000 
     33 CA         57.1880   11.7485   -1.0370 C.3       5 GLC5        0.0000 
     34 CA         58.0910   10.2900   -1.9870 C.3      10 GLP5        0.0000 
     35 CA         57.0125   13.8100   -1.7900 C.3       5 GLC5        0.0000 
     36 CA         57.7400   14.4130   -3.4930 C.3      10 GLP5        0.0000 
     37 CA         57.1095   15.6115    1.3115 C.3       5 GLC5        0.0000 
     38 CA         55.1510   15.6670    0.6510 C.3      15 GLL5        0.0000 
     39 CA         59.0680   15.5560    1.9720 C.3      10 GLP5        0.0000 
     40 CA         52.9675   12.5495    4.4590 C.3       5 GLC5        0.0000 
     41 CA         54.8180   12.0150    3.6340 C.3      15 GLL5        0.0000 
     42 CA         57.5800    9.2130    3.6425 C.3       5 GLC5        0.0000 
     43 CA         57.3350   10.8720    3.4140 C.3      15 GLL5        0.0000 
     44 CA         57.8250    7.5540    3.8710 C.3      10 GLP5        0.0000 
     45 CA         56.4580    9.2745    3.2060 C.3       5 GLC5        0.0000 
     46 CA         56.5640   11.0680    2.2700 C.3      15 GLL5        0.0000 
     47 CA         56.3520    7.4810    4.1420 C.3      10 GLP5        0.0000 
     48 CA         55.3588    6.6452   -0.6230 C.3       5 GLC5        0.0000 
     49 CA         56.2670    4.8160   -0.2930 C.3      10 GLP5        0.0000 
     50 CA         52.7220    8.3803    0.6372 C.3       5 GLC5        0.0000 
     51 CA         54.4340    8.3490   -0.2670 C.3      15 GLL5        0.0000 
     52 CA         55.1105    7.6338    1.7228 C.3       5 GLC5        0.0000 
     53 CA         55.7940    6.3900    3.2610 C.3      10 GLP5        0.0000 
     54 CA         56.4280    8.7662    0.0373 C.3       5 GLC5        0.0000 
     55 CA         54.4200    9.4060    0.6360 C.3      15 GLL5        0.0000 
     56 CA         58.4290    8.6550   -0.1100 C.3      10 GLP5        0.0000 
     57 CA         56.2866   10.4322   -1.3739 C.3       5 GLC5        0.0000 
     58 CA         54.4680   10.7150    0.1500 C.3      15 GLL5        0.0000 
     59 CA         55.1880   15.5107    2.7308 C.3       5 GLC5        0.0000 
     60 CA         54.7270   14.4000    1.3940 C.3      15 GLL5        0.0000 
     61 CA         55.4370   15.9880    4.4390 C.3      10 GLP5        0.0000 
     62 CA         56.0532   10.3705    6.1900 C.3       5 GLC5        0.0000 
     63 CA         55.5880   11.8190    4.7750 C.3      15 GLL5        0.0000 
     64 CA         55.8870    9.2100    7.6590 C.3      10 GLP5        0.0000 
     65 CA         56.2858    9.5060    4.4315 C.3       5 GLC5        0.0000 
     66 CA         56.8510   11.2430    4.6670 C.3      15 GLL5        0.0000 
     67 CA         56.2470   13.4310    4.8634 C.3       5 GLC5        0.0000 
     68 CA         56.4670   15.2820    5.2910 C.3      10 GLP5        0.0000 
     69 CA         58.8620   11.9392    4.6992 C.3       5 GLC5        0.0000 
     70 CA         60.6310   12.8210    5.3580 C.3      10 GLP5        0.0000 
     71 CA         57.6893    9.8125    1.3660 C.3       5 GLC5        0.0000 
@<TRIPOS>BOND
@<TRIPOS>SUBSTRUCTURE
     1 ALC1       25 GROUP        1 X    ALC  0     ROOT ALC X 1
     2 SEC2       19 GROUP        1 X    SEC  0     **** SEC X 2
     3 ASC3       22 GROUP        1 X    ASC  0     **** ASC X 3
     4 LYC4       16 GROUP        1 X    LYC  0     **** LYC X 4
     5 GLC5        1 GROUP        1 X    GLC  0     **** GLC X 6
     6 ALP1       27 GROUP        1 Y    ALP  0     ROOT ALP Y 8
     7 SEP2       21 GROUP        1 Y    SEP  0     **** SEP Y 9
     8 ASP3       24 GROUP        1 Y    ASP  0     **** ASP Y 10
     9 LYP4       18 GROUP        1 Y    LYP  0     **** LYP Y 11
    10 GLP5        3 GROUP        1 Y    GLP  0     **** GLP Y 13
    11 ALL1       26 GROUP        1 Z    ALL  0     ROOT ALL Z 15
    12 SEL2       20 GROUP        1 Z    SEL  0     **** SEL Z 16
    13 ASL3       23 GROUP        1 Z    ASL  0     **** ASL Z 17
    14 LYL4       17 GROUP        1 Z    LYL  0     **** LYL Z 18
    15 GLL5        2 GROUP        1 Z    GLL  0     **** GLL Z 20
@<TRIPOS>SET

