#    Name: 2x2r_X2O_1_ligand
#    Modification time : Tue Mar 25 05:01:40 2014

@<TRIPOS>MOLECULE
2x2r_X2O_1_ligand
   49    50     1     0     0
SMALL
NO_CHARGES


@<TRIPOS>ATOM
      1 CAL        54.4910   10.9610   -1.2200 C.ar      1 X2O1367     0.0000 
      2 CAH        54.5020    9.9070   -2.1230 C.ar      1 X2O1367     0.0000 
      3 CAF        54.4670    8.6000   -1.6390 C.ar      1 X2O1367     0.0000 
      4 CAI        54.4340    8.3490   -0.2670 C.ar      1 X2O1367     0.0000 
      5 CAM        54.4200    9.4060    0.6360 C.ar      1 X2O1367     0.0000 
      6 CAT        54.4680   10.7150    0.1500 C.ar      1 X2O1367     0.0000 
      7 CAX        54.4250   11.8880    1.1300 C.3       1 X2O1367     0.0000 
      8 SAR        52.6770   11.9680    1.6670 S.3       1 X2O1367     0.0000 
      9 CB         51.8290   12.3840    0.0980 C.3       1 X2O1367     0.0000 
     10 CA         50.3180   12.5750    0.3160 C.3       1 X2O1367     0.0000 
     11 C          49.6570   13.0000   -1.0020 C.2       1 X2O1367     0.0000 
     12 OXT        50.1160   14.0210   -1.5510 O.co2     1 X2O1367     0.0000 
     13 O          48.7190   12.2940   -1.4340 O.co2     1 X2O1367     0.0000 
     14 N          49.7170   11.3290    0.8390 N.4       1 X2O1367     0.0000 
     15 CAW        54.8450   13.2180    0.4540 C.3       1 X2O1367     0.0000 
     16 CAB        56.2850   13.2070   -0.0870 C.3       1 X2O1367     0.0000 
     17 CAP        54.7270   14.4000    1.3940 C.3       1 X2O1367     0.0000 
     18 CAA        55.1510   15.6670    0.6510 C.3       1 X2O1367     0.0000 
     19 CAU        55.2980   11.6430    2.3760 C.ar      1 X2O1367     0.0000 
     20 CAN        54.8180   12.0150    3.6340 C.ar      1 X2O1367     0.0000 
     21 CAJ        55.5880   11.8190    4.7750 C.ar      1 X2O1367     0.0000 
     22 CAG        56.8510   11.2430    4.6670 C.ar      1 X2O1367     0.0000 
     23 CAK        57.3350   10.8720    3.4140 C.ar      1 X2O1367     0.0000 
     24 CAO        56.5640   11.0680    2.2700 C.ar      1 X2O1367     0.0000 
     25 H          54.4999   11.9331   -1.5643 H         1 X2O1367     0.0000 
     26 H          54.5352   10.0835   -3.1287 H         1 X2O1367     0.0000 
     27 H          54.4655    7.8095   -2.3023 H         1 X2O1367     0.0000 
     28 H          54.4200    7.3790    0.0750 H         1 X2O1367     0.0000 
     29 H          54.3753    9.2314    1.6408 H         1 X2O1367     0.0000 
     30 H          52.0693   11.5484   -0.5146 H         1 X2O1367     0.0000 
     31 H          52.3326   13.2722   -0.1999 H         1 X2O1367     0.0000 
     32 H          50.1877   13.3782    1.0320 H         1 X2O1367     0.0000 
     33 H          54.1785   13.3998   -0.3941 H         1 X2O1367     0.0000 
     34 H          55.3748   14.2545    2.2482 H         1 X2O1367     0.0000 
     35 H          53.7015   14.5059    1.7221 H         1 X2O1367     0.0000 
     36 H          53.8805   12.4401    3.7145 H         1 X2O1367     0.0000 
     37 H          55.2272   12.0979    5.6948 H         1 X2O1367     0.0000 
     38 H          57.4224   11.0924    5.5047 H         1 X2O1367     0.0000 
     39 H          58.2719   10.4487    3.3327 H         1 X2O1367     0.0000 
     40 H          56.9267   10.7899    1.3512 H         1 X2O1367     0.0000 
     41 H          49.8410   10.5634    0.2077 H         1 X2O1367     0.0000 
     42 H          50.1237   11.0583    1.7115 H         1 X2O1367     0.0000 
     43 H          48.7336   11.4266    0.9917 H         1 X2O1367     0.0000 
     44 H          56.9534   13.0471    0.6394 H         1 X2O1367     0.0000 
     45 H          56.4191   12.4905   -0.7716 H         1 X2O1367     0.0000 
     46 H          56.5255   14.0754   -0.5206 H         1 X2O1367     0.0000 
     47 H          56.0952   15.6090    0.3268 H         1 X2O1367     0.0000 
     48 H          54.5763   15.8381   -0.1493 H         1 X2O1367     0.0000 
     49 H          55.0904   16.4772    1.2340 H         1 X2O1367     0.0000 
@<TRIPOS>BOND
     1    2    1 ar   
     2    6    1 ar   
     3   25    1 1    
     4    3    2 ar   
     5   26    2 1    
     6    4    3 ar   
     7   27    3 1    
     8    5    4 ar   
     9   28    4 1    
    10    6    5 ar   
    11   29    5 1    
    12    7    6 1    
    13    8    7 1    
    14   15    7 1    
    15   19    7 1    
    16    9    8 1    
    17   10    9 1    
    18   30    9 1    
    19   31    9 1    
    20   11   10 1    
    21   14   10 1    
    22   32   10 1    
    23   12   11 ar   
    24   13   11 ar   
    25   41   14 1    
    26   42   14 1    
    27   43   14 1    
    28   16   15 1    
    29   17   15 1    
    30   33   15 1    
    31   44   16 1    
    32   45   16 1    
    33   46   16 1    
    34   18   17 1    
    35   34   17 1    
    36   35   17 1    
    37   47   18 1    
    38   48   18 1    
    39   49   18 1    
    40   20   19 ar   
    41   24   19 ar   
    42   21   20 ar   
    43   36   20 1    
    44   22   21 ar   
    45   37   21 1    
    46   23   22 ar   
    47   38   22 1    
    48   24   23 ar   
    49   39   23 1    
    50   40   24 1    
@<TRIPOS>SUBSTRUCTURE
     1 X2O1367     1 GROUP   
@<TRIPOS>SET

