#    Name: 3dsr_ADP_1_INTS_M
#    Modification time : Tue Mar 25 00:02:46 2014

@<TRIPOS>MOLECULE
3dsr_ADP_1_INTS_M
   31     0     3     0     0
SMALL
NO_CHARGES


@<TRIPOS>ATOM
      1 CA        -29.3600   -7.8320   26.4415 C.3       1 GLC5        0.0000 
      2 CA        -28.2960   -9.4030   26.2480 C.3       3 GLL5        0.0000 
      3 CA        -30.4240   -6.2610   26.6350 C.3       2 GLP5        0.0000 
      4 CA        -28.7990   -8.9735   24.3030 C.3       1 GLC5        0.0000 
      5 CA        -27.4190   -8.4190   25.5020 C.3       3 GLL5        0.0000 
      6 CA        -30.1790   -9.5280   23.1040 C.3       2 GLP5        0.0000 
      7 CA        -28.1895   -6.9090   25.1290 C.3       1 GLC5        0.0000 
      8 CA        -28.9600   -5.3990   24.7560 C.3       2 GLP5        0.0000 
      9 CA        -26.8945   -6.8930   26.8405 C.3       1 GLC5        0.0000 
     10 CA        -26.3700   -5.3670   28.1790 C.3       2 GLP5        0.0000 
     11 CA        -27.8530   -9.9590   24.2680 C.3       1 GLC5        0.0000 
     12 CA        -26.0840   -9.1050   25.3480 C.3       3 GLL5        0.0000 
     13 CA        -29.6220  -10.8130   23.1880 C.3       2 GLP5        0.0000 
     14 CA        -25.8350   -6.8860   21.6815 C.3       1 GLC5        0.0000 
     15 CA        -24.7220   -8.6460   21.9580 C.3       3 GLL5        0.0000 
     16 CA        -26.9480   -5.1260   21.4050 C.3       2 GLP5        0.0000 
     17 CA        -22.6400  -10.3130   20.8190 C.3       1 GLC5        0.0000 
     18 CA        -24.4320   -9.2670   20.6530 C.3       3 GLL5        0.0000 
     19 CA        -20.8480  -11.3590   20.9850 C.3       2 GLP5        0.0000 
     20 CA        -22.9645   -9.0405   19.2480 C.3       1 GLC5        0.0000 
     21 CA        -21.4970   -8.8140   17.8430 C.3       2 GLP5        0.0000 
     22 CA        -25.5450   -9.0830   19.1425 C.3       1 GLC5        0.0000 
     23 CA        -26.6580   -8.8990   17.6320 C.3       2 GLP5        0.0000 
     24 CA        -23.0830  -11.3170   21.2255 C.3       1 GLC5        0.0000 
     25 CA        -25.3180  -11.2750   21.4660 C.3       3 GLL5        0.0000 
     26 CA        -27.0343  -12.8562   25.2503 C.3       1 GLC5        0.0000 
     27 CA        -27.4820  -10.6790   26.3060 C.3       3 GLL5        0.0000 
     28 CA        -26.1720  -14.4380   24.4110 C.3       2 GLP5        0.0000 
     29 CA        -28.8591  -10.5759   24.6784 C.3       1 GLC5        0.0000 
     30 CA        -25.9611   -9.6182   27.2130 C.3       1 GLC5        0.0000 
     31 CA        -24.6020   -9.8350   28.5750 C.3       2 GLP5        0.0000 
@<TRIPOS>BOND
@<TRIPOS>SUBSTRUCTURE
     1 GLC5        1 GROUP        1 X    GLC  0     ROOT GLC X 6
     2 GLP5        3 GROUP        1 Y    GLP  0     ROOT GLP Y 13
     3 GLL5        2 GROUP        1 Z    GLL  0     ROOT GLL Z 20
@<TRIPOS>SET

