#    Name: 3dsr_ADP_1_ligand
#    Modification time : Tue Mar 25 00:02:46 2014

@<TRIPOS>MOLECULE
3dsr_ADP_1_ligand
   39    41     1     0     0
SMALL
NO_CHARGES


@<TRIPOS>ATOM
      1 PB        -28.3750  -15.7280   28.4310 P.3       1 ADP461      0.0000 
      2 O1B       -29.5490  -16.2980   29.2050 O.co2     1 ADP461      0.0000 
      3 O2B       -27.0190  -16.2870   28.8170 O.co2     1 ADP461      0.0000 
      4 O3B       -28.5970  -15.6550   26.9400 O.co2     1 ADP461      0.0000 
      5 PA        -29.0620  -13.0260   28.1070 P.3       1 ADP461      0.0000 
      6 O1A       -30.4100  -13.5410   27.6530 O.co2     1 ADP461      0.0000 
      7 O2A       -28.9810  -11.7490   28.9140 O.co2     1 ADP461      0.0000 
      8 O3A       -28.3170  -14.1930   28.9290 O.3       1 ADP461      0.0000 
      9 O5'       -28.0980  -12.8990   26.8270 O.3       1 ADP461      0.0000 
     10 C5'       -28.3110  -11.8700   25.8730 C.3       1 ADP461      0.0000 
     11 C4'       -27.4820  -10.6790   26.3060 C.3       1 ADP461      0.0000 
     12 O4'       -26.3530  -10.5030   25.4520 O.3       1 ADP461      0.0000 
     13 C3'       -28.2960   -9.4030   26.2480 C.3       1 ADP461      0.0000 
     14 O3'       -28.5410   -8.9500   27.5820 O.3       1 ADP461      0.0000 
     15 C2'       -27.4190   -8.4190   25.5020 C.3       1 ADP461      0.0000 
     16 O2'       -27.1830   -7.2270   26.2510 O.3       1 ADP461      0.0000 
     17 C1'       -26.0840   -9.1050   25.3480 C.3       1 ADP461      0.0000 
     18 N9        -25.5020   -8.7110   24.0510 N.pl3     1 ADP461      0.0000 
     19 C8        -25.0480   -7.4840   23.7690 C.2       1 ADP461      0.0000 
     20 N7        -24.5700   -7.4360   22.5040 N.2       1 ADP461      0.0000 
     21 C5        -24.7220   -8.6460   21.9580 C.ar      1 ADP461      0.0000 
     22 C6        -24.4320   -9.2670   20.6530 C.ar      1 ADP461      0.0000 
     23 N6        -23.8640   -8.5520   19.6640 N.pl3     1 ADP461      0.0000 
     24 N1        -24.7520  -10.5630   20.4790 N.ar      1 ADP461      0.0000 
     25 C2        -25.3180  -11.2750   21.4660 C.ar      1 ADP461      0.0000 
     26 N3        -25.6120  -10.7750   22.6770 N.ar      1 ADP461      0.0000 
     27 C4        -25.3430   -9.4870   22.9820 C.ar      1 ADP461      0.0000 
     28 H         -29.3537  -11.5608   25.8312 H         1 ADP461      0.0000 
     29 H         -27.9884  -12.1638   24.8760 H         1 ADP461      0.0000 
     30 H         -27.1675  -10.8260   27.3302 H         1 ADP461      0.0000 
     31 H         -29.1729   -9.5810   25.6948 H         1 ADP461      0.0000 
     32 H         -27.8171   -8.2381   24.5430 H         1 ADP461      0.0000 
     33 H         -25.4577   -8.7687   26.1567 H         1 ADP461      0.0000 
     34 H         -25.0568   -6.7223   24.3858 H         1 ADP461      0.0000 
     35 H         -23.6783   -7.5905   19.8668 H         1 ADP461      0.0000 
     36 H         -23.6783   -9.0460   18.8146 H         1 ADP461      0.0000 
     37 H         -25.5491  -12.3036   21.2766 H         1 ADP461      0.0000 
     38 H         -28.6644   -9.7840   28.1198 H         1 ADP461      0.0000 
     39 H         -27.3951   -7.4700   27.1975 H         1 ADP461      0.0000 
@<TRIPOS>BOND
     1    2    1 ar   
     2    3    1 ar   
     3    4    1 ar   
     4    8    1 1    
     5    6    5 ar   
     6    7    5 ar   
     7    8    5 1    
     8    9    5 1    
     9   10    9 1    
    10   11   10 1    
    11   28   10 1    
    12   29   10 1    
    13   12   11 1    
    14   13   11 1    
    15   30   11 1    
    16   17   12 1    
    17   14   13 1    
    18   15   13 1    
    19   31   13 1    
    20   38   14 1    
    21   16   15 1    
    22   17   15 1    
    23   32   15 1    
    24   39   16 1    
    25   18   17 1    
    26   33   17 1    
    27   19   18 1    
    28   27   18 1    
    29   20   19 2    
    30   34   19 1    
    31   21   20 1    
    32   22   21 ar   
    33   27   21 ar   
    34   23   22 1    
    35   24   22 ar   
    36   35   23 1    
    37   36   23 1    
    38   25   24 ar   
    39   26   25 ar   
    40   37   25 1    
    41   27   26 ar   
@<TRIPOS>SUBSTRUCTURE
     1 ADP461      1 GROUP   
@<TRIPOS>SET

