#    Name: 4b4d_FAD_1_INTS_M
#    Modification time : Tue Mar 25 06:38:04 2014

@<TRIPOS>MOLECULE
4b4d_FAD_1_INTS_M
  111     0    12     0     0
SMALL
NO_CHARGES


@<TRIPOS>ATOM
      1 NZ         23.9135   36.8180   26.6725 N.4       3 LYC4        0.0000 
      2 NZ         22.9080   37.2080   25.8640 N.4      11 LYL4        0.0000 
      3 NZ         24.9190   36.4280   27.4810 N.4       7 LYP4        0.0000 
      4 N          23.9135   36.8180   26.6725 N.am      2 SEC2        0.0000 
      5 N          22.9080   37.2080   25.8640 N.am     10 SEL2        0.0000 
      6 N          24.9190   36.4280   27.4810 N.am      6 SEP2        0.0000 
      7 N          19.5200   36.1625   30.8485 N.am      2 SEC2        0.0000 
      8 N          18.8120   36.5640   29.6600 N.am     10 SEL2        0.0000 
      9 N          20.2280   35.7610   32.0370 N.am      6 SEP2        0.0000 
     10 O          16.2940   35.2230   29.9075 O.2       1 ALC1        0.0000 
     11 O          16.3980   35.7290   28.6510 O.2       9 ALL1        0.0000 
     12 O          16.1900   34.7170   31.1640 O.2       5 ALP1        0.0000 
     13 CA         17.3350   36.5475   24.8015 C.3       4 GLC5        0.0000 
     14 CA         17.4270   35.5400   26.4950 C.3      12 GLL5        0.0000 
     15 CA         17.2430   37.5550   23.1080 C.3       8 GLP5        0.0000 
     16 CA         18.4095   33.7915   22.5700 C.3       4 GLC5        0.0000 
     17 CA         18.4020   32.9690   24.1560 C.3      12 GLL5        0.0000 
     18 CA         18.4170   34.6140   20.9840 C.3       8 GLP5        0.0000 
     19 CA         17.5975   32.8560   22.0115 C.3       4 GLC5        0.0000 
     20 CA         18.0420   31.8760   23.4470 C.3      12 GLL5        0.0000 
     21 CA         17.1530   33.8360   20.5760 C.3       8 GLP5        0.0000 
     22 O          18.5335   30.0660   21.9420 O.2       1 ALC1        0.0000 
     23 O          18.9310   31.2810   22.6340 O.2       9 ALL1        0.0000 
     24 O          18.1360   28.8510   21.2500 O.2       5 ALP1        0.0000 
     25 CA         15.3205   32.6505   22.7915 C.3       4 GLC5        0.0000 
     26 CA         15.8770   32.0090   24.3490 C.3      12 GLL5        0.0000 
     27 CA         14.7640   33.2920   21.2340 C.3       8 GLP5        0.0000 
     28 CA         16.7075   33.9310   23.1505 C.3       4 GLC5        0.0000 
     29 CA         17.5170   33.5760   24.9690 C.3      12 GLL5        0.0000 
     30 CA         15.8980   34.2860   21.3320 C.3       8 GLP5        0.0000 
     31 CA         17.3800   35.5655   24.0385 C.3       4 GLC5        0.0000 
     32 N          19.1050   32.5735   18.9395 N.am      2 SEC2        0.0000 
     33 N          20.2640   32.0710   19.5220 N.am     10 SEL2        0.0000 
     34 N          17.9460   33.0760   18.3570 N.am      6 SEP2        0.0000 
     35 O          20.8040   29.8825   17.9770 O.2       1 ALC1        0.0000 
     36 O          21.4180   30.1280   19.2360 O.2       9 ALL1        0.0000 
     37 O          20.1900   29.6370   16.7180 O.2       5 ALP1        0.0000 
     38 N          24.0915   27.7985   18.9740 N.am      2 SEC2        0.0000 
     39 N          22.5930   28.2160   19.0070 N.am     10 SEL2        0.0000 
     40 N          25.5900   27.3810   18.9410 N.am      6 SEP2        0.0000 
     41 N          24.7185   27.9525   20.2160 N.am      2 SEC2        0.0000 
     42 N          23.8470   28.5240   21.4910 N.am     10 SEL2        0.0000 
     43 CA         25.3400   29.2295   21.0070 C.3       4 GLC5        0.0000 
     44 CA         24.3790   28.7810   22.7500 C.3      12 GLL5        0.0000 
     45 CA         26.3010   29.6780   19.2640 C.3       8 GLP5        0.0000 
     46 CA         26.9290   26.9355   22.0595 C.3       4 GLC5        0.0000 
     47 CA         25.2950   27.8590   23.2560 C.3      12 GLL5        0.0000 
     48 CA         28.5630   26.0120   20.8630 C.3       8 GLP5        0.0000 
     49 CA         28.0600   26.0900   24.0375 C.3       4 GLC5        0.0000 
     50 CA         26.8010   27.0800   24.9700 C.3      12 GLL5        0.0000 
     51 CA         29.3190   25.1000   23.1050 C.3       8 GLP5        0.0000 
     52 CA         26.2745   25.1235   25.4260 C.3       4 GLC5        0.0000 
     53 CA         25.7480   23.1670   25.8820 C.3       8 GLP5        0.0000 
     54 CA         25.6940   26.8445   26.8480 C.3       4 GLC5        0.0000 
     55 CA         24.5870   26.6090   28.7260 C.3       8 GLP5        0.0000 
     56 CA         21.4695   31.4765   24.9340 C.3       4 GLC5        0.0000 
     57 CA         22.8020   32.0780   23.6480 C.3      12 GLL5        0.0000 
     58 CA         20.1370   30.8750   26.2200 C.3       8 GLP5        0.0000 
     59 CA         25.2545   34.3395   22.3700 C.3       4 GLC5        0.0000 
     60 CA         23.7030   33.1820   23.0220 C.3      12 GLL5        0.0000 
     61 CA         26.8060   35.4970   21.7180 C.3       8 GLP5        0.0000 
     62 CA         24.0920   33.4605   20.9645 C.3       4 GLC5        0.0000 
     63 CA         24.4810   33.7390   18.9070 C.3       8 GLP5        0.0000 
     64 O          25.5380   32.1730   22.5365 O.2       1 ALC1        0.0000 
     65 O          25.0830   33.0430   23.4850 O.2       9 ALL1        0.0000 
     66 O          25.9930   31.3030   21.5880 O.2       5 ALP1        0.0000 
     67 CA         24.8035   35.8005   23.4990 C.3       4 GLC5        0.0000 
     68 CA         23.2550   34.6320   23.2820 C.3      12 GLL5        0.0000 
     69 CA         26.3520   36.9690   23.7160 C.3       8 GLP5        0.0000 
     70 CA         23.3200   34.3860   20.5925 C.3       4 GLC5        0.0000 
     71 CA         22.1590   35.0330   22.2780 C.3      12 GLL5        0.0000 
     72 O          22.5555   34.9095   19.6690 O.2       1 ALC1        0.0000 
     73 O          22.7950   35.2250   21.0070 O.2       9 ALL1        0.0000 
     74 O          22.3160   34.5940   18.3310 O.2       5 ALP1        0.0000 
     75 CA         19.3540   36.9475   22.8945 C.3       4 GLC5        0.0000 
     76 CA         21.4650   36.3400   22.6810 C.3      12 GLL5        0.0000 
     77 NZ         24.6295   40.0600   23.9500 N.4       3 LYC4        0.0000 
     78 NZ         23.3260   39.6040   23.2830 N.4      11 LYL4        0.0000 
     79 NZ         26.5390   39.3880   24.2550 N.4       7 LYP4        0.0000 
     80 N          24.5720   38.9400   23.7025 N.am      2 SEC2        0.0000 
     81 N          23.3260   39.6040   23.2830 N.am     10 SEL2        0.0000 
     82 N          25.8180   38.2760   24.1220 N.am      6 SEP2        0.0000 
     83 N          24.6295   40.0600   23.9500 N.am      2 SEC2        0.0000 
     84 N          25.9330   40.5160   24.6170 N.am      6 SEP2        0.0000 
     85 N          23.4750   40.5715   22.2275 N.am      2 SEC2        0.0000 
     86 N          23.6240   41.5390   21.1720 N.am      6 SEP2        0.0000 
     87 N          21.4045   39.7835   20.7450 N.am      2 SEC2        0.0000 
     88 N          21.0910   39.3530   22.0640 N.am     10 SEL2        0.0000 
     89 N          21.7180   40.2140   19.4260 N.am      6 SEP2        0.0000 
     90 N          20.1325   39.0995   21.1235 N.am      2 SEC2        0.0000 
     91 N          19.1740   38.8460   20.1830 N.am      6 SEP2        0.0000 
     92 CA         17.8220   38.7717   25.7858 C.3       4 GLC5        0.0000 
     93 CA         19.6320   38.3240   27.1340 C.3      12 GLL5        0.0000 
     94 CA         16.6180   39.6680   24.2920 C.3       8 GLP5        0.0000 
     95 CA         17.9127   33.4123   27.5530 C.3       4 GLC5        0.0000 
     96 CA         18.3050   31.4160   27.8690 C.3       8 GLP5        0.0000 
     97 CA         19.0033   31.9371   25.3026 C.3       4 GLC5        0.0000 
     98 CA         26.6390   29.4215   23.1620 C.3       4 GLC5        0.0000 
     99 CA         28.4410   30.5230   23.3210 C.3       8 GLP5        0.0000 
    100 CA         27.3900   29.0455   24.0275 C.3       4 GLC5        0.0000 
    101 CA         25.8770   28.0560   24.4980 C.3      12 GLL5        0.0000 
    102 CA         27.1535   29.9235   24.5947 C.3       4 GLC5        0.0000 
    103 CA         25.5700   29.2100   25.2290 C.3      12 GLL5        0.0000 
    104 CA         25.2265   27.9665   27.2972 C.3       4 GLC5        0.0000 
    105 CA         26.3940   30.2825   23.7093 C.3       4 GLC5        0.0000 
    106 CA         24.6510   30.1460   24.7240 C.3      12 GLL5        0.0000 
    107 CA         22.7925   30.0095   25.4632 C.3       4 GLC5        0.0000 
    108 CA         21.2380   29.9770   26.8290 C.3       8 GLP5        0.0000 
    109 CA         20.1145   35.1502   21.7318 C.3       4 GLC5        0.0000 
    110 CA         21.3110   36.5463   20.8277 C.3       4 GLC5        0.0000 
    111 CA         20.8100   37.4060   19.1760 C.3       8 GLP5        0.0000 
@<TRIPOS>BOND
@<TRIPOS>SUBSTRUCTURE
     1 ALC1       10 GROUP        1 X    ALC  0     ROOT ALC X 1
     2 SEC2        4 GROUP        1 X    SEC  0     **** SEC X 2
     3 LYC4        1 GROUP        1 X    LYC  0     **** LYC X 4
     4 GLC5       13 GROUP        1 X    GLC  0     **** GLC X 6
     5 ALP1       12 GROUP        1 Y    ALP  0     ROOT ALP Y 8
     6 SEP2        6 GROUP        1 Y    SEP  0     **** SEP Y 9
     7 LYP4        3 GROUP        1 Y    LYP  0     **** LYP Y 11
     8 GLP5       15 GROUP        1 Y    GLP  0     **** GLP Y 13
     9 ALL1       11 GROUP        1 Z    ALL  0     ROOT ALL Z 15
    10 SEL2        5 GROUP        1 Z    SEL  0     **** SEL Z 16
    11 LYL4        2 GROUP        1 Z    LYL  0     **** LYL Z 18
    12 GLL5       14 GROUP        1 Z    GLL  0     **** GLL Z 20
@<TRIPOS>SET

