#    Name: 4b4d_FAD_1_ligand
#    Modification time : Tue Mar 25 06:38:04 2014

@<TRIPOS>MOLECULE
4b4d_FAD_1_ligand
   84    89     1     0     0
SMALL
NO_CHARGES


@<TRIPOS>ATOM
      1 PA         22.0040   38.3500   25.8550 P.3       1 FAD1260     0.0000 
      2 O1A        22.1630   39.6160   26.6910 O.co2     1 FAD1260     0.0000 
      3 O2A        22.9080   37.2080   25.8640 O.co2     1 FAD1260     0.0000 
      4 O5B        20.7310   37.6040   26.5200 O.3       1 FAD1260     0.0000 
      5 C5B        19.6320   38.3240   27.1340 C.3       1 FAD1260     0.0000 
      6 C4B        18.4200   37.4270   27.4250 C.3       1 FAD1260     0.0000 
      7 O4B        17.9720   36.8620   26.1930 O.3       1 FAD1260     0.0000 
      8 C3B        18.7730   36.2200   28.2770 C.3       1 FAD1260     0.0000 
      9 O3B        18.8120   36.5640   29.6600 O.3       1 FAD1260     0.0000 
     10 C2B        17.6140   35.2770   27.9790 C.3       1 FAD1260     0.0000 
     11 O2B        16.3980   35.7290   28.6510 O.3       1 FAD1260     0.0000 
     12 C1B        17.4270   35.5400   26.4950 C.3       1 FAD1260     0.0000 
     13 N9A        18.1110   34.6050   25.5700 N.pl3     1 FAD1260     0.0000 
     14 C8A        19.3720   34.6650   25.1120 C.2       1 FAD1260     0.0000 
     15 N7A        19.5560   33.6480   24.2650 N.2       1 FAD1260     0.0000 
     16 C5A        18.4020   32.9690   24.1560 C.ar      1 FAD1260     0.0000 
     17 C6A        18.0420   31.8760   23.4470 C.ar      1 FAD1260     0.0000 
     18 N6A        18.9310   31.2810   22.6340 N.pl3     1 FAD1260     0.0000 
     19 N1A        16.7910   31.3890   23.5130 N.ar      1 FAD1260     0.0000 
     20 C2A        15.8770   32.0090   24.3490 C.ar      1 FAD1260     0.0000 
     21 N3A        16.2460   33.1290   25.0810 N.ar      1 FAD1260     0.0000 
     22 C4A        17.5170   33.5760   24.9690 C.ar      1 FAD1260     0.0000 
     23 N1         21.6770   31.5010   21.1990 N.2       1 FAD1260     0.0000 
     24 C2         21.0950   31.2790   19.9540 C.2       1 FAD1260     0.0000 
     25 O2         20.2640   32.0710   19.5220 O.2       1 FAD1260     0.0000 
     26 N3         21.4180   30.1280   19.2360 N.am      1 FAD1260     0.0000 
     27 C4         22.3450   29.2030   19.7130 C.2       1 FAD1260     0.0000 
     28 O4         22.5930   28.2160   19.0070 O.2       1 FAD1260     0.0000 
     29 C4X        22.9310   29.4230   20.9690 C.2       1 FAD1260     0.0000 
     30 N5         23.8470   28.5240   21.4910 N.2       1 FAD1260     0.0000 
     31 C5X        24.3790   28.7810   22.7500 C.ar      1 FAD1260     0.0000 
     32 C6         25.2950   27.8590   23.2560 C.ar      1 FAD1260     0.0000 
     33 C7         25.8770   28.0560   24.4980 C.ar      1 FAD1260     0.0000 
     34 C7M        26.8010   27.0800   24.9700 C.3       1 FAD1260     0.0000 
     35 C8         25.5700   29.2100   25.2290 C.ar      1 FAD1260     0.0000 
     36 C8M        26.1620   29.4380   26.5080 C.3       1 FAD1260     0.0000 
     37 C9         24.6510   30.1460   24.7240 C.ar      1 FAD1260     0.0000 
     38 C9A        24.0430   29.9380   23.4710 C.ar      1 FAD1260     0.0000 
     39 N10        23.1520   30.8160   22.9320 N.pl3     1 FAD1260     0.0000 
     40 C10        22.6010   30.5770   21.7100 C.2       1 FAD1260     0.0000 
     41 C1'        22.8020   32.0780   23.6480 C.3       1 FAD1260     0.0000 
     42 C2'        23.7030   33.1820   23.0220 C.3       1 FAD1260     0.0000 
     43 O2'        25.0830   33.0430   23.4850 O.3       1 FAD1260     0.0000 
     44 C3'        23.2550   34.6320   23.2820 C.3       1 FAD1260     0.0000 
     45 O3'        22.8280   34.7750   24.6320 O.3       1 FAD1260     0.0000 
     46 C4'        22.1590   35.0330   22.2780 C.3       1 FAD1260     0.0000 
     47 O4'        22.7950   35.2250   21.0070 O.3       1 FAD1260     0.0000 
     48 C5'        21.4650   36.3400   22.6810 C.3       1 FAD1260     0.0000 
     49 O5'        22.4650   37.3720   22.7590 O.3       1 FAD1260     0.0000 
     50 P          22.0330   38.8750   23.0800 P.3       1 FAD1260     0.0000 
     51 O1P        23.3260   39.6040   23.2830 O.co2     1 FAD1260     0.0000 
     52 O2P        21.0910   39.3530   22.0640 O.co2     1 FAD1260     0.0000 
     53 O3P        21.2250   38.6740   24.5210 O.3       1 FAD1260     0.0000 
     54 H          19.2881   39.1505   26.4850 H         1 FAD1260     0.0000 
     55 H          19.9445   38.7841   28.0896 H         1 FAD1260     0.0000 
     56 H          17.6573   37.9827   27.8949 H         1 FAD1260     0.0000 
     57 H          19.6576   35.7916   27.9046 H         1 FAD1260     0.0000 
     58 H          17.8747   34.3110   28.1380 H         1 FAD1260     0.0000 
     59 H          16.3638   35.5576   26.2705 H         1 FAD1260     0.0000 
     60 H          20.0305   35.3311   25.3556 H         1 FAD1260     0.0000 
     61 H          19.8248   31.7235   22.5603 H         1 FAD1260     0.0000 
     62 H          18.6195   30.4488   22.1752 H         1 FAD1260     0.0000 
     63 H          14.9179   31.6378   24.4287 H         1 FAD1260     0.0000 
     64 H          20.9553   29.9558   18.3216 H         1 FAD1260     0.0000 
     65 H          25.5384   27.0257   22.6986 H         1 FAD1260     0.0000 
     66 H          24.4219   30.9830   25.2686 H         1 FAD1260     0.0000 
     67 H          23.0320   32.0045   24.6893 H         1 FAD1260     0.0000 
     68 H          21.7796   32.3421   23.4820 H         1 FAD1260     0.0000 
     69 H          23.6932   33.0307   21.9273 H         1 FAD1260     0.0000 
     70 H          24.1255   35.2684   23.0806 H         1 FAD1260     0.0000 
     71 H          21.4347   34.2502   22.2322 H         1 FAD1260     0.0000 
     72 H          20.9764   36.1784   23.6390 H         1 FAD1260     0.0000 
     73 H          20.7112   36.5645   21.9300 H         1 FAD1260     0.0000 
     74 H          27.5865   26.9859   24.3584 H         1 FAD1260     0.0000 
     75 H          27.1595   27.3144   25.8736 H         1 FAD1260     0.0000 
     76 H          26.3797   26.1764   25.0472 H         1 FAD1260     0.0000 
     77 H          27.1594   29.4839   26.4527 H         1 FAD1260     0.0000 
     78 H          25.8510   30.2977   26.9133 H         1 FAD1260     0.0000 
     79 H          25.9376   28.7103   27.1562 H         1 FAD1260     0.0000 
     80 H          17.8572   36.7159   29.9158 H         1 FAD1260     0.0000 
     81 H          16.4394   35.3208   29.5629 H         1 FAD1260     0.0000 
     82 H          25.5075   32.4028   22.8447 H         1 FAD1260     0.0000 
     83 H          22.9708   35.7410   24.8476 H         1 FAD1260     0.0000 
     84 H          22.2013   34.7630   20.3482 H         1 FAD1260     0.0000 
@<TRIPOS>BOND
     1    2    1 ar   
     2    3    1 ar   
     3    4    1 1    
     4   53    1 1    
     5    5    4 1    
     6    6    5 1    
     7   54    5 1    
     8   55    5 1    
     9    7    6 1    
    10    8    6 1    
    11   56    6 1    
    12   12    7 1    
    13    9    8 1    
    14   10    8 1    
    15   57    8 1    
    16   80    9 1    
    17   11   10 1    
    18   12   10 1    
    19   58   10 1    
    20   81   11 1    
    21   13   12 1    
    22   59   12 1    
    23   14   13 1    
    24   22   13 1    
    25   15   14 2    
    26   60   14 1    
    27   16   15 1    
    28   17   16 ar   
    29   22   16 ar   
    30   18   17 1    
    31   19   17 ar   
    32   61   18 1    
    33   62   18 1    
    34   20   19 ar   
    35   21   20 ar   
    36   63   20 1    
    37   22   21 ar   
    38   24   23 1    
    39   40   23 2    
    40   25   24 2    
    41   26   24 am   
    42   27   26 am   
    43   64   26 1    
    44   28   27 2    
    45   29   27 1    
    46   30   29 2    
    47   40   29 1    
    48   31   30 1    
    49   32   31 ar   
    50   38   31 ar   
    51   33   32 ar   
    52   65   32 1    
    53   34   33 1    
    54   35   33 ar   
    55   74   34 1    
    56   75   34 1    
    57   76   34 1    
    58   36   35 1    
    59   37   35 ar   
    60   77   36 1    
    61   78   36 1    
    62   79   36 1    
    63   38   37 ar   
    64   66   37 1    
    65   39   38 1    
    66   40   39 1    
    67   41   39 1    
    68   42   41 1    
    69   67   41 1    
    70   68   41 1    
    71   43   42 1    
    72   44   42 1    
    73   69   42 1    
    74   82   43 1    
    75   45   44 1    
    76   46   44 1    
    77   70   44 1    
    78   83   45 1    
    79   47   46 1    
    80   48   46 1    
    81   71   46 1    
    82   84   47 1    
    83   49   48 1    
    84   72   48 1    
    85   73   48 1    
    86   50   49 1    
    87   51   50 ar   
    88   52   50 ar   
    89   53   50 1    
@<TRIPOS>SUBSTRUCTURE
     1 FAD1260     1 GROUP   
@<TRIPOS>SET

