#    Name: 4ipw_1G7_1_INTS_M
#    Modification time : Tue Mar 25 04:14:01 2014

@<TRIPOS>MOLECULE
4ipw_1G7_1_INTS_M
   29     0     6     0     0
SMALL
NO_CHARGES


@<TRIPOS>ATOM
      1 CA         10.8490   18.6665    0.5115 C.3       2 GLC5        0.0000 
      2 CA          9.6800   19.3350   -1.1670 C.3       6 GLL5        0.0000 
      3 CA         12.0180   17.9980    2.1900 C.3       4 GLP5        0.0000 
      4 CA          9.6105   20.4670    0.7440 C.3       2 GLC5        0.0000 
      5 CA          9.5410   21.5990    2.6550 C.3       4 GLP5        0.0000 
      6 CA         11.6835   19.8810   -0.6490 C.3       2 GLC5        0.0000 
      7 CA         13.6870   20.4270   -0.1310 C.3       4 GLP5        0.0000 
      8 CA         10.0810   20.7430   -4.3685 C.3       2 GLC5        0.0000 
      9 CA          9.7490   19.4260   -2.7530 C.3       6 GLL5        0.0000 
     10 CA         10.4130   22.0600   -5.9840 C.3       4 GLP5        0.0000 
     11 CA         11.2970   20.5505   -4.6515 C.3       2 GLC5        0.0000 
     12 CA         12.1810   19.0410   -3.3190 C.3       6 GLL5        0.0000 
     13 CA          7.1415   17.6565    1.7850 C.3       2 GLC5        0.0000 
     14 CA          7.1090   18.7450    0.1320 C.3       6 GLL5        0.0000 
     15 CA          7.1740   16.5680    3.4380 C.3       4 GLP5        0.0000 
     16 N           6.7755   19.2125   -8.0455 N.am      1 SEC2        0.0000 
     17 N           6.7600   19.0040   -6.3210 N.am      5 SEL2        0.0000 
     18 N           6.7910   19.4210   -9.7700 N.am      3 SEP2        0.0000 
     19 CA         11.9623   15.7940   -2.2530 C.3       2 GLC5        0.0000 
     20 CA         10.6480   17.1370   -3.5520 C.3       6 GLL5        0.0000 
     21 CA         12.7530   14.8510   -0.7860 C.3       4 GLP5        0.0000 
     22 CA         12.9480   16.1782   -2.2937 C.3       2 GLC5        0.0000 
     23 CA         13.0070   16.8070   -3.9360 C.3       6 GLL5        0.0000 
     24 CA         13.5610   20.1657   -2.8465 C.3       2 GLC5        0.0000 
     25 CA         13.2790   18.2040   -3.6670 C.3       6 GLL5        0.0000 
     26 CA         14.3920   21.7090   -2.2000 C.3       4 GLP5        0.0000 
     27 CA          3.9868   17.9105   -1.2117 C.3       2 GLC5        0.0000 
     28 CA          6.0650   18.6900   -2.1810 C.3       6 GLL5        0.0000 
     29 CA          2.0270   17.1960   -0.9940 C.3       4 GLP5        0.0000 
@<TRIPOS>BOND
@<TRIPOS>SUBSTRUCTURE
     1 SEC2       16 GROUP        1 X    SEC  0     ROOT SEC X 2
     2 GLC5        1 GROUP        1 X    GLC  0     **** GLC X 6
     3 SEP2       18 GROUP        1 Y    SEP  0     ROOT SEP Y 9
     4 GLP5        3 GROUP        1 Y    GLP  0     **** GLP Y 13
     5 SEL2       17 GROUP        1 Z    SEL  0     ROOT SEL Z 16
     6 GLL5        2 GROUP        1 Z    GLL  0     **** GLL Z 20
@<TRIPOS>SET

