#    Name: 4ipw_1G7_1_ligand
#    Modification time : Tue Mar 25 04:14:01 2014

@<TRIPOS>MOLECULE
4ipw_1G7_1_ligand
   43    45     1     0     0
SMALL
NO_CHARGES


@<TRIPOS>ATOM
      1 OB          9.1870   21.6070   -0.7410 O.2       1 1G7406      0.0000 
      2 CB          8.7930   20.4370   -0.6360 C.2       1 1G7406      0.0000 
      3 CAB         9.6800   19.3350   -1.1670 C.3       1 1G7406      0.0000 
      4 CBB         9.7490   19.4260   -2.7530 C.3       1 1G7406      0.0000 
      5 CGB        10.9090   18.5140   -3.2130 C.ar      1 1G7406      0.0000 
      6 CD4        10.6480   17.1370   -3.5520 C.ar      1 1G7406      0.0000 
      7 CE4        11.6950   16.3370   -3.8880 C.ar      1 1G7406      0.0000 
      8 OH4        11.4690   15.0240   -4.2560 O.3       1 1G7406      0.0000 
      9 CZB        13.0070   16.8070   -3.9360 C.ar      1 1G7406      0.0000 
     10 OHB        14.0650   15.9430   -4.2540 O.3       1 1G7406      0.0000 
     11 CE3        13.2790   18.2040   -3.6670 C.ar      1 1G7406      0.0000 
     12 CD3        12.1810   19.0410   -3.3190 C.ar      1 1G7406      0.0000 
     13 NB          9.2510   17.9840   -0.8110 N.am      1 1G7406      0.0000 
     14 CA          8.1050   17.6310   -0.2360 C.2       1 1G7406      0.0000 
     15 OA          7.7940   16.4480    0.0400 O.2       1 1G7406      0.0000 
     16 NA          7.6530   20.1000   -0.0520 N.am      1 1G7406      0.0000 
     17 CAA         7.1090   18.7450    0.1320 C.3       1 1G7406      0.0000 
     18 CBA         5.8280   18.5600   -0.6780 C.3       1 1G7406      0.0000 
     19 CGA         6.0650   18.6900   -2.1810 C.ar      1 1G7406      0.0000 
     20 CD1         6.0720   19.8940   -2.8600 C.ar      1 1G7406      0.0000 
     21 CE1         6.2870   20.0710   -4.2290 C.ar      1 1G7406      0.0000 
     22 CZA         6.5460   18.8930   -4.9890 C.ar      1 1G7406      0.0000 
     23 OHA         6.7600   19.0040   -6.3210 O.3       1 1G7406      0.0000 
     24 CE2         6.5580   17.6600   -4.3100 C.ar      1 1G7406      0.0000 
     25 CD2         6.3430   17.5350   -2.9370 C.ar      1 1G7406      0.0000 
     26 H          10.7041   19.5069   -0.8289 H         1 1G7406      0.0000 
     27 H           9.9491   20.4368   -3.0219 H         1 1G7406      0.0000 
     28 H           8.8259   19.0723   -3.1491 H         1 1G7406      0.0000 
     29 H           9.6869   16.8068   -3.5291 H         1 1G7406      0.0000 
     30 H          14.2102   18.5576   -3.7267 H         1 1G7406      0.0000 
     31 H          12.3554   20.0386   -3.1498 H         1 1G7406      0.0000 
     32 H           9.9766   17.2256   -1.0617 H         1 1G7406      0.0000 
     33 H           7.0100   20.8683    0.3534 H         1 1G7406      0.0000 
     34 H           6.8383   18.5981    1.1892 H         1 1G7406      0.0000 
     35 H           5.0939   19.3108   -0.3646 H         1 1G7406      0.0000 
     36 H           5.4091   17.5700   -0.4655 H         1 1G7406      0.0000 
     37 H           5.8956   20.7829   -2.2843 H         1 1G7406      0.0000 
     38 H           6.2634   20.9672   -4.6642 H         1 1G7406      0.0000 
     39 H           6.7387   16.7914   -4.8707 H         1 1G7406      0.0000 
     40 H           6.3852   16.6250   -2.4832 H         1 1G7406      0.0000 
     41 H          10.4738   14.9271   -4.2707 H         1 1G7406      0.0000 
     42 H          14.8711   16.5318   -4.3126 H         1 1G7406      0.0000 
     43 H           6.1988   19.7798   -6.6094 H         1 1G7406      0.0000 
@<TRIPOS>BOND
     1    2    1 2    
     2    3    2 1    
     3   16    2 am   
     4    4    3 1    
     5   13    3 1    
     6   26    3 1    
     7    5    4 1    
     8   27    4 1    
     9   28    4 1    
    10    6    5 ar   
    11   12    5 ar   
    12    7    6 ar   
    13   29    6 1    
    14    8    7 1    
    15    9    7 ar   
    16   41    8 1    
    17   10    9 1    
    18   11    9 ar   
    19   42   10 1    
    20   12   11 ar   
    21   30   11 1    
    22   31   12 1    
    23   14   13 am   
    24   32   13 1    
    25   15   14 2    
    26   17   14 1    
    27   17   16 1    
    28   33   16 1    
    29   18   17 1    
    30   34   17 1    
    31   19   18 1    
    32   35   18 1    
    33   36   18 1    
    34   20   19 ar   
    35   25   19 ar   
    36   21   20 ar   
    37   37   20 1    
    38   22   21 ar   
    39   38   21 1    
    40   23   22 1    
    41   24   22 ar   
    42   43   23 1    
    43   25   24 ar   
    44   39   24 1    
    45   40   25 1    
@<TRIPOS>SUBSTRUCTURE
     1 1G7406      1 GROUP   
@<TRIPOS>SET

