#    Name: 3SAX_1_CAVITY_N1_ALL.mol2
#    Modification time : Mon Mar 10 23:14:53 2014

@<TRIPOS>MOLECULE
3SAX_1_CAVITY_N1_ALL.mol2
   74     0     6     0     0
SMALL
NO_CHARGES


@<TRIPOS>ATOM
      1 DU         -2.6760    6.8289   13.4093 H         6 CUB7        0.0000 
      2 N           0.1765    3.3590   11.8854 N.2       2 ALA2        0.0000 
      3 CZ         -0.0801    3.1416   10.4236 C.ar      4 PHE5        0.0000 
      4 DU         -1.1164    4.2258   10.4443 H         6 CUB7        0.0000 
      5 CA         -0.3366    2.9243    8.9618 C.3       5 GLY6        0.0000 
      6 CA         -0.5932    2.7069    7.5000 C.3       5 GLY6        0.0000 
      7 CA         -3.4731    6.0327   15.2068 C.3       5 GLY6        0.0000 
      8 OG         -2.6933    4.7312   13.7243 O.2       1 SER1        0.0000 
      9 CZ         -3.7296    5.8154   13.7450 C.ar      4 PHE5        0.0000 
     10 OG         -0.8771    2.3454   12.2211 O.2       1 SER1        0.0000 
     11 OG         -1.9135    3.4296   12.2418 O.2       1 SER1        0.0000 
     12 DU         -2.9498    4.5138   12.2625 H         6 CUB7        0.0000 
     13 DU         -3.9862    5.5980   12.2832 H         6 CUB7        0.0000 
     14 CZ         -5.0226    6.6822   12.3039 C.ar      4 PHE5        0.0000 
     15 CZ         -0.0973    1.0439   10.7385 C.ar      4 PHE5        0.0000 
     16 CA         -1.1337    2.1281   10.7592 C.3       5 GLY6        0.0000 
     17 DU         -2.1701    3.2123   10.7799 H         6 CUB7        0.0000 
     18 DU         -3.2064    4.2965   10.8006 H         6 CUB7        0.0000 
     19 DU         -4.2428    5.3807   10.8213 H         6 CUB7        0.0000 
     20 O          -1.3903    1.9107    9.2974 O.2       2 ALA2        0.0000 
     21 O          -2.4266    2.9949    9.3181 O.2       2 ALA2        0.0000 
     22 O          -3.4630    4.0791    9.3388 O.2       2 ALA2        0.0000 
     23 O          -4.4994    5.1633    9.3595 O.2       2 ALA2        0.0000 
     24 CA         -3.4903    3.9350   15.5217 C.3       5 GLY6        0.0000 
     25 CA         -4.5267    5.0192   15.5424 C.3       5 GLY6        0.0000 
     26 CZ         -5.5630    6.1034   15.5631 C.ar      4 PHE5        0.0000 
     27 OG         -3.7469    3.7177   14.0599 O.2       1 SER1        0.0000 
     28 DU         -4.7832    4.8019   14.0806 H         6 CUB7        0.0000 
     29 CZ         -5.8196    5.8861   14.1013 C.ar      4 PHE5        0.0000 
     30 OG         -2.9671    2.4161   12.5774 O.2       1 SER1        0.0000 
     31 OG         -4.0035    3.5003   12.5981 O.2       1 SER1        0.0000 
     32 O          -5.0398    4.5845   12.6188 O.2       2 ALA2        0.0000 
     33 O          -6.0762    5.6687   12.6395 O.2       2 ALA2        0.0000 
     34 CZ         -1.1509    0.0303   11.0742 C.ar      4 PHE5        0.0000 
     35 CA         -2.1873    1.1145   11.0949 C.3       5 GLY6        0.0000 
     36 O          -3.2237    2.1987   11.1156 O.2       2 ALA2        0.0000 
     37 O          -4.2600    3.2829   11.1363 O.2       2 ALA2        0.0000 
     38 O          -5.2964    4.3671   11.1570 O.2       2 ALA2        0.0000 
     39 O          -2.4439    0.8972    9.6330 O.2       2 ALA2        0.0000 
     40 O          -4.5166    3.0656    9.6744 O.2       2 ALA2        0.0000 
     41 CA         -5.3237    4.2230   17.3399 C.3       5 GLY6        0.0000 
     42 CA         -4.5439    2.9215   15.8574 C.3       5 GLY6        0.0000 
     43 CA         -5.5803    4.0057   15.8781 C.3       5 GLY6        0.0000 
     44 CA         -6.6166    5.0899   15.8988 C.3       5 GLY6        0.0000 
     45 OG         -4.8005    2.7041   14.3955 O.2       1 SER1        0.0000 
     46 O          -5.8369    3.7883   14.4162 O.2       2 ALA2        0.0000 
     47 CA         -6.8732    4.8725   14.4369 C.3       5 GLY6        0.0000 
     48 OG         -4.0207    1.4026   12.9130 O.2       1 SER1        0.0000 
     49 O          -5.0571    2.4868   12.9337 O.2       2 ALA2        0.0000 
     50 CA         -2.2045   -0.9832   11.4098 C.3       5 GLY6        0.0000 
     51 CA         -3.2409    0.1010   11.4305 C.3       5 GLY6        0.0000 
     52 DU         -4.2773    1.1852   11.4512 H         6 CUB7        0.0000 
     53 O          -5.3136    2.2694   11.4719 O.2       2 ALA2        0.0000 
     54 O          -3.4975   -0.1164    9.9687 O.2       2 ALA2        0.0000 
     55 O          -4.5338    0.9678    9.9894 O.2       2 ALA2        0.0000 
     56 CA         -5.3409    2.1253   17.6548 C.3       5 GLY6        0.0000 
     57 CA         -6.3773    3.2095   17.6755 C.3       5 GLY6        0.0000 
     58 CA         -7.4137    4.2937   17.6962 C.3       5 GLY6        0.0000 
     59 OD1        -4.5611    0.8237   16.1723 O.3       3 ASP3        0.0000 
     60 OD1        -5.5975    1.9079   16.1930 O.3       3 ASP3        0.0000 
     61 CA         -6.6339    2.9921   16.2137 C.3       5 GLY6        0.0000 
     62 CA         -7.6703    4.0763   16.2344 C.3       5 GLY6        0.0000 
     63 N          -5.8541    1.6906   14.7312 N.2       2 ALA2        0.0000 
     64 CA         -6.8905    2.7748   14.7519 C.3       5 GLY6        0.0000 
     65 CA         -4.0379   -0.6952   13.2280 C.3       5 GLY6        0.0000 
     66 N          -5.0743    0.3890   13.2487 N.2       2 ALA2        0.0000 
     67 CA         -3.2581   -1.9967   11.7454 C.3       5 GLY6        0.0000 
     68 CA         -4.2945   -0.9125   11.7661 C.3       5 GLY6        0.0000 
     69 CA         -5.3309    0.1717   11.7868 C.3       5 GLY6        0.0000 
     70 CA         -4.5511   -1.1299   10.3043 C.3       5 GLY6        0.0000 
     71 CZ         -6.3945    1.1117   17.9905 C.ar      4 PHE5        0.0000 
     72 CA         -7.4309    2.1959   18.0112 C.3       5 GLY6        0.0000 
     73 OD1        -6.6511    0.8944   16.5286 O.3       3 ASP3        0.0000 
     74 CA         -7.6875    1.9786   16.5493 C.3       5 GLY6        0.0000 
@<TRIPOS>BOND
@<TRIPOS>SUBSTRUCTURE
     1 SER1        8 GROUP   
     2 ALA2        2 GROUP   
     3 ASP3       59 GROUP   
     4 PHE5        3 GROUP   
     5 GLY6        5 GROUP   
     6 CUB7        1 GROUP   
@<TRIPOS>SET

