#    Name: 3sax_E50_1_INTS_M
#    Modification time : Tue Mar 25 12:21:50 2014

@<TRIPOS>MOLECULE
3sax_E50_1_INTS_M
   46     0    12     0     0
SMALL
NO_CHARGES


@<TRIPOS>ATOM
      1 CA         -1.8650    5.5810   15.4125 C.3       4 GLC5        0.0000 
      2 CA         -1.8940    5.8070   13.4560 C.3      12 GLL5        0.0000 
      3 CA         -1.8360    5.3550   17.3690 C.3       8 GLP5        0.0000 
      4 CA          0.2660    1.5935   11.3360 C.3       4 GLC5        0.0000 
      5 CA         -1.7110    2.5940   11.0480 C.3      12 GLL5        0.0000 
      6 CA          2.2430    0.5930   11.6240 C.3       8 GLP5        0.0000 
      7 CA         -1.1325    1.4655   12.8830 C.3       4 GLC5        0.0000 
      8 CA         -0.5540    0.3370   14.7180 C.3       8 GLP5        0.0000 
      9 CA         -2.2095    0.5865   13.2010 C.3       4 GLC5        0.0000 
     10 CA         -2.9990    1.9780   12.1560 C.3      12 GLL5        0.0000 
     11 CA         -1.4200   -0.8050   14.2460 C.3       8 GLP5        0.0000 
     12 CA         -3.3350    9.0315   14.4325 C.3       4 GLC5        0.0000 
     13 CA         -1.2990    8.3380   14.7670 C.3      12 GLL5        0.0000 
     14 CA         -5.3710    9.7250   14.0980 C.3       8 GLP5        0.0000 
     15 CA         -1.5675    6.8465   16.0680 C.3       4 GLC5        0.0000 
     16 CA         -7.7615    5.1590   15.4465 C.3       4 GLC5        0.0000 
     17 CA         -5.9080    4.5950   15.2060 C.3      12 GLL5        0.0000 
     18 CA         -9.6150    5.7230   15.6870 C.3       8 GLP5        0.0000 
     19 N          -4.0365    0.6205   18.6075 N.am      2 SEC2        0.0000 
     20 N          -5.3400    1.0550   18.0790 N.am     10 SEL2        0.0000 
     21 N          -2.7330    0.1860   19.1360 N.am      6 SEP2        0.0000 
     22 CA         -8.2330    4.7665   16.6315 C.3       4 GLC5        0.0000 
     23 CA         -6.8510    3.8100   17.5760 C.3      12 GLL5        0.0000 
     24 CA         -6.9005    5.5530   18.1440 C.3       4 GLC5        0.0000 
     25 CA         -6.9500    7.2960   18.7120 C.3       8 GLP5        0.0000 
     26 CA         -8.3505    3.3950   18.4350 C.3       4 GLC5        0.0000 
     27 CA         -9.8500    2.9800   19.2940 C.3       8 GLP5        0.0000 
     28 CA         -5.3080    4.6155   18.2825 C.3       4 GLC5        0.0000 
     29 CA         -3.7650    5.4210   18.9890 C.3       8 GLP5        0.0000 
     30 CA         -6.5500    4.1885   19.6920 C.3       4 GLC5        0.0000 
     31 CA         -6.2490    4.5670   21.8080 C.3       8 GLP5        0.0000 
     32 O          -4.5365   -1.3185   16.8515 O.2       1 ALC1        0.0000 
     33 O          -5.4280   -0.4780   16.0830 O.2       9 ALL1        0.0000 
     34 O          -3.6450   -2.1590   17.6200 O.2       5 ALP1        0.0000 
     35 Zn         -6.0535   -1.0960   15.7020 Zn        3 ZIC7        0.0000 
     36 Zn         -5.4280   -0.4780   16.0830 Zn       11 ZIL7        0.0000 
     37 Zn         -6.6790   -1.7140   15.3210 Zn        7 ZIP7        0.0000 
     38 CA          0.3379    6.0498   14.0264 C.3       4 GLC5        0.0000 
     39 CA          1.5090    5.9210   15.5930 C.3       8 GLP5        0.0000 
     40 CA          0.2812    7.0528   14.8400 C.3       4 GLC5        0.0000 
     41 CA         -0.5940    8.0310   13.4070 C.3      12 GLL5        0.0000 
     42 CA         -7.8195    3.0875   15.4572 C.3       4 GLC5        0.0000 
     43 CA         -6.0780    3.5460   16.0670 C.3      12 GLL5        0.0000 
     44 CA         -9.7900    3.2750   14.9950 C.3       8 GLP5        0.0000 
     45 CA         -4.3498    4.1467   16.8689 C.3       4 GLC5        0.0000 
     46 CA         -2.8210    4.5460   18.1750 C.3       8 GLP5        0.0000 
@<TRIPOS>BOND
@<TRIPOS>SUBSTRUCTURE
     1 ALC1       32 GROUP        1 X    ALC  0     ROOT ALC X 1
     2 SEC2       19 GROUP        1 X    SEC  0     **** SEC X 2
     3 ZIC7       35 GROUP        1 X    ZIC  0     **** ZIC X 5
     4 GLC5        1 GROUP        1 X    GLC  0     **** GLC X 6
     5 ALP1       34 GROUP        1 Y    ALP  0     ROOT ALP Y 8
     6 SEP2       21 GROUP        1 Y    SEP  0     **** SEP Y 9
     7 ZIP7       37 GROUP        1 Y    ZIP  0     **** ZIP Y 12
     8 GLP5        3 GROUP        1 Y    GLP  0     **** GLP Y 13
     9 ALL1       33 GROUP        1 Z    ALL  0     ROOT ALL Z 15
    10 SEL2       20 GROUP        1 Z    SEL  0     **** SEL Z 16
    11 ZIL7       36 GROUP        1 Z    ZIL  0     **** ZIL Z 19
    12 GLL5        2 GROUP        1 Z    GLL  0     **** GLL Z 20
@<TRIPOS>SET

