#    Name: 3sax_E50_1_ligand
#    Modification time : Tue Mar 25 12:21:50 2014

@<TRIPOS>MOLECULE
3sax_E50_1_ligand
   36    37     1     0     0
SMALL
NO_CHARGES


@<TRIPOS>ATOM
      1 N1         -0.4910    4.8960   11.1950 N.ar      1 E50263      0.0000 
      2 C2         -1.4110    4.1500   11.7850 C.ar      1 E50263      0.0000 
      3 N3         -2.0900    4.5660   12.8890 N.ar      1 E50263      0.0000 
      4 C4         -1.8940    5.8070   13.4560 C.ar      1 E50263      0.0000 
      5 C5         -0.9270    6.6330   12.8910 C.ar      1 E50263      0.0000 
      6 C6         -0.2560    6.1370   11.7460 C.ar      1 E50263      0.0000 
      7 S7         -1.7110    2.5940   11.0480 S.3       1 E50263      0.0000 
      8 C8         -2.9990    1.9780   12.1560 C.3       1 E50263      0.0000 
      9 C9         -4.1790    2.9210   12.2730 C.2       1 E50263      0.0000 
     10 O10        -4.5440    3.5820   11.2440 O.2       1 E50263      0.0000 
     11 C11        -0.5940    8.0310   13.4070 C.3       1 E50263      0.0000 
     12 C12        -1.2990    8.3380   14.7670 C.3       1 E50263      0.0000 
     13 C13        -4.8570    3.0830   13.6290 C.ar      1 E50263      0.0000 
     14 C14        -4.9810    2.0570   14.5510 C.ar      1 E50263      0.0000 
     15 C15        -5.6200    2.2540   15.7720 C.ar      1 E50263      0.0000 
     16 C16        -6.0780    3.5460   16.0670 C.ar      1 E50263      0.0000 
     17 C17        -5.9080    4.5950   15.2060 C.ar      1 E50263      0.0000 
     18 C18        -5.3010    4.3680   13.9620 C.ar      1 E50263      0.0000 
     19 S19        -5.9820    0.8130   16.8060 S.o2      1 E50263      0.0000 
     20 O20        -5.3400    1.0550   18.0790 O.2       1 E50263      0.0000 
     21 CL21       -6.8510    3.8100   17.5760 Cl        1 E50263      0.0000 
     22 O22        -7.4370    0.7700   16.7900 O.2       1 E50263      0.0000 
     23 N23        -5.4280   -0.4780   16.0830 N.pl3     1 E50263      0.0000 
     24 H          -2.4337    6.1139   14.2587 H         1 E50263      0.0000 
     25 H           0.4625    6.7663   11.3008 H         1 E50263      0.0000 
     26 H          -2.4613    1.8416   13.0784 H         1 E50263      0.0000 
     27 H          -3.2464    1.0285   11.7136 H         1 E50263      0.0000 
     28 H          -0.9139    8.7775   12.6793 H         1 E50263      0.0000 
     29 H           0.4830    8.1229   13.5512 H         1 E50263      0.0000 
     30 H          -4.5904    1.1206   14.3299 H         1 E50263      0.0000 
     31 H          -6.2149    5.5412   15.4518 H         1 E50263      0.0000 
     32 H          -5.1838    5.1402   13.3010 H         1 E50263      0.0000 
     33 H          -4.7392   -1.0017   16.5843 H         1 E50263      0.0000 
     34 H          -1.0265    7.6926   15.4806 H         1 E50263      0.0000 
     35 H          -1.0787    9.2545   15.1010 H         1 E50263      0.0000 
     36 H          -2.2946    8.2858   14.6893 H         1 E50263      0.0000 
@<TRIPOS>BOND
     1    2    1 ar   
     2    6    1 ar   
     3    3    2 ar   
     4    7    2 1    
     5    4    3 ar   
     6    5    4 ar   
     7   24    4 1    
     8    6    5 ar   
     9   11    5 1    
    10   25    6 1    
    11    8    7 1    
    12    9    8 1    
    13   26    8 1    
    14   27    8 1    
    15   10    9 2    
    16   13    9 1    
    17   12   11 1    
    18   28   11 1    
    19   29   11 1    
    20   34   12 1    
    21   35   12 1    
    22   36   12 1    
    23   14   13 ar   
    24   18   13 ar   
    25   15   14 ar   
    26   30   14 1    
    27   16   15 ar   
    28   19   15 1    
    29   17   16 ar   
    30   21   16 1    
    31   18   17 ar   
    32   31   17 1    
    33   32   18 1    
    34   20   19 2    
    35   22   19 2    
    36   23   19 1    
    37   33   23 1    
@<TRIPOS>SUBSTRUCTURE
     1 E50263      1 GROUP   
@<TRIPOS>SET

