#    Name: 4g95_OAG_1_INTS_M
#    Modification time : Mon Mar 24 21:32:45 2014

@<TRIPOS>MOLECULE
4g95_OAG_1_INTS_M
   54     0     9     0     0
SMALL
NO_CHARGES


@<TRIPOS>ATOM
      1 CA         30.0915   15.0930    2.7075 C.3       3 GLC5        0.0000 
      2 CA         30.0880   13.9890    0.8990 C.3       9 GLL5        0.0000 
      3 CA         30.0950   16.1970    4.5160 C.3       6 GLP5        0.0000 
      4 CA         34.7525   10.1620    2.9145 C.3       3 GLC5        0.0000 
      5 CA         33.4260   11.5760    2.4580 C.3       9 GLL5        0.0000 
      6 CA         36.0790    8.7480    3.3710 C.3       6 GLP5        0.0000 
      7 CA         32.8565   11.6760    4.3590 C.3       3 GLC5        0.0000 
      8 CA         32.2870   11.7760    6.2600 C.3       6 GLP5        0.0000 
      9 CA         32.8875   17.6710   -1.2855 C.3       3 GLC5        0.0000 
     10 CA         34.3410   16.6540   -0.8360 C.3       9 GLL5        0.0000 
     11 CA         31.4340   18.6880   -1.7350 C.3       6 GLP5        0.0000 
     12 CA         35.1100   17.0645    1.0355 C.3       3 GLC5        0.0000 
     13 CA         35.8790   17.4750    2.9070 C.3       6 GLP5        0.0000 
     14 CA         33.0055   12.3925   -0.4725 C.3       3 GLC5        0.0000 
     15 CA         32.4270   13.6930    1.0510 C.3       9 GLL5        0.0000 
     16 CA         33.5840   11.0920   -1.9960 C.3       6 GLP5        0.0000 
     17 N          29.2930   12.5575   -5.5225 N.am      2 SEC2        0.0000 
     18 N          28.4380   12.5850   -4.2970 N.am      8 SEL2        0.0000 
     19 N          30.1480   12.5300   -6.7480 N.am      5 SEP2        0.0000 
     20 CA         35.4235   16.0850    1.6845 C.3       3 GLC5        0.0000 
     21 CA         34.9680   14.6950    0.4620 C.3       9 GLL5        0.0000 
     22 CA         25.0905   12.6370   -4.8190 C.3       3 GLC5        0.0000 
     23 CA         27.1410   12.1850   -4.4820 C.3       9 GLL5        0.0000 
     24 CA         23.0400   13.0890   -5.1560 C.3       6 GLP5        0.0000 
     25 CA         25.9050   10.6470   -4.0640 C.3       3 GLC5        0.0000 
     26 CA         24.6690    9.1090   -3.6460 C.3       6 GLP5        0.0000 
     27 CA         28.0750   10.5680   -5.0600 C.3       3 GLC5        0.0000 
     28 CA         29.0090    8.9510   -5.6380 C.3       6 GLP5        0.0000 
     29 CA         27.2780   14.1495   -4.7365 C.3       3 GLC5        0.0000 
     30 CA         27.4150   16.1140   -4.9910 C.3       6 GLP5        0.0000 
     31 O          25.9295   10.4150   -5.8405 O.2       1 ALC1        0.0000 
     32 O          26.7090   11.8640   -5.7160 O.2       7 ALL1        0.0000 
     33 O          25.1500    8.9660   -5.9650 O.2       4 ALP1        0.0000 
     34 O          27.5730   12.0230   -6.8915 O.2       1 ALC1        0.0000 
     35 O          28.4370   12.1820   -8.0670 O.2       4 ALP1        0.0000 
     36 O          25.4545   11.5225   -6.8670 O.2       1 ALC1        0.0000 
     37 O          24.2000   11.1810   -8.0180 O.2       4 ALP1        0.0000 
     38 CA         34.5785   15.4235    2.3510 C.3       3 GLC5        0.0000 
     39 CA         34.7040   13.6410    1.2510 C.3       9 GLL5        0.0000 
     40 CA         34.4530   17.2060    3.4510 C.3       6 GLP5        0.0000 
     41 CA         25.6930   10.7255   -2.9380 C.3       3 GLC5        0.0000 
     42 CA         26.7170   12.3420   -2.2300 C.3       9 GLL5        0.0000 
     43 O          24.5175   11.5385   -1.6270 O.2       1 ALC1        0.0000 
     44 O          25.7880   12.1880   -1.2800 O.2       7 ALL1        0.0000 
     45 O          23.2470   10.8890   -1.9740 O.2       4 ALP1        0.0000 
     46 CA         32.0850   12.4270   -1.8330 C.3       3 GLC5        0.0000 
     47 CA         30.5860   13.7620   -1.6700 C.3       9 GLL5        0.0000 
     48 CA         33.8938   11.5359    0.3574 C.3       3 GLC5        0.0000 
     49 CA         33.5280   13.0010    1.5190 C.3       9 GLL5        0.0000 
     50 CA         33.6970   10.1070   -0.9050 C.3       6 GLP5        0.0000 
     51 CA         27.9327   14.5083   -3.7713 C.3       3 GLC5        0.0000 
     52 CA         28.9110   12.9330   -3.0590 C.3       9 GLL5        0.0000 
     53 CA         33.8413   16.1517    1.8102 C.3       3 GLC5        0.0000 
     54 CA         32.5800   14.8720    0.2970 C.3       9 GLL5        0.0000 
@<TRIPOS>BOND
@<TRIPOS>SUBSTRUCTURE
     1 ALC1       31 GROUP        1 X    ALC  0     ROOT ALC X 1
     2 SEC2       17 GROUP        1 X    SEC  0     **** SEC X 2
     3 GLC5        1 GROUP        1 X    GLC  0     **** GLC X 6
     4 ALP1       33 GROUP        1 Y    ALP  0     ROOT ALP Y 8
     5 SEP2       19 GROUP        1 Y    SEP  0     **** SEP Y 9
     6 GLP5        3 GROUP        1 Y    GLP  0     **** GLP Y 13
     7 ALL1       32 GROUP        1 Z    ALL  0     ROOT ALL Z 15
     8 SEL2       18 GROUP        1 Z    SEL  0     **** SEL Z 16
     9 GLL5        2 GROUP        1 Z    GLL  0     **** GLL Z 20
@<TRIPOS>SET

