#    Name: 4g95_OAG_1_ligand
#    Modification time : Mon Mar 24 21:32:46 2014

@<TRIPOS>MOLECULE
4g95_OAG_1_ligand
   34    36     1     0     0
SMALL
NO_CHARGES


@<TRIPOS>ATOM
      1 C1         30.0880   13.9890    0.8990 C.3       1 OAG201      0.0000 
      2 N1         31.2330   13.2110    1.3160 N.pl3     1 OAG201      0.0000 
      3 CL2        33.4260   11.5760    2.4580 Cl        1 OAG201      0.0000 
      4 CL5        34.3410   16.6540   -0.8360 Cl        1 OAG201      0.0000 
      5 C9         28.4380   13.2200   -0.7830 C.ar      1 OAG201      0.0000 
      6 C1'        32.4270   13.6930    1.0510 C.ar      1 OAG201      0.0000 
      7 N1'        28.4380   12.5850   -4.2970 N.ar      1 OAG201      0.0000 
      8 C10        29.7420   13.6660   -0.5710 C.ar      1 OAG201      0.0000 
      9 C11        33.5280   13.0010    1.5190 C.ar      1 OAG201      0.0000 
     10 C12        34.9680   14.6950    0.4620 C.ar      1 OAG201      0.0000 
     11 C2'        27.1410   12.1850   -4.4820 C.ar      1 OAG201      0.0000 
     12 N2'        26.7090   11.8640   -5.7160 N.pl3     1 OAG201      0.0000 
     13 C3'        34.7040   13.6410    1.2510 C.ar      1 OAG201      0.0000 
     14 N3'        26.2680   12.0320   -3.4790 N.ar      1 OAG201      0.0000 
     15 C4'        26.7170   12.3420   -2.2300 C.ar      1 OAG201      0.0000 
     16 N4'        25.7880   12.1880   -1.2800 N.pl3     1 OAG201      0.0000 
     17 C4A        27.9900   12.8720   -2.0440 C.ar      1 OAG201      0.0000 
     18 C5'        33.8790   15.3230    0.0420 C.ar      1 OAG201      0.0000 
     19 C6'        32.5800   14.8720    0.2970 C.ar      1 OAG201      0.0000 
     20 C7'        30.5860   13.7620   -1.6700 C.ar      1 OAG201      0.0000 
     21 N8'        30.1680   13.3910   -2.8780 N.ar      1 OAG201      0.0000 
     22 C8A        28.9110   12.9330   -3.0590 C.ar      1 OAG201      0.0000 
     23 H          30.2850   15.0618    0.9647 H         1 OAG201      0.0000 
     24 H          29.2064   13.7633    1.5039 H         1 OAG201      0.0000 
     25 H          31.0558   12.3303    1.7932 H         1 OAG201      0.0000 
     26 H          27.7921   13.1493    0.0282 H         1 OAG201      0.0000 
     27 H          35.9012   14.9725    0.2196 H         1 OAG201      0.0000 
     28 H          27.3749   11.9643   -6.4553 H         1 OAG201      0.0000 
     29 H          25.7607   11.5539   -5.7834 H         1 OAG201      0.0000 
     30 H          35.5877   13.2110    1.7789 H         1 OAG201      0.0000 
     31 H          25.1081   11.4727   -1.4413 H         1 OAG201      0.0000 
     32 H          25.8568   12.8020   -0.4937 H         1 OAG201      0.0000 
     33 H          31.7740   15.3734   -0.0471 H         1 OAG201      0.0000 
     34 H          31.5495   14.1307   -1.5208 H         1 OAG201      0.0000 
@<TRIPOS>BOND
     1    2    1 1    
     2    8    1 1    
     3   23    1 1    
     4   24    1 1    
     5    6    2 1    
     6   25    2 1    
     7    9    3 1    
     8   18    4 1    
     9    8    5 ar   
    10   17    5 ar   
    11   26    5 1    
    12    9    6 ar   
    13   19    6 ar   
    14   11    7 ar   
    15   22    7 ar   
    16   20    8 ar   
    17   13    9 ar   
    18   13   10 ar   
    19   18   10 ar   
    20   27   10 1    
    21   12   11 1    
    22   14   11 ar   
    23   28   12 1    
    24   29   12 1    
    25   30   13 1    
    26   15   14 ar   
    27   16   15 1    
    28   17   15 ar   
    29   31   16 1    
    30   32   16 1    
    31   22   17 ar   
    32   19   18 ar   
    33   33   19 1    
    34   21   20 ar   
    35   34   20 1    
    36   22   21 ar   
@<TRIPOS>SUBSTRUCTURE
     1 OAG201      1 GROUP   
@<TRIPOS>SET

