#    Name: 1hyg_NAP_2_INTS_M
#    Modification time : Tue Mar 25 06:32:50 2014

@<TRIPOS>MOLECULE
1hyg_NAP_2_INTS_M
   65     0     9     0     0
SMALL
NO_CHARGES


@<TRIPOS>ATOM
      1 CA         63.9035   26.1495   48.3295 C.3       3 GLC5        0.0000 
      2 CA         64.0900   27.7940   49.4610 C.3       9 GLL5        0.0000 
      3 CA         63.7170   24.5050   47.1980 C.3       6 GLP5        0.0000 
      4 N          62.5365   29.7255   51.8685 N.am      2 SEC2        0.0000 
      5 N          62.9360   29.6540   50.5120 N.am      8 SEL2        0.0000 
      6 N          62.1370   29.7970   53.2250 N.am      5 SEP2        0.0000 
      7 N          59.8250   29.7035   49.3285 N.am      2 SEC2        0.0000 
      8 N          60.8950   29.0930   48.2000 N.am      8 SEL2        0.0000 
      9 N          58.7550   30.3140   50.4570 N.am      5 SEP2        0.0000 
     10 CA         61.3405   29.9720   50.9305 C.3       3 GLC5        0.0000 
     11 CA         62.5390   30.8430   49.8080 C.3       9 GLL5        0.0000 
     12 CA         60.1420   29.1010   52.0530 C.3       6 GLP5        0.0000 
     13 CA         61.2540   35.1480   49.2195 C.3       3 GLC5        0.0000 
     14 CA         61.2500   34.9380   50.9640 C.3       9 GLL5        0.0000 
     15 CA         61.2580   35.3580   47.4750 C.3       6 GLP5        0.0000 
     16 CA         60.5955   34.1310   52.4850 C.3       3 GLC5        0.0000 
     17 CA         59.9410   33.3240   54.0060 C.3       6 GLP5        0.0000 
     18 CA         59.3480   36.0955   51.2825 C.3       3 GLC5        0.0000 
     19 CA         57.4460   37.2530   51.6010 C.3       6 GLP5        0.0000 
     20 CA         62.0220   34.3115   49.0695 C.3       3 GLC5        0.0000 
     21 CA         62.7860   33.2650   50.6640 C.3       9 GLL5        0.0000 
     22 N          64.1130   21.5125   49.6730 N.am      2 SEC2        0.0000 
     23 N          65.2310   22.5820   50.1430 N.am      8 SEL2        0.0000 
     24 N          62.9950   20.4430   49.2030 N.am      5 SEP2        0.0000 
     25 O          61.3445   25.6290   53.7490 O.2       1 ALC1        0.0000 
     26 O          61.6940   24.7420   54.8900 O.2       7 ALL1        0.0000 
     27 O          60.9950   26.5160   52.6080 O.2       4 ALP1        0.0000 
     28 O          60.8265   23.4645   57.7045 O.2       1 ALC1        0.0000 
     29 O          62.3860   23.7940   57.2870 O.2       7 ALL1        0.0000 
     30 O          59.2670   23.1350   58.1220 O.2       4 ALP1        0.0000 
     31 CA         60.4675   21.4755   55.7735 C.3       3 GLC5        0.0000 
     32 CA         62.5270   21.7220   55.9580 C.3       9 GLL5        0.0000 
     33 CA         58.4080   21.2290   55.5890 C.3       6 GLP5        0.0000 
     34 CA         67.7380   19.5120   57.5270 C.3       3 GLC5        0.0000 
     35 CA         65.6010   19.7020   57.1250 C.3       9 GLL5        0.0000 
     36 CA         69.8750   19.3220   57.9290 C.3       6 GLP5        0.0000 
     37 N          62.8980   29.3825   45.1610 N.am      2 SEC2        0.0000 
     38 N          63.3380   30.7230   45.3570 N.am      8 SEL2        0.0000 
     39 N          62.4580   28.0420   44.9650 N.am      5 SEP2        0.0000 
     40 N          60.5595   33.1095   45.0035 N.am      2 SEC2        0.0000 
     41 N          61.6960   32.6000   45.5500 N.am      8 SEL2        0.0000 
     42 N          59.4230   33.6190   44.4570 N.am      5 SEP2        0.0000 
     43 N          63.2700   34.3170   47.1370 N.am      2 SEC2        0.0000 
     44 N          63.9170   32.8050   46.6160 N.am      8 SEL2        0.0000 
     45 N          62.6230   35.8290   47.6580 N.am      5 SEP2        0.0000 
     46 CA         60.7150   28.2037   48.4400 C.3       3 GLC5        0.0000 
     47 CA         62.3160   29.0730   48.3090 C.3       9 GLL5        0.0000 
     48 CA         58.8790   27.6040   47.9230 C.3       6 GLP5        0.0000 
     49 CA         61.3465   28.9522   50.5050 C.3       3 GLC5        0.0000 
     50 CA         63.0330   33.8932   52.9284 C.3       3 GLC5        0.0000 
     51 CA         63.8420   34.0350   51.0950 C.3       9 GLL5        0.0000 
     52 CA         62.8300   33.8000   54.8790 C.3       6 GLP5        0.0000 
     53 CA         62.9555   21.0480   52.7250 C.3       3 GLC5        0.0000 
     54 CA         62.7700   22.7570   53.8320 C.3       9 GLL5        0.0000 
     55 CA         62.4760   19.4330   52.0000 C.3       6 GLP5        0.0000 
     56 CA         61.4460   24.6107   56.4270 C.3       3 GLC5        0.0000 
     57 CA         62.8320   23.8720   54.8860 C.3       9 GLL5        0.0000 
     58 CA         59.9520   25.7000   57.3020 C.3       6 GLP5        0.0000 
     59 CA         62.6702   17.9383   56.2335 C.3       3 GLC5        0.0000 
     60 CA         62.7470   19.7390   57.4140 C.3       9 GLL5        0.0000 
     61 CA         62.1910   16.6340   54.7190 C.3       6 GLP5        0.0000 
     62 CA         65.0020   18.2215   56.1480 C.3       3 GLC5        0.0000 
     63 CA         63.5520   18.7460   58.0820 C.3       9 GLL5        0.0000 
     64 CA         65.7490   17.6820   54.3050 C.3       6 GLP5        0.0000 
     65 CA         65.4862   18.9337   55.5517 C.3       3 GLC5        0.0000 
@<TRIPOS>BOND
@<TRIPOS>SUBSTRUCTURE
     1 ALC1       25 GROUP        1 X    ALC  0     ROOT ALC X 1
     2 SEC2        4 GROUP        1 X    SEC  0     **** SEC X 2
     3 GLC5        1 GROUP        1 X    GLC  0     **** GLC X 6
     4 ALP1       27 GROUP        1 Y    ALP  0     ROOT ALP Y 8
     5 SEP2        6 GROUP        1 Y    SEP  0     **** SEP Y 9
     6 GLP5        3 GROUP        1 Y    GLP  0     **** GLP Y 13
     7 ALL1       26 GROUP        1 Z    ALL  0     ROOT ALL Z 15
     8 SEL2        5 GROUP        1 Z    SEL  0     **** SEL Z 16
     9 GLL5        2 GROUP        1 Z    GLL  0     **** GLL Z 20
@<TRIPOS>SET

