#    Name: 1hyg_NAP_2_ligand
#    Modification time : Tue Mar 25 06:32:50 2014

@<TRIPOS>MOLECULE
1hyg_NAP_2_ligand
   73    77     1     0     0
SMALL
NO_CHARGES


@<TRIPOS>ATOM
      1 PA         65.8960   26.4550   50.8490 P.3       1 NAP901      0.0000 
      2 O1A        66.0890   26.1750   52.3100 O.co2     1 NAP901      0.0000 
      3 O2A        66.9860   27.0550   50.0880 O.co2     1 NAP901      0.0000 
      4 O5B        64.5260   27.3270   50.7380 O.3       1 NAP901      0.0000 
      5 C5B        64.0900   27.7940   49.4610 C.3       1 NAP901      0.0000 
      6 C4B        62.7860   28.5340   49.6050 C.3       1 NAP901      0.0000 
      7 O4B        62.9360   29.6540   50.5120 O.3       1 NAP901      0.0000 
      8 C3B        62.3160   29.0730   48.3090 C.3       1 NAP901      0.0000 
      9 O3B        60.8950   29.0930   48.2000 O.3       1 NAP901      0.0000 
     10 C2B        62.8240   30.4830   48.3660 C.3       1 NAP901      0.0000 
     11 O2B        62.1550   31.4100   47.4980 O.3       1 NAP901      0.0000 
     12 C1B        62.5390   30.8430   49.8080 C.3       1 NAP901      0.0000 
     13 N9A        63.3210   32.0140   50.3350 N.pl3     1 NAP901      0.0000 
     14 C8A        64.6920   32.1260   50.6020 C.2       1 NAP901      0.0000 
     15 N7A        65.0300   33.3140   51.0540 N.2       1 NAP901      0.0000 
     16 C5A        63.8420   34.0350   51.0950 C.ar      1 NAP901      0.0000 
     17 C6A        63.5300   35.3810   51.4880 C.ar      1 NAP901      0.0000 
     18 N6A        64.4670   36.2250   51.9220 N.pl3     1 NAP901      0.0000 
     19 N1A        62.2120   35.7930   51.4060 N.ar      1 NAP901      0.0000 
     20 C2A        61.2500   34.9380   50.9640 C.ar      1 NAP901      0.0000 
     21 N3A        61.4540   33.6610   50.5750 N.ar      1 NAP901      0.0000 
     22 C4A        62.7860   33.2650   50.6640 C.ar      1 NAP901      0.0000 
     23 O3         65.3260   25.0600   50.1790 O.3       1 NAP901      0.0000 
     24 PN         64.5110   23.7360   50.6920 P.3       1 NAP901      0.0000 
     25 O1N        65.2310   22.5820   50.1430 O.co2     1 NAP901      0.0000 
     26 O2N        63.0670   23.9510   50.2490 O.co2     1 NAP901      0.0000 
     27 O5D        64.4340   23.7630   52.2980 O.3       1 NAP901      0.0000 
     28 C5D        64.1000   22.5690   53.0680 C.3       1 NAP901      0.0000 
     29 C4D        62.7700   22.7570   53.8320 C.3       1 NAP901      0.0000 
     30 O4D        62.4280   21.5550   54.5430 O.3       1 NAP901      0.0000 
     31 C3D        62.8320   23.8720   54.8860 C.3       1 NAP901      0.0000 
     32 O3D        61.6940   24.7420   54.8900 O.3       1 NAP901      0.0000 
     33 C2D        63.0480   23.1710   56.2180 C.3       1 NAP901      0.0000 
     34 O2D        62.3860   23.7940   57.2870 O.3       1 NAP901      0.0000 
     35 C1D        62.5270   21.7220   55.9580 C.3       1 NAP901      0.0000 
     36 N1N        63.4290   20.6030   56.6060 N.pl3     1 NAP901      0.0000 
     37 C2N        62.7470   19.7390   57.4140 C.ar      1 NAP901      0.0000 
     38 C3N        63.5520   18.7460   58.0820 C.ar      1 NAP901      0.0000 
     39 C7N        62.9460   17.7180   58.9300 C.2       1 NAP901      0.0000 
     40 O7N        63.6200   16.8660   59.5110 O.2       1 NAP901      0.0000 
     41 N7N        61.6140   17.6630   59.1140 N.am      1 NAP901      0.0000 
     42 C4N        64.9580   18.7760   57.9000 C.ar      1 NAP901      0.0000 
     43 C5N        65.6010   19.7020   57.1250 C.ar      1 NAP901      0.0000 
     44 C6N        64.8460   20.6690   56.4720 C.ar      1 NAP901      0.0000 
     45 P2B        62.8460   31.8970   46.1380 P.3       1 NAP901      0.0000 
     46 O1X        63.3380   30.7230   45.3570 O.co2     1 NAP901      0.0000 
     47 O2X        61.6960   32.6000   45.5500 O.co2     1 NAP901      0.0000 
     48 O3X        63.9170   32.8050   46.6160 O.co2     1 NAP901      0.0000 
     49 H          63.9381   26.9619   48.7598 H         1 NAP901      0.0000 
     50 H          64.8247   28.4755   49.0106 H         1 NAP901      0.0000 
     51 H          62.0375   27.8519   49.9928 H         1 NAP901      0.0000 
     52 H          62.8022   28.5771   47.5158 H         1 NAP901      0.0000 
     53 H          63.8835   30.4746   48.2482 H         1 NAP901      0.0000 
     54 H          61.4904   30.9982   49.9247 H         1 NAP901      0.0000 
     55 H          65.3067   31.3620   50.4507 H         1 NAP901      0.0000 
     56 H          64.1515   37.1385   52.1789 H         1 NAP901      0.0000 
     57 H          65.4008   35.8684   51.9515 H         1 NAP901      0.0000 
     58 H          60.2411   35.3159   50.9224 H         1 NAP901      0.0000 
     59 H          64.8788   22.3429   53.8048 H         1 NAP901      0.0000 
     60 H          63.9893   21.6958   52.4155 H         1 NAP901      0.0000 
     61 H          61.9952   23.0077   53.1262 H         1 NAP901      0.0000 
     62 H          63.7611   24.4325   54.6810 H         1 NAP901      0.0000 
     63 H          64.1170   23.0786   56.3620 H         1 NAP901      0.0000 
     64 H          61.5401   21.6536   56.4171 H         1 NAP901      0.0000 
     65 H          61.7644   19.7614   57.5571 H         1 NAP901      0.0000 
     66 H          61.2863   16.9660   59.7518 H         1 NAP901      0.0000 
     67 H          61.0707   18.3241   58.5965 H         1 NAP901      0.0000 
     68 H          65.5196   18.0368   58.3969 H         1 NAP901      0.0000 
     69 H          66.6196   19.6913   57.0215 H         1 NAP901      0.0000 
     70 H          65.2692   21.3963   55.9205 H         1 NAP901      0.0000 
     71 H          60.6884   29.9088   47.6598 H         1 NAP901      0.0000 
     72 H          61.7392   25.2311   54.0189 H         1 NAP901      0.0000 
     73 H          61.4550   23.9518   56.9580 H         1 NAP901      0.0000 
@<TRIPOS>BOND
     1    2    1 ar   
     2    3    1 ar   
     3    4    1 1    
     4   23    1 1    
     5    5    4 1    
     6    6    5 1    
     7   49    5 1    
     8   50    5 1    
     9    7    6 1    
    10    8    6 1    
    11   51    6 1    
    12   12    7 1    
    13    9    8 1    
    14   10    8 1    
    15   52    8 1    
    16   71    9 1    
    17   11   10 1    
    18   12   10 1    
    19   53   10 1    
    20   45   11 1    
    21   13   12 1    
    22   54   12 1    
    23   14   13 1    
    24   22   13 1    
    25   15   14 2    
    26   55   14 1    
    27   16   15 1    
    28   17   16 ar   
    29   22   16 ar   
    30   18   17 1    
    31   19   17 ar   
    32   56   18 1    
    33   57   18 1    
    34   20   19 ar   
    35   21   20 ar   
    36   58   20 1    
    37   22   21 ar   
    38   24   23 1    
    39   25   24 ar   
    40   26   24 ar   
    41   27   24 1    
    42   28   27 1    
    43   29   28 1    
    44   59   28 1    
    45   60   28 1    
    46   30   29 1    
    47   31   29 1    
    48   61   29 1    
    49   35   30 1    
    50   32   31 1    
    51   33   31 1    
    52   62   31 1    
    53   72   32 1    
    54   34   33 1    
    55   35   33 1    
    56   63   33 1    
    57   73   34 1    
    58   36   35 1    
    59   64   35 1    
    60   37   36 ar   
    61   44   36 ar   
    62   38   37 ar   
    63   65   37 1    
    64   39   38 1    
    65   42   38 ar   
    66   40   39 2    
    67   41   39 am   
    68   66   41 1    
    69   67   41 1    
    70   43   42 ar   
    71   68   42 1    
    72   44   43 ar   
    73   69   43 1    
    74   70   44 1    
    75   46   45 ar   
    76   47   45 ar   
    77   48   45 ar   
@<TRIPOS>SUBSTRUCTURE
     1 NAP901      1 GROUP   
@<TRIPOS>SET

