#    Name: 1ah4_NAP_1_INTS_M
#    Modification time : Mon Mar 24 18:24:12 2014

@<TRIPOS>MOLECULE
1ah4_NAP_1_INTS_M
  138     0    12     0     0
SMALL
NO_CHARGES


@<TRIPOS>ATOM
      1 N          60.3220   27.6100   97.8570 N.am      2 SEC2        0.0000 
      2 N          60.5180   27.9250   96.3810 N.am     10 SEL2        0.0000 
      3 N          60.1260   27.2950   99.3330 N.am      6 SEP2        0.0000 
      4 N          62.0175   27.5545   96.2415 N.am      2 SEC2        0.0000 
      5 N          63.5170   27.1840   96.1020 N.am      6 SEP2        0.0000 
      6 N          57.0350   28.1310   94.2880 N.am      2 SEC2        0.0000 
      7 N          58.3490   28.0590   95.0380 N.am     10 SEL2        0.0000 
      8 N          55.7210   28.2030   93.5380 N.am      6 SEP2        0.0000 
      9 CA         61.7325   26.6285   93.8705 C.3       4 GLC5        0.0000 
     10 CA         59.7390   26.0810   93.0920 C.3      12 GLL5        0.0000 
     11 CA         63.7260   27.1760   94.6490 C.3       8 GLP5        0.0000 
     12 CA         58.9235   26.6475   91.3850 C.3       4 GLC5        0.0000 
     13 CA         58.1080   27.2140   89.6780 C.3       8 GLP5        0.0000 
     14 CA         61.8795   24.4360   90.3525 C.3       4 GLC5        0.0000 
     15 CA         60.0450   24.1360   91.4830 C.3      12 GLL5        0.0000 
     16 CA         63.7140   24.7360   89.2220 C.3       8 GLP5        0.0000 
     17 CA         59.0765   25.6750   90.5805 C.3       4 GLC5        0.0000 
     18 N          58.7265   20.7430   90.7345 N.am      2 SEC2        0.0000 
     19 N          58.7750   22.2200   90.8210 N.am     10 SEL2        0.0000 
     20 N          58.6780   19.2660   90.6480 N.am      6 SEP2        0.0000 
     21 CA         58.6715   23.4270   95.0995 C.3       4 GLC5        0.0000 
     22 CA         59.1260   22.7750   93.1670 C.3      12 GLL5        0.0000 
     23 CA         58.2170   24.0790   97.0320 C.3       8 GLP5        0.0000 
     24 N          54.5605   23.3095   95.0300 N.am      2 SEC2        0.0000 
     25 N          55.7990   22.5760   94.7140 N.am     10 SEL2        0.0000 
     26 N          53.3220   24.0430   95.3460 N.am      6 SEP2        0.0000 
     27 O          53.8025   21.5610   96.5900 O.2       1 ALC1        0.0000 
     28 O          54.5260   20.5190   96.2040 O.2       9 ALL1        0.0000 
     29 O          53.0790   22.6030   96.9760 O.2       5 ALP1        0.0000 
     30 CA         59.4635   20.0295   96.5005 C.3       4 GLC5        0.0000 
     31 CA         57.8280   19.2880   95.6610 C.3      12 GLL5        0.0000 
     32 CA         61.0990   20.7710   97.3400 C.3       8 GLP5        0.0000 
     33 CA         57.0095   20.0195   97.5350 C.3       4 GLC5        0.0000 
     34 CA         56.1910   20.7510   99.4090 C.3       8 GLP5        0.0000 
     35 CA         56.8235   18.9105   94.2370 C.3       4 GLC5        0.0000 
     36 CA         55.8190   18.5330   92.8130 C.3       8 GLP5        0.0000 
     37 CA         59.3955   21.0645   95.9860 C.3       4 GLC5        0.0000 
     38 CA         57.6920   21.3580   94.6320 C.3      12 GLL5        0.0000 
     39 N          61.8795   29.1115   94.3810 N.am      2 SEC2        0.0000 
     40 N          60.6350   28.7600   94.0290 N.am     10 SEL2        0.0000 
     41 N          63.1240   29.4630   94.7330 N.am      6 SEP2        0.0000 
     42 NZ         60.6655   29.3430   90.8095 N.4       3 LYC4        0.0000 
     43 NZ         59.7580   29.7710   91.9340 N.4      11 LYL4        0.0000 
     44 NZ         61.5730   28.9150   89.6850 N.4       7 LYP4        0.0000 
     45 N          60.6655   29.3430   90.8095 N.am      2 SEC2        0.0000 
     46 N          59.7580   29.7710   91.9340 N.am     10 SEL2        0.0000 
     47 N          61.5730   28.9150   89.6850 N.am      6 SEP2        0.0000 
     48 NZ         61.6285   29.8955   91.4250 N.4       3 LYC4        0.0000 
     49 NZ         61.6840   30.8760   93.1650 N.4      11 LYL4        0.0000 
     50 N          61.9820   31.4125   94.4385 N.am      2 SEC2        0.0000 
     51 N          61.6840   30.8760   93.1650 N.am     10 SEL2        0.0000 
     52 N          62.2800   31.9490   95.7120 N.am      6 SEP2        0.0000 
     53 N          59.6290   31.5780   95.6655 N.am      2 SEC2        0.0000 
     54 N          59.4400   30.9520   94.2140 N.am     10 SEL2        0.0000 
     55 N          59.8180   32.2040   97.1170 N.am      6 SEP2        0.0000 
     56 CA         59.3390   31.0105   95.6650 C.3       4 GLC5        0.0000 
     57 CA         58.0090   30.9940   94.0820 C.3      12 GLL5        0.0000 
     58 CA         60.6690   31.0270   97.2480 C.3       8 GLP5        0.0000 
     59 CA         58.0445   30.4935   96.1400 C.3       4 GLC5        0.0000 
     60 CA         58.0800   29.9930   98.1980 C.3       8 GLP5        0.0000 
     61 CA         56.4290   29.8615   94.9010 C.3       4 GLC5        0.0000 
     62 CA         54.8490   28.7290   95.7200 C.3       8 GLP5        0.0000 
     63 CA         56.2720   33.2015   94.6095 C.3       4 GLC5        0.0000 
     64 CA         57.5530   32.2420   93.3380 C.3      12 GLL5        0.0000 
     65 CA         54.9910   34.1610   95.8810 C.3       8 GLP5        0.0000 
     66 N          57.5330   31.9490   89.5360 N.am      2 SEC2        0.0000 
     67 N          57.4750   31.6580   90.9210 N.am     10 SEL2        0.0000 
     68 N          57.5910   32.2400   88.1510 N.am      6 SEP2        0.0000 
     69 CA         58.2580   35.1930   90.1875 C.3       4 GLC5        0.0000 
     70 CA         57.8170   33.9060   91.7140 C.3      12 GLL5        0.0000 
     71 CA         58.6990   36.4800   88.6610 C.3       8 GLP5        0.0000 
     72 N          55.6855   33.1410   90.1995 N.am      2 SEC2        0.0000 
     73 N          56.4580   34.0850   91.2680 N.am     10 SEL2        0.0000 
     74 N          54.9130   32.1970   89.1310 N.am      6 SEP2        0.0000 
     75 O          55.8440   35.2775   91.4780 O.2       1 ALC1        0.0000 
     76 O          56.4580   34.0850   91.2680 O.2       9 ALL1        0.0000 
     77 O          55.2300   36.4700   91.6880 O.2       5 ALP1        0.0000 
     78 CA         58.5995   34.8245   94.8900 C.3       4 GLC5        0.0000 
     79 CA         58.0850   34.4930   93.0980 C.3      12 GLL5        0.0000 
     80 CA         59.1140   35.1560   96.6820 C.3       8 GLP5        0.0000 
     81 CA         56.6325   35.0050   94.1565 C.3       4 GLC5        0.0000 
     82 CA         55.1800   35.5170   95.2150 C.3       8 GLP5        0.0000 
     83 CA         58.3140   38.1265   92.3490 C.3       4 GLC5        0.0000 
     84 CA         59.5520   36.5200   93.2210 C.3      12 GLL5        0.0000 
     85 CA         57.0760   39.7330   91.4770 C.3       8 GLP5        0.0000 
     86 N          61.6565   39.5000   91.8010 N.am      2 SEC2        0.0000 
     87 N          62.2120   39.0440   93.2480 N.am     10 SEL2        0.0000 
     88 N          61.1010   39.9560   90.3540 N.am      6 SEP2        0.0000 
     89 N          62.6330   40.2015   94.0085 N.am      2 SEC2        0.0000 
     90 N          63.0540   41.3590   94.7690 N.am      6 SEP2        0.0000 
     91 O          59.9715   40.4810   94.3540 O.2       1 ALC1        0.0000 
     92 O          60.0220   39.3550   93.6680 O.2       9 ALL1        0.0000 
     93 O          59.9210   41.6070   95.0400 O.2       5 ALP1        0.0000 
     94 O          58.7065   38.7945   94.0700 O.2       1 ALC1        0.0000 
     95 O          57.3910   38.2340   94.4720 O.2       5 ALP1        0.0000 
     96 NZ         57.6265   20.3970   90.3915 N.4       3 LYC4        0.0000 
     97 NZ         56.5750   21.5280   90.1350 N.4      11 LYL4        0.0000 
     98 NZ         57.8840   18.6860   91.5440 N.4       7 LYP4        0.0000 
     99 N          55.5435   22.0255   90.5160 N.am      2 SEC2        0.0000 
    100 N          56.5750   21.5280   90.1350 N.am     10 SEL2        0.0000 
    101 N          54.5120   22.5230   90.8970 N.am      6 SEP2        0.0000 
    102 N          56.0565   20.6475   89.0940 N.am      2 SEC2        0.0000 
    103 N          55.5380   19.7670   88.0530 N.am      6 SEP2        0.0000 
    104 N          56.6215   20.3545   90.9805 N.am      2 SEC2        0.0000 
    105 N          56.6680   19.1810   91.8260 N.am      6 SEP2        0.0000 
    106 N          57.6265   20.3970   90.3915 N.am      2 SEC2        0.0000 
    107 NZ         58.1515   24.6450   88.6170 N.4       3 LYC4        0.0000 
    108 NZ         57.4610   23.6420   89.2280 N.4      11 LYL4        0.0000 
    109 NZ         58.8420   25.6480   88.0060 N.4       7 LYP4        0.0000 
    110 N          58.1515   24.6450   88.6170 N.am      2 SEC2        0.0000 
    111 N          57.4610   23.6420   89.2280 N.am     10 SEL2        0.0000 
    112 N          58.8420   25.6480   88.0060 N.am      6 SEP2        0.0000 
    113 N          56.0145   23.8635   88.6795 N.am      2 SEC2        0.0000 
    114 N          54.5680   24.0850   88.1310 N.am      6 SEP2        0.0000 
    115 N          57.0205   20.6220   88.3130 N.am      2 SEC2        0.0000 
    116 N          58.5030   21.4770   88.5730 N.am     10 SEL2        0.0000 
    117 N          58.5905   20.3715   89.6105 N.am      2 SEC2        0.0000 
    118 CA         61.7152   24.8565   93.9772 C.3       4 GLC5        0.0000 
    119 CA         60.3920   24.7390   92.8210 C.3      12 GLL5        0.0000 
    120 CA         63.3650   24.3030   94.9980 C.3       8 GLP5        0.0000 
    121 CA         57.6292   22.7430   95.9420 C.3       4 GLC5        0.0000 
    122 CA         56.1418   20.8522   97.4273 C.3       4 GLC5        0.0000 
    123 CA         56.3910   21.4560   95.0720 C.3      12 GLL5        0.0000 
    124 CA         56.3556   19.8444   93.9259 C.3       4 GLC5        0.0000 
    125 CA         55.7940   20.4510   95.8190 C.3      12 GLL5        0.0000 
    126 CA         58.9248   33.0888   90.3227 C.3       4 GLC5        0.0000 
    127 CA         58.0980   32.4390   91.9350 C.3      12 GLL5        0.0000 
    128 CA         59.8920   33.0050   88.8210 C.3       8 GLP5        0.0000 
    129 CA         57.4778   30.2942   92.1587 C.3       4 GLC5        0.0000 
    130 CA         57.0160   28.5600   91.4950 C.3       8 GLP5        0.0000 
    131 CA         56.0131   32.4376   91.8026 C.3       4 GLC5        0.0000 
    132 CA         54.2050   31.7520   91.4300 C.3       8 GLP5        0.0000 
    133 CA         59.6520   35.9810   94.9525 C.3       4 GLC5        0.0000 
    134 CA         63.8475   35.1968   93.4673 C.3       4 GLC5        0.0000 
    135 CA         61.9430   36.2680   93.1460 C.3      12 GLL5        0.0000 
    136 CA         65.8080   34.8190   93.8070 C.3       8 GLP5        0.0000 
    137 CA         60.1572   34.8738   94.9027 C.3       4 GLC5        0.0000 
    138 CA         61.8310   34.8810   93.1090 C.3      12 GLL5        0.0000 
@<TRIPOS>BOND
@<TRIPOS>SUBSTRUCTURE
     1 ALC1       27 GROUP        1 X    ALC  0     ROOT ALC X 1
     2 SEC2        1 GROUP        1 X    SEC  0     **** SEC X 2
     3 LYC4       42 GROUP        1 X    LYC  0     **** LYC X 4
     4 GLC5        9 GROUP        1 X    GLC  0     **** GLC X 6
     5 ALP1       29 GROUP        1 Y    ALP  0     ROOT ALP Y 8
     6 SEP2        3 GROUP        1 Y    SEP  0     **** SEP Y 9
     7 LYP4       44 GROUP        1 Y    LYP  0     **** LYP Y 11
     8 GLP5       11 GROUP        1 Y    GLP  0     **** GLP Y 13
     9 ALL1       28 GROUP        1 Z    ALL  0     ROOT ALL Z 15
    10 SEL2        2 GROUP        1 Z    SEL  0     **** SEL Z 16
    11 LYL4       43 GROUP        1 Z    LYL  0     **** LYL Z 18
    12 GLL5       10 GROUP        1 Z    GLL  0     **** GLL Z 20
@<TRIPOS>SET

