#    Name: 1ah4_NAP_1_ligand
#    Modification time : Mon Mar 24 18:24:12 2014

@<TRIPOS>MOLECULE
1ah4_NAP_1_ligand
   73    77     1     0     0
SMALL
NO_CHARGES


@<TRIPOS>ATOM
      1 PA         59.8230   27.8540   95.0690 P.3       1 NAP318      0.0000 
      2 O1A        60.5180   27.9250   96.3810 O.co2     1 NAP318      0.0000 
      3 O2A        58.3490   28.0590   95.0380 O.co2     1 NAP318      0.0000 
      4 O5B        60.1380   26.4240   94.4260 O.3       1 NAP318      0.0000 
      5 C5B        59.7390   26.0810   93.0920 C.3       1 NAP318      0.0000 
      6 C4B        60.3920   24.7390   92.8210 C.3       1 NAP318      0.0000 
      7 O4B        59.9470   23.7790   93.7960 O.3       1 NAP318      0.0000 
      8 C3B        60.0450   24.1360   91.4830 C.3       1 NAP318      0.0000 
      9 O3B        61.1240   23.3230   91.0150 O.3       1 NAP318      0.0000 
     10 C2B        58.8250   23.2860   91.7740 C.3       1 NAP318      0.0000 
     11 O2B        58.7750   22.2200   90.8210 O.3       1 NAP318      0.0000 
     12 C1B        59.1260   22.7750   93.1670 C.3       1 NAP318      0.0000 
     13 N9A        57.8990   22.4840   93.9540 N.pl3     1 NAP318      0.0000 
     14 C8A        56.7650   23.2040   94.0230 C.2       1 NAP318      0.0000 
     15 N7A        55.7990   22.5760   94.7140 N.2       1 NAP318      0.0000 
     16 C5A        56.3910   21.4560   95.0720 C.ar      1 NAP318      0.0000 
     17 C6A        55.7940   20.4510   95.8190 C.ar      1 NAP318      0.0000 
     18 N6A        54.5260   20.5190   96.2040 N.pl3     1 NAP318      0.0000 
     19 N1A        56.5630   19.3780   96.0840 N.ar      1 NAP318      0.0000 
     20 C2A        57.8280   19.2880   95.6610 C.ar      1 NAP318      0.0000 
     21 N3A        58.3960   20.2590   94.9460 N.ar      1 NAP318      0.0000 
     22 C4A        57.6920   21.3580   94.6320 C.ar      1 NAP318      0.0000 
     23 O3         60.6350   28.7600   94.0290 O.3       1 NAP318      0.0000 
     24 PN         60.4160   30.1180   93.2190 P.3       1 NAP318      0.0000 
     25 O1N        59.7580   29.7710   91.9340 O.co2     1 NAP318      0.0000 
     26 O2N        61.6840   30.8760   93.1650 O.co2     1 NAP318      0.0000 
     27 O5D        59.4400   30.9520   94.2140 O.3       1 NAP318      0.0000 
     28 C5D        58.0090   30.9940   94.0820 C.3       1 NAP318      0.0000 
     29 C4D        57.5530   32.2420   93.3380 C.3       1 NAP318      0.0000 
     30 O4D        58.0610   33.3900   94.0260 O.3       1 NAP318      0.0000 
     31 C3D        58.0980   32.4390   91.9350 C.3       1 NAP318      0.0000 
     32 O3D        57.4750   31.6580   90.9210 O.3       1 NAP318      0.0000 
     33 C2D        57.8170   33.9060   91.7140 C.3       1 NAP318      0.0000 
     34 O2D        56.4580   34.0850   91.2680 O.3       1 NAP318      0.0000 
     35 C1D        58.0850   34.4930   93.0980 C.3       1 NAP318      0.0000 
     36 N1N        59.4280   35.1160   93.1790 N.pl3     1 NAP318      0.0000 
     37 C2N        59.5520   36.5200   93.2210 C.ar      1 NAP318      0.0000 
     38 C3N        60.8280   37.0920   93.2250 C.ar      1 NAP318      0.0000 
     39 C7N        61.0730   38.5940   93.3920 C.2       1 NAP318      0.0000 
     40 O7N        62.2120   39.0440   93.2480 O.2       1 NAP318      0.0000 
     41 N7N        60.0220   39.3550   93.6680 N.am      1 NAP318      0.0000 
     42 C4N        61.9430   36.2680   93.1460 C.ar      1 NAP318      0.0000 
     43 C5N        61.8310   34.8810   93.1090 C.ar      1 NAP318      0.0000 
     44 C6N        60.5700   34.3020   93.1380 C.ar      1 NAP318      0.0000 
     45 P2B        57.7470   22.2380   89.5900 P.3       1 NAP318      0.0000 
     46 O1X        56.5750   21.5280   90.1350 O.co2     1 NAP318      0.0000 
     47 O2X        57.4610   23.6420   89.2280 O.co2     1 NAP318      0.0000 
     48 O3X        58.5030   21.4770   88.5730 O.co2     1 NAP318      0.0000 
     49 H          60.1023   26.7912   92.3680 H         1 NAP318      0.0000 
     50 H          58.6712   25.9655   93.0083 H         1 NAP318      0.0000 
     51 H          61.4659   24.8426   92.8830 H         1 NAP318      0.0000 
     52 H          59.7742   24.9075   90.8173 H         1 NAP318      0.0000 
     53 H          57.9827   23.8965   91.7949 H         1 NAP318      0.0000 
     54 H          59.7107   21.8572   93.0523 H         1 NAP318      0.0000 
     55 H          56.6548   24.1006   93.6087 H         1 NAP318      0.0000 
     56 H          53.9373   19.7640   95.9151 H         1 NAP318      0.0000 
     57 H          54.2736   21.3191   96.7482 H         1 NAP318      0.0000 
     58 H          58.3902   18.4248   95.9004 H         1 NAP318      0.0000 
     59 H          57.5162   30.9897   95.0686 H         1 NAP318      0.0000 
     60 H          57.6324   30.1158   93.5315 H         1 NAP318      0.0000 
     61 H          56.4846   32.2900   93.3060 H         1 NAP318      0.0000 
     62 H          59.1632   32.3278   91.9755 H         1 NAP318      0.0000 
     63 H          58.5422   34.2837   91.0416 H         1 NAP318      0.0000 
     64 H          57.3266   35.1974   93.3301 H         1 NAP318      0.0000 
     65 H          58.7196   37.1054   93.2480 H         1 NAP318      0.0000 
     66 H          59.1480   38.8792   93.7664 H         1 NAP318      0.0000 
     67 H          60.1989   40.3356   93.7527 H         1 NAP318      0.0000 
     68 H          62.8908   36.6987   93.1134 H         1 NAP318      0.0000 
     69 H          62.6695   34.2969   93.0610 H         1 NAP318      0.0000 
     70 H          60.4660   33.2815   93.1297 H         1 NAP318      0.0000 
     71 H          60.6866   22.5165   90.6172 H         1 NAP318      0.0000 
     72 H          58.0095   30.8138   90.8797 H         1 NAP318      0.0000 
     73 H          56.2141   35.0136   91.5478 H         1 NAP318      0.0000 
@<TRIPOS>BOND
     1    2    1 ar   
     2    3    1 ar   
     3    4    1 1    
     4   23    1 1    
     5    5    4 1    
     6    6    5 1    
     7   49    5 1    
     8   50    5 1    
     9    7    6 1    
    10    8    6 1    
    11   51    6 1    
    12   12    7 1    
    13    9    8 1    
    14   10    8 1    
    15   52    8 1    
    16   71    9 1    
    17   11   10 1    
    18   12   10 1    
    19   53   10 1    
    20   45   11 1    
    21   13   12 1    
    22   54   12 1    
    23   14   13 1    
    24   22   13 1    
    25   15   14 2    
    26   55   14 1    
    27   16   15 1    
    28   17   16 ar   
    29   22   16 ar   
    30   18   17 1    
    31   19   17 ar   
    32   56   18 1    
    33   57   18 1    
    34   20   19 ar   
    35   21   20 ar   
    36   58   20 1    
    37   22   21 ar   
    38   24   23 1    
    39   25   24 ar   
    40   26   24 ar   
    41   27   24 1    
    42   28   27 1    
    43   29   28 1    
    44   59   28 1    
    45   60   28 1    
    46   30   29 1    
    47   31   29 1    
    48   61   29 1    
    49   35   30 1    
    50   32   31 1    
    51   33   31 1    
    52   62   31 1    
    53   72   32 1    
    54   34   33 1    
    55   35   33 1    
    56   63   33 1    
    57   73   34 1    
    58   36   35 1    
    59   64   35 1    
    60   37   36 ar   
    61   44   36 ar   
    62   38   37 ar   
    63   65   37 1    
    64   39   38 1    
    65   42   38 ar   
    66   40   39 2    
    67   41   39 am   
    68   66   41 1    
    69   67   41 1    
    70   43   42 ar   
    71   68   42 1    
    72   44   43 ar   
    73   69   43 1    
    74   70   44 1    
    75   46   45 ar   
    76   47   45 ar   
    77   48   45 ar   
@<TRIPOS>SUBSTRUCTURE
     1 NAP318      1 GROUP   
@<TRIPOS>SET

