#    Name: 2vti_LZ3_1_INTS_M
#    Modification time : Tue Mar 25 02:54:04 2014

@<TRIPOS>MOLECULE
2vti_LZ3_1_INTS_M
   57     0     9     0     0
SMALL
NO_CHARGES


@<TRIPOS>ATOM
      1 O          30.3485    5.4915   65.5265 O.2       1 ALC1        0.0000 
      2 O          29.3650    6.3440   64.8890 O.2       7 ALL1        0.0000 
      3 O          31.3320    4.6390   66.1640 O.2       4 ALP1        0.0000 
      4 CA         23.6615    6.8770   62.5815 C.3       3 GLC5        0.0000 
      5 CA         24.5010    5.0540   61.7950 C.3       9 GLL5        0.0000 
      6 CA         22.8220    8.7000   63.3680 C.3       6 GLP5        0.0000 
      7 N          29.0540    3.0970   65.3465 N.am      2 SEC2        0.0000 
      8 N          27.9260    4.0410   64.6890 N.am      8 SEL2        0.0000 
      9 N          30.1820    2.1530   66.0040 N.am      5 SEP2        0.0000 
     10 O          26.8785    1.7835   64.8315 O.2       1 ALC1        0.0000 
     11 O          27.1080    3.0460   64.2680 O.2       7 ALL1        0.0000 
     12 O          26.6490    0.5210   65.3950 O.2       4 ALP1        0.0000 
     13 N          34.2820    8.9870   62.6590 N.am      2 SEC2        0.0000 
     14 N          34.3260   10.2290   63.5230 N.am      8 SEL2        0.0000 
     15 N          34.2380    7.7450   61.7950 N.am      5 SEP2        0.0000 
     16 N          35.3700   11.5050   66.2075 N.am      2 SEC2        0.0000 
     17 N          33.8050   11.0330   65.7970 N.am      8 SEL2        0.0000 
     18 N          36.9350   11.9770   66.6180 N.am      5 SEP2        0.0000 
     19 O          32.6230   12.5440   62.4960 O.2       1 ALC1        0.0000 
     20 O          32.6660   12.0040   63.8450 O.2       7 ALL1        0.0000 
     21 O          32.5800   13.0840   61.1470 O.2       4 ALP1        0.0000 
     22 CA         25.0390    6.6065   64.1308 C.3       3 GLC5        0.0000 
     23 CA         26.3690    4.8860   63.3020 C.3       9 GLL5        0.0000 
     24 CA         24.1160    7.9460   65.3770 C.3       6 GLP5        0.0000 
     25 CA         25.3480    4.6010   64.7037 C.3       3 GLC5        0.0000 
     26 CA         25.5550    5.6480   62.4670 C.3       9 GLL5        0.0000 
     27 CA         24.7340    3.9350   66.5230 C.3       6 GLP5        0.0000 
     28 CA         27.4615    4.4795   62.2347 C.3       3 GLC5        0.0000 
     29 CA         28.9610    3.6920   61.5850 C.3       6 GLP5        0.0000 
     30 CA         25.1770    3.5768   64.7965 C.3       3 GLC5        0.0000 
     31 CA         25.0950    2.9240   62.7250 C.3       9 GLL5        0.0000 
     32 CA         26.1225    1.5063   62.6240 C.3       3 GLC5        0.0000 
     33 CA         26.1450    3.5130   63.4150 C.3       9 GLL5        0.0000 
     34 CA         26.6250   -0.2060   62.1780 C.3       6 GLP5        0.0000 
     35 CA         27.2905    3.4552   62.3275 C.3       3 GLC5        0.0000 
     36 CA         25.6756    3.4815   60.4995 C.3       3 GLC5        0.0000 
     37 CA         26.6110    3.3140   58.7060 C.3       6 GLP5        0.0000 
     38 CA         29.5920    9.5963   64.5935 C.3       3 GLC5        0.0000 
     39 CA         30.4330    8.1040   63.6190 C.3       9 GLL5        0.0000 
     40 CA         28.2880   10.5820   65.6160 C.3       6 GLP5        0.0000 
     41 CA         31.7425    8.5053   61.7950 C.3       3 GLC5        0.0000 
     42 CA         32.5890    8.4000   60.0190 C.3       6 GLP5        0.0000 
     43 CA         30.4705    6.6445   62.5213 C.3       3 GLC5        0.0000 
     44 CA         30.5700    5.5490   60.8320 C.3       6 GLP5        0.0000 
     45 CA         33.3780    8.0470   63.9920 C.3       3 GLC5        0.0000 
     46 CA         31.3590    9.1170   63.5230 C.3       9 GLL5        0.0000 
     47 CA         34.9990    6.8210   63.9170 C.3       6 GLP5        0.0000 
     48 CA         30.1902    9.8283   65.4090 C.3       3 GLC5        0.0000 
     49 CA         32.1550    9.4290   64.6110 C.3       9 GLL5        0.0000 
     50 CA         32.7687    6.5773   66.4440 C.3       3 GLC5        0.0000 
     51 CA         32.0300    8.7200   65.7930 C.3       9 GLL5        0.0000 
     52 CA         33.9710    4.9460   67.0490 C.3       6 GLP5        0.0000 
     53 CA         33.2828    7.5148   64.8780 C.3       3 GLC5        0.0000 
     54 CA         31.1030    7.6970   65.8850 C.3       9 GLL5        0.0000 
     55 CA         29.4970    9.0593   65.4797 C.3       3 GLC5        0.0000 
     56 CA         24.3284    2.0985   63.6942 C.3       3 GLC5        0.0000 
     57 CA         23.2430    0.7860   64.5180 C.3       6 GLP5        0.0000 
@<TRIPOS>BOND
@<TRIPOS>SUBSTRUCTURE
     1 ALC1        1 GROUP        1 X    ALC  0     ROOT ALC X 1
     2 SEC2        7 GROUP        1 X    SEC  0     **** SEC X 2
     3 GLC5        4 GROUP        1 X    GLC  0     **** GLC X 6
     4 ALP1        3 GROUP        1 Y    ALP  0     ROOT ALP Y 8
     5 SEP2        9 GROUP        1 Y    SEP  0     **** SEP Y 9
     6 GLP5        6 GROUP        1 Y    GLP  0     **** GLP Y 13
     7 ALL1        2 GROUP        1 Z    ALL  0     ROOT ALL Z 15
     8 SEL2        8 GROUP        1 Z    SEL  0     **** SEL Z 16
     9 GLL5        5 GROUP        1 Z    GLL  0     **** GLL Z 20
@<TRIPOS>SET

