#    Name: 2vti_LZ3_1_ligand
#    Modification time : Tue Mar 25 02:54:05 2014

@<TRIPOS>MOLECULE
2vti_LZ3_1_ligand
   34    36     1     0     0
SMALL
NO_CHARGES


@<TRIPOS>ATOM
      1 N1         29.3650    6.3440   64.8890 N.am      1 LZ31299     0.0000 
      2 C2         28.1760    6.4260   64.3010 C.2       1 LZ31299     0.0000 
      3 C3         27.4700    5.1580   64.1070 C.2       1 LZ31299     0.0000 
      4 C4         25.5550    5.6480   62.4670 C.ar      1 LZ31299     0.0000 
      5 C5         24.5010    5.0540   61.7950 C.ar      1 LZ31299     0.0000 
      6 C6         24.2700    3.6940   61.9270 C.ar      1 LZ31299     0.0000 
      7 C7         25.0950    2.9240   62.7250 C.ar      1 LZ31299     0.0000 
      8 C9         26.3690    4.8860   63.3020 C.ar      1 LZ31299     0.0000 
      9 O11        27.7090    7.4980   63.8860 O.2       1 LZ31299     0.0000 
     10 N12        27.9260    4.0410   64.6890 N.2       1 LZ31299     0.0000 
     11 N17        27.1080    3.0460   64.2680 N.pl3     1 LZ31299     0.0000 
     12 C20        30.4330    8.1040   63.6190 C.ar      1 LZ31299     0.0000 
     13 C21        31.3590    9.1170   63.5230 C.ar      1 LZ31299     0.0000 
     14 C22        32.1550    9.4290   64.6110 C.ar      1 LZ31299     0.0000 
     15 C23        32.0300    8.7200   65.7930 C.ar      1 LZ31299     0.0000 
     16 C24        31.1030    7.6970   65.8850 C.ar      1 LZ31299     0.0000 
     17 S27        33.3630   10.6960   64.4650 S.o2      1 LZ31299     0.0000 
     18 O28        34.3260   10.2290   63.5230 O.2       1 LZ31299     0.0000 
     19 O29        33.8050   11.0330   65.7970 O.2       1 LZ31299     0.0000 
     20 N30        32.6660   12.0040   63.8450 N.pl3     1 LZ31299     0.0000 
     21 C8         30.3090    7.3760   64.8020 C.ar      1 LZ31299     0.0000 
     22 C16        26.1450    3.5130   63.4150 C.ar      1 LZ31299     0.0000 
     23 H          29.6349    5.4926   65.4429 H         1 LZ31299     0.0000 
     24 H          25.7411    6.6541   62.3523 H         1 LZ31299     0.0000 
     25 H          23.8860    5.6237   61.1948 H         1 LZ31299     0.0000 
     26 H          23.4802    3.2569   61.4279 H         1 LZ31299     0.0000 
     27 H          24.9319    1.9093   62.8094 H         1 LZ31299     0.0000 
     28 H          27.1898    2.1057   64.5369 H         1 LZ31299     0.0000 
     29 H          29.8244    7.8757   62.8178 H         1 LZ31299     0.0000 
     30 H          31.4624    9.6449   62.6433 H         1 LZ31299     0.0000 
     31 H          32.6241    8.9528   66.5999 H         1 LZ31299     0.0000 
     32 H          31.0054    7.1713   66.7693 H         1 LZ31299     0.0000 
     33 H          31.9320   12.4110   64.3887 H         1 LZ31299     0.0000 
     34 H          33.0182   12.3135   62.9618 H         1 LZ31299     0.0000 
@<TRIPOS>BOND
     1    2    1 am   
     2   21    1 1    
     3   23    1 1    
     4    3    2 1    
     5    9    2 2    
     6    8    3 1    
     7   10    3 2    
     8    5    4 ar   
     9    8    4 ar   
    10   24    4 1    
    11    6    5 ar   
    12   25    5 1    
    13    7    6 ar   
    14   26    6 1    
    15   22    7 ar   
    16   27    7 1    
    17   22    8 ar   
    18   11   10 1    
    19   22   11 1    
    20   28   11 1    
    21   13   12 ar   
    22   21   12 ar   
    23   29   12 1    
    24   14   13 ar   
    25   30   13 1    
    26   15   14 ar   
    27   17   14 1    
    28   16   15 ar   
    29   31   15 1    
    30   21   16 ar   
    31   32   16 1    
    32   18   17 2    
    33   19   17 2    
    34   20   17 1    
    35   33   20 1    
    36   34   20 1    
@<TRIPOS>SUBSTRUCTURE
     1 LZ31299     1 GROUP   
@<TRIPOS>SET

