#    Name: 2J9F_1_CAVITY_N1_6.mol2
#    Modification time : Mon Mar 10 21:38:37 2014

@<TRIPOS>MOLECULE
2J9F_1_CAVITY_N1_6.mol2
   90     0     6     0     0
SMALL
NO_CHARGES


@<TRIPOS>ATOM
      1 CZ         38.1078   71.4169   13.7511 C.ar      4 PHE5        0.0000 
      2 CZ         37.7087   72.4454   12.7347 C.ar      4 PHE5        0.0000 
      3 OG         37.3097   73.4739   11.7183 O.2       1 SER1        0.0000 
      4 CZ         37.4992   69.3277   16.3035 C.ar      4 PHE5        0.0000 
      5 CZ         37.1002   70.3561   15.2871 C.ar      4 PHE5        0.0000 
      6 N          36.7011   71.3846   14.2707 N.2       2 ALA2        0.0000 
      7 CZ         36.3020   72.4131   13.2544 C.ar      4 PHE5        0.0000 
      8 CZ         35.9029   73.4416   12.2380 C.ar      4 PHE5        0.0000 
      9 NZ         37.2897   66.2100   19.8722 N.2       3 LYS4        0.0000 
     10 N          36.8906   67.2384   18.8559 N.2       2 ALA2        0.0000 
     11 N          36.4916   68.2669   17.8395 N.2       2 ALA2        0.0000 
     12 N          36.0925   69.2954   16.8231 N.2       2 ALA2        0.0000 
     13 N          35.6934   70.3239   15.8068 N.2       2 ALA2        0.0000 
     14 N          35.2944   71.3523   14.7904 N.2       2 ALA2        0.0000 
     15 CZ         34.8953   72.3808   13.7741 C.ar      4 PHE5        0.0000 
     16 CA         35.4839   67.2062   19.3755 C.3       5 GLY6        0.0000 
     17 DU         35.0848   68.2346   18.3592 H         6 CUB7        0.0000 
     18 N          34.6858   69.2631   17.3428 N.2       2 ALA2        0.0000 
     19 N          34.2867   70.2916   16.3265 N.2       2 ALA2        0.0000 
     20 N          33.8876   71.3200   15.3101 N.2       2 ALA2        0.0000 
     21 CA         33.6781   68.2023   18.8788 C.3       5 GLY6        0.0000 
     22 CZ         33.2790   69.2308   17.8625 C.ar      4 PHE5        0.0000 
     23 CA         32.8800   70.2593   16.8461 C.3       5 GLY6        0.0000 
     24 CA         32.4809   71.2878   15.8298 C.3       5 GLY6        0.0000 
     25 CZ         32.2714   68.1701   19.3985 C.ar      4 PHE5        0.0000 
     26 CZ         31.4732   70.2270   17.3658 C.ar      4 PHE5        0.0000 
     27 CA         31.0742   71.2555   16.3495 C.3       5 GLY6        0.0000 
     28 CZ         38.0432   73.5368   13.7078 C.ar      4 PHE5        0.0000 
     29 CA         36.6365   73.5045   14.2275 C.3       5 GLY6        0.0000 
     30 CA         36.2374   74.5330   13.2111 C.3       5 GLY6        0.0000 
     31 NZ         37.6242   67.3014   20.8453 N.2       3 LYS4        0.0000 
     32 CZ         37.2251   68.3299   19.8290 C.ar      4 PHE5        0.0000 
     33 CZ         36.8260   69.3583   18.8126 C.ar      4 PHE5        0.0000 
     34 N          36.4269   70.3868   17.7962 N.2       2 ALA2        0.0000 
     35 N          35.2297   73.4722   14.7472 N.2       2 ALA2        0.0000 
     36 CA         36.2174   67.2691   21.3650 C.3       5 GLY6        0.0000 
     37 CA         35.8184   68.2976   20.3486 C.3       5 GLY6        0.0000 
     38 OG         35.4193   69.3261   19.3323 O.2       1 SER1        0.0000 
     39 OG         35.0202   70.3545   18.3159 O.2       1 SER1        0.0000 
     40 CA         34.4116   68.2653   20.8683 C.3       5 GLY6        0.0000 
     41 N          34.0126   69.2938   19.8520 N.2       2 ALA2        0.0000 
     42 N          33.6135   70.3222   18.8356 N.2       2 ALA2        0.0000 
     43 CA         33.2144   71.3507   17.8192 C.3       5 GLY6        0.0000 
     44 N          32.8153   72.3792   16.8029 N.2       2 ALA2        0.0000 
     45 CA         31.8077   71.3184   18.3389 C.3       5 GLY6        0.0000 
     46 N          31.4086   72.3469   17.3226 N.2       2 ALA2        0.0000 
     47 CA         36.5718   75.6244   14.1842 C.3       5 GLY6        0.0000 
     48 CZ         36.5519   68.3605   22.3381 C.ar      4 PHE5        0.0000 
     49 CZ         36.1528   69.3890   21.3218 C.ar      4 PHE5        0.0000 
     50 O          35.1451   68.3282   22.8578 O.2       2 ALA2        0.0000 
     51 N          34.7461   69.3567   21.8414 N.2       2 ALA2        0.0000 
     52 NZ         37.2854   68.4235   24.3276 N.2       3 LYS4        0.0000 
     53 O          35.8786   68.3912   24.8473 O.2       2 ALA2        0.0000 
     54 O          35.4796   69.4197   23.8309 O.2       2 ALA2        0.0000 
     55 CA         37.6198   69.5149   25.3007 C.3       5 GLY6        0.0000 
     56 CA         36.6122   68.4541   26.8367 C.3       5 GLY6        0.0000 
     57 CZ         36.2131   69.4826   25.8204 C.ar      4 PHE5        0.0000 
     58 CZ         35.8140   70.5111   24.8040 C.ar      4 PHE5        0.0000 
     59 N          34.4160   66.0518   16.4129 N.2       2 ALA2        0.0000 
     60 N          38.5715   68.2685   14.8107 N.2       2 ALA2        0.0000 
     61 CZ         38.1724   69.2970   13.7943 C.ar      4 PHE5        0.0000 
     62 CZ         37.7734   70.3255   12.7779 C.ar      4 PHE5        0.0000 
     63 OG         37.3743   71.3540   11.7616 O.2       1 SER1        0.0000 
     64 N          37.1648   68.2363   15.3303 N.2       2 ALA2        0.0000 
     65 DU         36.7657   69.2647   14.3140 H         6 CUB7        0.0000 
     66 DU         36.3666   70.2932   13.2976 H         6 CUB7        0.0000 
     67 CZ         35.9676   71.3217   12.2813 C.ar      4 PHE5        0.0000 
     68 OG         35.5685   72.3501   11.2649 O.2       1 SER1        0.0000 
     69 N          36.5562   66.1470   17.8827 N.2       2 ALA2        0.0000 
     70 CA         36.1571   67.1755   16.8664 C.3       5 GLY6        0.0000 
     71 N          35.7581   68.2040   15.8500 N.2       2 ALA2        0.0000 
     72 N          35.3590   69.2324   14.8337 N.2       2 ALA2        0.0000 
     73 CZ         34.9599   70.2609   13.8173 C.ar      4 PHE5        0.0000 
     74 CA         35.1495   66.1147   18.4024 C.3       5 GLY6        0.0000 
     75 N          34.7504   67.1432   17.3861 N.2       2 ALA2        0.0000 
     76 N          34.3513   68.1717   16.3697 N.2       2 ALA2        0.0000 
     77 N          33.9523   69.2002   15.3533 N.2       2 ALA2        0.0000 
     78 CZ         33.5532   70.2286   14.3370 C.ar      4 PHE5        0.0000 
     79 CA         33.7427   66.0825   18.9221 C.3       5 GLY6        0.0000 
     80 OG         33.3437   67.1109   17.9057 O.2       1 SER1        0.0000 
     81 CZ         32.9446   68.1394   16.8894 C.ar      4 PHE5        0.0000 
     82 CA         32.5455   69.1679   15.8730 C.3       5 GLY6        0.0000 
     83 DU         37.8380   68.2056   12.8212 H         6 CUB7        0.0000 
     84 CA         37.4389   69.2341   11.8048 C.3       5 GLY6        0.0000 
     85 CA         36.8303   67.1448   14.3572 C.3       5 GLY6        0.0000 
     86 N          36.4313   68.1733   13.3409 N.2       2 ALA2        0.0000 
     87 OG         36.0322   69.2018   12.3245 O.2       1 SER1        0.0000 
     88 CA         35.6331   70.2302   11.3082 C.3       5 GLY6        0.0000 
     89 OG         34.6255   69.1695   12.8442 O.2       1 SER1        0.0000 
     90 CA         36.0968   67.0819   12.3678 C.3       5 GLY6        0.0000 
@<TRIPOS>BOND
@<TRIPOS>SUBSTRUCTURE
     1 SER1        3 GROUP   
     2 ALA2        6 GROUP   
     3 LYS4        9 GROUP   
     4 PHE5        1 GROUP   
     5 GLY6       16 GROUP   
     6 CUB7       17 GROUP   
@<TRIPOS>SET

