#    Name: 2j9f_THV_1_INTS_M
#    Modification time : Tue Mar 25 19:31:51 2014

@<TRIPOS>MOLECULE
2j9f_THV_1_INTS_M
  101     0    15     0     0
SMALL
NO_CHARGES


@<TRIPOS>ATOM
      1 NZ         29.9005   63.9970   14.6315 N.4       3 LYC4        0.0000 
      2 NZ         30.2790   63.4580   15.8980 N.4      13 LYL4        0.0000 
      3 NZ         28.2400   64.5220   13.0290 N.4       8 LYP4        0.0000 
      4 N          30.5065   64.5240   16.5375 N.am      2 SEC2        0.0000 
      5 N          30.2790   63.4580   15.8980 N.am     12 SEL2        0.0000 
      6 N          30.7340   65.5900   17.1770 N.am      7 SEP2        0.0000 
      7 N          29.9005   63.9970   14.6315 N.am      2 SEC2        0.0000 
      8 N          29.5220   64.5360   13.3650 N.am      7 SEP2        0.0000 
      9 Zn         29.9050   59.9515   16.7110 Zn        4 ZIC7        0.0000 
     10 Zn         29.8940   60.8960   16.1080 Zn       14 ZIL7        0.0000 
     11 Zn         29.9160   59.0070   17.3140 Zn        9 ZIP7        0.0000 
     12 N          28.6730   60.2955   15.4230 N.am      2 SEC2        0.0000 
     13 N          29.8940   60.8960   16.1080 N.am     12 SEL2        0.0000 
     14 N          27.4520   59.6950   14.7380 N.am      7 SEP2        0.0000 
     15 NZ         27.6570   63.3330   15.1380 N.4       3 LYC4        0.0000 
     16 NZ         27.9680   62.6650   16.3970 N.4      13 LYL4        0.0000 
     17 NZ         26.9210   63.1425   17.3740 N.4       3 LYC4        0.0000 
     18 NZ         24.9580   62.7730   17.8690 N.4       8 LYP4        0.0000 
     19 N          27.6570   63.3330   15.1380 N.am      2 SEC2        0.0000 
     20 N          27.9680   62.6650   16.3970 N.am     12 SEL2        0.0000 
     21 N          27.3460   64.0010   13.8790 N.am      7 SEP2        0.0000 
     22 N          26.6260   62.2790   16.6500 N.am      2 SEC2        0.0000 
     23 N          25.2840   61.8930   16.9030 N.am      7 SEP2        0.0000 
     24 N          26.9210   63.1425   17.3740 N.am      2 SEC2        0.0000 
     25 N          25.8740   63.6200   18.3510 N.am      7 SEP2        0.0000 
     26 N          27.7100   61.1800   15.5675 N.am      2 SEC2        0.0000 
     27 N          29.8170   63.4035   20.2275 N.am      2 SEC2        0.0000 
     28 N          30.6290   62.3010   20.4800 N.am     12 SEL2        0.0000 
     29 N          29.0050   64.5060   19.9750 N.am      7 SEP2        0.0000 
     30 N          31.1730   61.8520   21.7445 N.am      2 SEC2        0.0000 
     31 N          31.7170   61.4030   23.0090 N.am      7 SEP2        0.0000 
     32 Zn         30.3630   59.6535   18.1375 Zn        4 ZIC7        0.0000 
     33 Zn         30.8100   60.3000   18.9610 Zn       14 ZIL7        0.0000 
     34 N          31.0710   59.6495   20.2675 N.am      2 SEC2        0.0000 
     35 N          30.8100   60.3000   18.9610 N.am     12 SEL2        0.0000 
     36 N          31.3320   58.9990   21.5740 N.am      7 SEP2        0.0000 
     37 CA         31.2690   65.1020   17.9680 C.3       5 GLC5        0.0000 
     38 CA         32.6990   63.5680   18.7530 C.3      15 GLL5        0.0000 
     39 CA         29.8390   66.6360   17.1830 C.3      10 GLP5        0.0000 
     40 CA         35.2530   65.3415   20.3485 C.3       5 GLC5        0.0000 
     41 CA         36.6950   64.9380   19.1100 C.3      15 GLL5        0.0000 
     42 CA         33.8110   65.7450   21.5870 C.3      10 GLP5        0.0000 
     43 CA         35.9140   63.6830   20.2135 C.3       5 GLC5        0.0000 
     44 CA         35.1330   62.4280   21.3170 C.3      10 GLP5        0.0000 
     45 O          35.7985   71.5005   17.4605 O.2       1 ALC1        0.0000 
     46 O          35.4530   70.1750   17.7310 O.2      11 ALL1        0.0000 
     47 O          36.1440   72.8260   17.1900 O.2       6 ALP1        0.0000 
     48 CA         31.6535   68.7935   17.3965 C.3       5 GLC5        0.0000 
     49 CA         33.2810   69.9050   16.7050 C.3      15 GLL5        0.0000 
     50 CA         30.0260   67.6820   18.0880 C.3      10 GLP5        0.0000 
     51 CA         30.7270   69.6600   17.9145 C.3       5 GLC5        0.0000 
     52 CA         32.3240   70.5670   17.7280 C.3      15 GLL5        0.0000 
     53 CA         29.1300   68.7530   18.1010 C.3      10 GLP5        0.0000 
     54 CA         32.5725   72.0655   18.9975 C.3       5 GLC5        0.0000 
     55 CA         32.8210   73.5640   20.2670 C.3      10 GLP5        0.0000 
     56 CA         32.8270   71.3570   13.9880 C.3       5 GLC5        0.0000 
     57 CA         33.6290   70.9010   15.5840 C.3      15 GLL5        0.0000 
     58 CA         32.0250   71.8130   12.3920 C.3      10 GLP5        0.0000 
     59 CA         37.3975   69.5255   19.7030 C.3       5 GLC5        0.0000 
     60 CA         36.8870   67.8700   18.8790 C.3      15 GLL5        0.0000 
     61 CA         37.9080   71.1810   20.5270 C.3      10 GLP5        0.0000 
     62 CA         37.0610   65.5070   22.1835 C.3       5 GLC5        0.0000 
     63 CA         37.5920   67.3880   21.3500 C.3      15 GLL5        0.0000 
     64 CA         36.5300   63.6260   23.0170 C.3      10 GLP5        0.0000 
     65 CA         38.6480   68.9005   22.5720 C.3       5 GLC5        0.0000 
     66 CA         39.7040   70.4130   23.7940 C.3      10 GLP5        0.0000 
     67 CA         35.1750   66.9475   22.4475 C.3       5 GLC5        0.0000 
     68 CA         36.5390   68.1500   23.3080 C.3      15 GLL5        0.0000 
     69 CA         38.1215   69.2815   23.5510 C.3       5 GLC5        0.0000 
     70 CA         34.8850   69.8040   24.5400 C.3       5 GLC5        0.0000 
     71 CA         36.4230   68.2740   24.8250 C.3      15 GLL5        0.0000 
     72 CA         33.3470   71.3340   24.2550 C.3      10 GLP5        0.0000 
     73 CA         34.5645   67.4350   24.1960 C.3       5 GLC5        0.0000 
     74 CA         32.7060   66.5960   23.5670 C.3      10 GLP5        0.0000 
     75 CA         36.9990   69.9750   24.0340 C.3       5 GLC5        0.0000 
     76 CA         37.5750   71.6760   23.2430 C.3      10 GLP5        0.0000 
     77 N          34.2450   68.8710   23.3310 N.am      2 SEC2        0.0000 
     78 N          35.6060   68.7880   22.5140 N.am     12 SEL2        0.0000 
     79 N          32.8840   68.9540   24.1480 N.am      7 SEP2        0.0000 
     80 O          33.6355   70.0860   21.0950 O.2       1 ALC1        0.0000 
     81 O          34.7540   69.4530   20.4870 O.2      11 ALL1        0.0000 
     82 O          32.5170   70.7190   21.7030 O.2       6 ALP1        0.0000 
     83 CA         33.5610   64.7205   19.9525 C.3       5 GLC5        0.0000 
     84 CA         33.8350   61.7020   18.2575 C.3       5 GLC5        0.0000 
     85 CA         34.3590   59.7080   18.1970 C.3      10 GLP5        0.0000 
     86 CA         34.2220   63.0620   19.8175 C.3       5 GLC5        0.0000 
     87 CA         33.9230   63.8240   17.8830 C.3      15 GLL5        0.0000 
     88 CA         35.1557   64.0892   16.4705 C.3       5 GLC5        0.0000 
     89 CA         36.1460   63.6230   15.0320 C.3      10 GLP5        0.0000 
     90 CA         34.4075   65.6505   19.8867 C.3       5 GLC5        0.0000 
     91 CA         34.4080   65.2870   17.9350 C.3      15 GLL5        0.0000 
     92 CA         35.0685   63.9920   19.7517 C.3       5 GLC5        0.0000 
     93 CA         35.6000   65.8250   18.4380 C.3      15 GLL5        0.0000 
     94 CA         36.6307   65.0713   17.0115 C.3       5 GLC5        0.0000 
     95 CA         37.1140   64.7610   15.2490 C.3      10 GLP5        0.0000 
     96 CA         33.9480   66.4825   19.5478 C.3       5 GLC5        0.0000 
     97 CA         34.6850   67.8280   17.7140 C.3      15 GLL5        0.0000 
     98 CA         31.5734   70.2258   15.4616 C.3       5 GLC5        0.0000 
     99 CA         29.9310   69.8830   14.5230 C.3      10 GLP5        0.0000 
    100 CA         35.1101   66.9847   21.3015 C.3       5 GLC5        0.0000 
    101 CA         36.6950   68.0180   20.4620 C.3      15 GLL5        0.0000 
@<TRIPOS>BOND
@<TRIPOS>SUBSTRUCTURE
     1 ALC1       45 GROUP        1 X    ALC  0     ROOT ALC X 1
     2 SEC2        4 GROUP        1 X    SEC  0     **** SEC X 2
     3 LYC4        1 GROUP        1 X    LYC  0     **** LYC X 4
     4 ZIC7        9 GROUP        1 X    ZIC  0     **** ZIC X 5
     5 GLC5       37 GROUP        1 X    GLC  0     **** GLC X 6
     6 ALP1       47 GROUP        1 Y    ALP  0     ROOT ALP Y 8
     7 SEP2        6 GROUP        1 Y    SEP  0     **** SEP Y 9
     8 LYP4        3 GROUP        1 Y    LYP  0     **** LYP Y 11
     9 ZIP7       11 GROUP        1 Y    ZIP  0     **** ZIP Y 12
    10 GLP5       39 GROUP        1 Y    GLP  0     **** GLP Y 13
    11 ALL1       46 GROUP        1 Z    ALL  0     ROOT ALL Z 15
    12 SEL2        5 GROUP        1 Z    SEL  0     **** SEL Z 16
    13 LYL4        2 GROUP        1 Z    LYL  0     **** LYL Z 18
    14 ZIL7       10 GROUP        1 Z    ZIL  0     **** ZIL Z 19
    15 GLL5       38 GROUP        1 Z    GLL  0     **** GLL Z 20
@<TRIPOS>SET

