#    Name: 2j9f_THV_1_ligand
#    Modification time : Tue Mar 25 19:31:51 2014

@<TRIPOS>MOLECULE
2j9f_THV_1_ligand
   54    55     1     0     0
SMALL
NO_CHARGES


@<TRIPOS>ATOM
      1 O2B        30.2790   63.4580   15.8980 O.co2     1 THV1403     0.0000 
      2 PB         29.4180   62.3270   16.6080 P.3       1 THV1403     0.0000 
      3 O3B        29.8940   60.8960   16.1080 O.co2     1 THV1403     0.0000 
      4 O1B        27.9680   62.6650   16.3970 O.co2     1 THV1403     0.0000 
      5 O3A        29.7670   62.4990   18.2280 O.3       1 THV1403     0.0000 
      6 PA         30.8570   61.7480   19.1240 P.3       1 THV1403     0.0000 
      7 O1A        30.6290   62.3010   20.4800 O.co2     1 THV1403     0.0000 
      8 O2A        30.8100   60.3000   18.9610 O.co2     1 THV1403     0.0000 
      9 O5G        32.2560   62.2450   18.5200 O.3       1 THV1403     0.0000 
     10 C5B        32.6990   63.5680   18.7530 C.3       1 THV1403     0.0000 
     11 C5A        33.9230   63.8240   17.8830 C.3       1 THV1403     0.0000 
     12 C5         34.4080   65.2870   17.9350 C.2       1 THV1403     0.0000 
     13 C4         35.6000   65.8250   18.4380 C.2       1 THV1403     0.0000 
     14 C4A        36.6950   64.9380   19.1100 C.3       1 THV1403     0.0000 
     15 S1         33.4850   66.6120   17.3030 S.3       1 THV1403     0.0000 
     16 C2         34.6850   67.8280   17.7140 C.2       1 THV1403     0.0000 
     17 C8         34.5610   69.3670   17.4080 C.2       1 THV1403     0.0000 
     18 O9         35.4530   70.1750   17.7310 O.3       1 THV1403     0.0000 
     19 C9         33.2810   69.9050   16.7050 C.3       1 THV1403     0.0000 
     20 C10        32.3240   70.5670   17.7280 C.3       1 THV1403     0.0000 
     21 C11        33.6290   70.9010   15.5840 C.3       1 THV1403     0.0000 
     22 N3         35.7260   67.1780   18.3150 N.pl3     1 THV1403     0.0000 
     23 C35        36.8870   67.8700   18.8790 C.3       1 THV1403     0.0000 
     24 C5'        36.6950   68.0180   20.4620 C.ar      1 THV1403     0.0000 
     25 C6'        37.5920   67.3880   21.3500 C.ar      1 THV1403     0.0000 
     26 N1'        37.5070   67.4550   22.7030 N.ar      1 THV1403     0.0000 
     27 C2'        36.5390   68.1500   23.3080 C.ar      1 THV1403     0.0000 
     28 C2A        36.4230   68.2740   24.8250 C.3       1 THV1403     0.0000 
     29 N3'        35.6060   68.7880   22.5140 N.ar      1 THV1403     0.0000 
     30 C4'        35.6750   68.7460   21.1260 C.ar      1 THV1403     0.0000 
     31 N4'        34.7540   69.4530   20.4870 N.pl3     1 THV1403     0.0000 
     32 H          32.9900   63.7285   19.7938 H         1 THV1403     0.0000 
     33 H          31.9412   64.3095   18.4891 H         1 THV1403     0.0000 
     34 H          33.6885   63.5696   16.8413 H         1 THV1403     0.0000 
     35 H          34.7434   63.1713   18.2082 H         1 THV1403     0.0000 
     36 H          32.7611   69.0602   16.2613 H         1 THV1403     0.0000 
     37 H          36.9946   68.8725   18.4853 H         1 THV1403     0.0000 
     38 H          37.8043   67.3153   18.7291 H         1 THV1403     0.0000 
     39 H          38.3797   66.8285   20.9091 H         1 THV1403     0.0000 
     40 H          33.8549   69.4999   20.9222 H         1 THV1403     0.0000 
     41 H          35.0416   69.8755   19.6275 H         1 THV1403     0.0000 
     42 H          37.0478   64.2442   18.4822 H         1 THV1403     0.0000 
     43 H          37.4768   65.4813   19.4159 H         1 THV1403     0.0000 
     44 H          36.3418   64.4555   19.9115 H         1 THV1403     0.0000 
     45 H          32.7555   71.3391   18.1945 H         1 THV1403     0.0000 
     46 H          31.4953   70.9152   17.2899 H         1 THV1403     0.0000 
     47 H          32.0331   69.9227   18.4353 H         1 THV1403     0.0000 
     48 H          34.1306   71.6926   15.9330 H         1 THV1403     0.0000 
     49 H          34.1989   70.4810   14.8777 H         1 THV1403     0.0000 
     50 H          32.8094   71.2503   15.1299 H         1 THV1403     0.0000 
     51 H          37.2327   68.7029   25.2256 H         1 THV1403     0.0000 
     52 H          35.6349   68.8281   25.0932 H         1 THV1403     0.0000 
     53 H          36.3167   67.3816   25.2635 H         1 THV1403     0.0000 
     54 H          35.2100   71.0273   17.2678 H         1 THV1403     0.0000 
@<TRIPOS>BOND
     1    2    1 ar   
     2    3    2 ar   
     3    4    2 ar   
     4    5    2 1    
     5    6    5 1    
     6    7    6 ar   
     7    8    6 ar   
     8    9    6 1    
     9   10    9 1    
    10   11   10 1    
    11   32   10 1    
    12   33   10 1    
    13   12   11 1    
    14   34   11 1    
    15   35   11 1    
    16   13   12 2    
    17   15   12 1    
    18   14   13 1    
    19   22   13 1    
    20   42   14 1    
    21   43   14 1    
    22   44   14 1    
    23   16   15 1    
    24   17   16 1    
    25   22   16 2    
    26   18   17 1    
    27   19   17 1    
    28   54   18 1    
    29   20   19 1    
    30   21   19 1    
    31   36   19 1    
    32   45   20 1    
    33   46   20 1    
    34   47   20 1    
    35   48   21 1    
    36   49   21 1    
    37   50   21 1    
    38   23   22 1    
    39   24   23 1    
    40   37   23 1    
    41   38   23 1    
    42   25   24 ar   
    43   30   24 ar   
    44   26   25 ar   
    45   39   25 1    
    46   27   26 ar   
    47   28   27 1    
    48   29   27 ar   
    49   51   28 1    
    50   52   28 1    
    51   53   28 1    
    52   30   29 ar   
    53   31   30 1    
    54   40   31 1    
    55   41   31 1    
@<TRIPOS>SUBSTRUCTURE
     1 THV1403     1 GROUP   
@<TRIPOS>SET

