#    Name: 3kxn_K8X_1_INTS_M
#    Modification time : Mon Mar 24 20:40:16 2014

@<TRIPOS>MOLECULE
3kxn_K8X_1_INTS_M
   42     0     3     0     0
SMALL
NO_CHARGES


@<TRIPOS>ATOM
      1 CA         22.1070   10.2530   20.3970 C.3       1 GLC5        0.0000 
      2 CA         21.5410    8.2060   19.9850 C.3       3 GLL5        0.0000 
      3 CA         22.6730   12.3000   20.8090 C.3       2 GLP5        0.0000 
      4 CA         23.5735    9.3385   19.6530 C.3       1 GLC5        0.0000 
      5 CA         22.4840    7.4410   19.3100 C.3       3 GLL5        0.0000 
      6 CA         24.6630   11.2360   19.9960 C.3       2 GLP5        0.0000 
      7 CA         23.2980    7.5480   23.2355 C.3       1 GLC5        0.0000 
      8 CA         21.7670    6.7870   21.9070 C.3       3 GLL5        0.0000 
      9 CA         24.8290    8.3090   24.5640 C.3       2 GLP5        0.0000 
     10 CA         22.1575    9.7965   21.7390 C.3       1 GLC5        0.0000 
     11 CA         21.1850    7.8770   21.2810 C.3       3 GLL5        0.0000 
     12 CA         23.1300   11.7160   22.1970 C.3       2 GLP5        0.0000 
     13 CA         21.6665   11.0760   19.9260 C.3       1 GLC5        0.0000 
     14 CA         20.6600    9.8520   19.0430 C.3       3 GLL5        0.0000 
     15 CA         18.6545   10.4530   19.5475 C.3       1 GLC5        0.0000 
     16 CA         16.6490   11.0540   20.0520 C.3       2 GLP5        0.0000 
     17 CA         19.4580    8.1150   19.0890 C.3       1 GLC5        0.0000 
     18 CA         18.2560    6.3780   19.1350 C.3       2 GLP5        0.0000 
     19 CA         21.4480   10.3715   22.2470 C.3       1 GLC5        0.0000 
     20 CA         19.7660    9.0270   22.2970 C.3       3 GLL5        0.0000 
     21 CA         18.2075   10.0405   21.1745 C.3       1 GLC5        0.0000 
     22 CA         18.3110    8.0210   22.9680 C.3       1 GLC5        0.0000 
     23 CA         16.8560    7.0150   23.6390 C.3       2 GLP5        0.0000 
     24 CA         19.2375    7.3630   21.5135 C.3       1 GLC5        0.0000 
     25 CA         18.7090    5.6990   20.7300 C.3       2 GLP5        0.0000 
     26 CA         22.8320    7.0645   24.9165 C.3       1 GLC5        0.0000 
     27 CA         21.2250    6.2960   23.8640 C.3       3 GLL5        0.0000 
     28 CA         24.4390    7.8330   25.9690 C.3       2 GLP5        0.0000 
     29 CA         19.0405    6.6555   23.7515 C.3       1 GLC5        0.0000 
     30 CA         19.9670    5.9975   22.2970 C.3       1 GLC5        0.0000 
     31 CA         25.0610    4.2665   23.1745 C.3       1 GLC5        0.0000 
     32 CA         23.5840    4.3780   22.1850 C.3       3 GLL5        0.0000 
     33 CA         26.5380    4.1550   24.1640 C.3       2 GLP5        0.0000 
     34 CA         20.1343    7.1007   19.3912 C.3       1 GLC5        0.0000 
     35 CA         22.0688    5.8220   18.3480 C.3       1 GLC5        0.0000 
     36 CA         23.0670    6.3490   19.9360 C.3       3 GLL5        0.0000 
     37 CA         21.3620    4.7490   17.0730 C.3       2 GLP5        0.0000 
     38 CA         20.7980    5.9422   20.6585 C.3       1 GLC5        0.0000 
     39 CA         24.4266    7.2558   20.8148 C.3       1 GLC5        0.0000 
     40 CA         22.7070    6.0220   21.2380 C.3       3 GLL5        0.0000 
     41 CA         26.1120    8.0530   21.1990 C.3       2 GLP5        0.0000 
     42 CA         20.0925    6.5155   21.1620 C.3       1 GLC5        0.0000 
@<TRIPOS>BOND
@<TRIPOS>SUBSTRUCTURE
     1 GLC5        1 GROUP        1 X    GLC  0     ROOT GLC X 6
     2 GLP5        3 GROUP        1 Y    GLP  0     ROOT GLP Y 13
     3 GLL5        2 GROUP        1 Z    GLL  0     ROOT GLL Z 20
@<TRIPOS>SET

