#    Name: 3kxn_K8X_1_ligand
#    Modification time : Mon Mar 24 20:40:16 2014

@<TRIPOS>MOLECULE
3kxn_K8X_1_ligand
   15    16     1     0     0
SMALL
NO_CHARGES


@<TRIPOS>ATOM
      1 C1         21.5410    8.2060   19.9850 C.ar      1 K8X1        0.0000 
      2 C2         22.4840    7.4410   19.3100 C.ar      1 K8X1        0.0000 
      3 C3         23.0670    6.3490   19.9360 C.ar      1 K8X1        0.0000 
      4 C4         22.7070    6.0220   21.2380 C.ar      1 K8X1        0.0000 
      5 C5         21.7670    6.7870   21.9070 C.ar      1 K8X1        0.0000 
      6 C6         21.1850    7.8770   21.2810 C.ar      1 K8X1        0.0000 
      7 I13        20.6600    9.8520   19.0430 I         1 K8X1        0.0000 
      8 I15        19.7660    9.0270   22.2970 I         1 K8X1        0.0000 
      9 I17        21.2250    6.2960   23.8640 I         1 K8X1        0.0000 
     10 I19        23.5840    4.3780   22.1850 I         1 K8X1        0.0000 
     11 N21        23.0100    7.5260   18.0710 N.pl3     1 K8X1        0.0000 
     12 C23        23.8970    6.5160   17.9260 C.2       1 K8X1        0.0000 
     13 N25        23.9290    5.7980   19.0710 N.2       1 K8X1        0.0000 
     14 H          22.7937    8.1873   17.4067 H         1 K8X1        0.0000 
     15 H          24.4218    6.3368   17.1340 H         1 K8X1        0.0000 
@<TRIPOS>BOND
     1    2    1 ar   
     2    6    1 ar   
     3    7    1 1    
     4    3    2 ar   
     5   11    2 1    
     6    4    3 ar   
     7   13    3 1    
     8    5    4 ar   
     9   10    4 1    
    10    6    5 ar   
    11    9    5 1    
    12    8    6 1    
    13   12   11 1    
    14   14   11 1    
    15   13   12 2    
    16   15   12 1    
@<TRIPOS>SUBSTRUCTURE
     1 K8X1        1 GROUP   
@<TRIPOS>SET

