#    Name: 4grb_0XG_1_INTS_M
#    Modification time : Mon Mar 24 23:35:52 2014

@<TRIPOS>MOLECULE
4grb_0XG_1_INTS_M
   70     0    12     0     0
SMALL
NO_CHARGES


@<TRIPOS>ATOM
      1 CA         21.9445   37.9255    6.4100 C.3       4 GLC5        0.0000 
      2 CA         21.4340   39.4860    7.8340 C.3      12 GLL5        0.0000 
      3 CA         22.4550   36.3650    4.9860 C.3       8 GLP5        0.0000 
      4 CA         16.5060   35.2450    4.7625 C.3       4 GLC5        0.0000 
      5 CA         18.4870   35.6130    5.7590 C.3      12 GLL5        0.0000 
      6 CA         14.5250   34.8770    3.7660 C.3       8 GLP5        0.0000 
      7 CA         18.6390   33.1330    8.6705 C.3       4 GLC5        0.0000 
      8 CA         19.5910   34.9090    7.7500 C.3      12 GLL5        0.0000 
      9 CA         17.6870   31.3570    9.5910 C.3       8 GLP5        0.0000 
     10 CA         21.2030   33.0070    5.7450 C.3       4 GLC5        0.0000 
     11 CA         19.5550   32.1210    6.4620 C.3      12 GLL5        0.0000 
     12 CA         22.8510   33.8930    5.0280 C.3       8 GLP5        0.0000 
     13 CA         20.7335   31.5640    4.9080 C.3       4 GLC5        0.0000 
     14 CA         21.9120   31.0070    3.3540 C.3       8 GLP5        0.0000 
     15 CA         18.6210   31.7390    8.0265 C.3       4 GLC5        0.0000 
     16 CA         20.8410   30.4440    4.7490 C.3       4 GLC5        0.0000 
     17 CA         19.7700   29.8810    6.1440 C.3      12 GLL5        0.0000 
     18 CA         18.3650   29.8070    7.7205 C.3       4 GLC5        0.0000 
     19 CA         16.9600   29.7330    9.2970 C.3       8 GLP5        0.0000 
     20 CA         23.3055   33.7855    7.8050 C.3       4 GLC5        0.0000 
     21 CA         22.5440   32.1940    8.9620 C.3      12 GLL5        0.0000 
     22 CA         24.0670   35.3770    6.6480 C.3       8 GLP5        0.0000 
     23 CA         23.8995   31.7425    7.8555 C.3       4 GLC5        0.0000 
     24 CA         25.2550   31.2910    6.7490 C.3       8 GLP5        0.0000 
     25 NZ         24.7535   24.2685    9.7885 N.4       3 LYC4        0.0000 
     26 NZ         23.1050   24.5860    9.1750 N.4      11 LYL4        0.0000 
     27 NZ         26.4020   23.9510   10.4020 N.4       7 LYP4        0.0000 
     28 N          22.0185   24.3130   10.2775 N.am      2 SEC2        0.0000 
     29 N          23.1050   24.5860    9.1750 N.am     10 SEL2        0.0000 
     30 N          20.9320   24.0400   11.3800 N.am      6 SEP2        0.0000 
     31 O          17.6605   33.2170    5.4690 O.2       1 ALC1        0.0000 
     32 O          18.9070   33.2930    6.0320 O.2       9 ALL1        0.0000 
     33 O          16.4140   33.1410    4.9060 O.2       5 ALP1        0.0000 
     34 N          18.0060   30.9070    4.5360 N.am      2 SEC2        0.0000 
     35 N          19.1910   31.0250    5.7850 N.am     10 SEL2        0.0000 
     36 N          16.8210   30.7890    3.2870 N.am      6 SEP2        0.0000 
     37 CA         21.9310   32.4290    6.4110 C.3       4 GLC5        0.0000 
     38 CA         21.0110   30.9650    7.7940 C.3      12 GLL5        0.0000 
     39 CA         23.1330   31.1280    7.2715 C.3       4 GLC5        0.0000 
     40 CA         20.3310   29.6160    9.4130 C.3       4 GLC5        0.0000 
     41 CA         19.6510   28.2670   11.0320 C.3       8 GLP5        0.0000 
     42 CA         22.3795   28.5005    5.3930 C.3       4 GLC5        0.0000 
     43 CA         20.9870   27.2540    6.3270 C.3      12 GLL5        0.0000 
     44 CA         23.7720   29.7470    4.4590 C.3       8 GLP5        0.0000 
     45 CA         19.4690   26.7945    7.7660 C.3       4 GLC5        0.0000 
     46 CA         17.9510   26.3350    9.2050 C.3       8 GLP5        0.0000 
     47 NZ         25.0300   25.1920   10.3930 N.4       3 LYC4        0.0000 
     48 NZ         23.6580   26.4330   10.3840 N.4      11 LYL4        0.0000 
     49 CA         20.4832   36.3170    5.4750 C.3       4 GLC5        0.0000 
     50 CA         17.1568   35.4270    7.1675 C.3       4 GLC5        0.0000 
     51 CA         15.8020   34.5850    8.3710 C.3       8 GLP5        0.0000 
     52 CA         20.8777   35.5600    6.0648 C.3       4 GLC5        0.0000 
     53 CA         19.0100   34.6010    6.5370 C.3      12 GLL5        0.0000 
     54 CA         17.5512   34.6700    7.7573 C.3       4 GLC5        0.0000 
     55 CA         20.9215   36.5383    6.3827 C.3       4 GLC5        0.0000 
     56 CA         19.6520   36.2160    8.1790 C.3      12 GLL5        0.0000 
     57 CA         17.5950   35.6483    8.0753 C.3       4 GLC5        0.0000 
     58 CA         19.1240   37.2070    7.3800 C.3      12 GLL5        0.0000 
     59 CA         19.2707   30.8670    8.5322 C.3       4 GLC5        0.0000 
     60 CA         20.6980   29.7890    7.1530 C.3      12 GLL5        0.0000 
     61 CA         20.5685   28.4301    9.4811 C.3       4 GLC5        0.0000 
     62 CA         21.9920   28.0400    8.5490 C.3      12 GLL5        0.0000 
     63 CA         19.9288   25.6345    6.2320 C.3       4 GLC5        0.0000 
     64 CA         18.4470   24.5930    5.6700 C.3       8 GLP5        0.0000 
     65 CA         21.7177   26.0525    5.1715 C.3       4 GLC5        0.0000 
     66 CA         22.0250   25.4290    3.5490 C.3       8 GLP5        0.0000 
     67 CA         20.5170   26.1515    9.0530 C.3       4 GLC5        0.0000 
     68 CA         21.8340   26.0980    7.2610 C.3      12 GLL5        0.0000 
     69 CA         18.9590   25.9230   10.2670 C.3       8 GLP5        0.0000 
     70 CA         22.3837   29.9014    6.0059 C.3       4 GLC5        0.0000 
@<TRIPOS>BOND
@<TRIPOS>SUBSTRUCTURE
     1 ALC1       31 GROUP        1 X    ALC  0     ROOT ALC X 1
     2 SEC2       28 GROUP        1 X    SEC  0     **** SEC X 2
     3 LYC4       25 GROUP        1 X    LYC  0     **** LYC X 4
     4 GLC5        1 GROUP        1 X    GLC  0     **** GLC X 6
     5 ALP1       33 GROUP        1 Y    ALP  0     ROOT ALP Y 8
     6 SEP2       30 GROUP        1 Y    SEP  0     **** SEP Y 9
     7 LYP4       27 GROUP        1 Y    LYP  0     **** LYP Y 11
     8 GLP5        3 GROUP        1 Y    GLP  0     **** GLP Y 13
     9 ALL1       32 GROUP        1 Z    ALL  0     ROOT ALL Z 15
    10 SEL2       29 GROUP        1 Z    SEL  0     **** SEL Z 16
    11 LYL4       26 GROUP        1 Z    LYL  0     **** LYL Z 18
    12 GLL5        2 GROUP        1 Z    GLL  0     **** GLL Z 20
@<TRIPOS>SET

