#    Name: 4grb_0XG_1_ligand
#    Modification time : Mon Mar 24 23:35:52 2014

@<TRIPOS>MOLECULE
4grb_0XG_1_ligand
   45    47     1     0     0
SMALL
NO_CHARGES


@<TRIPOS>ATOM
      1 C1         19.7170   40.4810    6.4040 C.3       1 0XG402      0.0000 
      2 C3         21.4340   39.4860    7.8340 C.3       1 0XG402      0.0000 
      3 O5         18.3970   38.9700    8.6960 O.2       1 0XG402      0.0000 
      4 C7         18.5360   36.9250    6.1690 C.ar      1 0XG402      0.0000 
      5 C8         18.4870   35.6130    5.7590 C.ar      1 0XG402      0.0000 
      6 C9         19.0100   34.6010    6.5370 C.ar      1 0XG402      0.0000 
      7 C10        19.5910   34.9090    7.7500 C.ar      1 0XG402      0.0000 
      8 C11        19.6520   36.2160    8.1790 C.ar      1 0XG402      0.0000 
      9 C13        19.5550   32.1210    6.4620 C.ar      1 0XG402      0.0000 
     10 C15        19.7700   29.8810    6.1440 C.ar      1 0XG402      0.0000 
     11 C16        20.6980   29.7890    7.1530 C.ar      1 0XG402      0.0000 
     12 N18        20.4500   32.1370    7.4620 N.ar      1 0XG402      0.0000 
     13 C20        22.5440   32.1940    8.9620 C.3       1 0XG402      0.0000 
     14 C21        21.2620   28.5040    7.4700 C.2       1 0XG402      0.0000 
     15 C22        21.9920   28.0400    8.5490 C.2       1 0XG402      0.0000 
     16 C24        21.8340   26.0980    7.2610 C.2       1 0XG402      0.0000 
     17 O28        23.1050   24.5860    9.1750 O.co2     1 0XG402      0.0000 
     18 N2         20.1400   39.3710    7.2160 N.am      1 0XG402      0.0000 
     19 C4         19.1800   38.6000    7.8330 C.2       1 0XG402      0.0000 
     20 C6         19.1240   37.2070    7.3800 C.ar      1 0XG402      0.0000 
     21 N12        18.9070   33.2930    6.0320 N.pl3     1 0XG402      0.0000 
     22 N14        19.1910   31.0250    5.7850 N.ar      1 0XG402      0.0000 
     23 C17        21.0110   30.9650    7.7940 C.ar      1 0XG402      0.0000 
     24 O19        21.9460   30.9090    8.8250 O.3       1 0XG402      0.0000 
     25 C23        22.3160   26.6620    8.4170 C.2       1 0XG402      0.0000 
     26 S25        20.9870   27.2540    6.3270 S.3       1 0XG402      0.0000 
     27 C26        23.1070   25.8230    9.4260 C.2       1 0XG402      0.0000 
     28 O27        23.6580   26.4330   10.3840 O.co2     1 0XG402      0.0000 
     29 H          18.1461   37.6701    5.5896 H         1 0XG402      0.0000 
     30 H          18.0475   35.3776    4.8451 H         1 0XG402      0.0000 
     31 H          19.9821   34.1538    8.3388 H         1 0XG402      0.0000 
     32 H          20.0839   36.4491    9.0797 H         1 0XG402      0.0000 
     33 H          19.5130   28.9831    5.6346 H         1 0XG402      0.0000 
     34 H          22.2603   28.5726    9.3121 H         1 0XG402      0.0000 
     35 H          21.8650   25.2567    6.8868 H         1 0XG402      0.0000 
     36 H          18.2293   33.1694    5.1880 H         1 0XG402      0.0000 
     37 H          19.6699   41.3298    6.9307 H         1 0XG402      0.0000 
     38 H          20.3435   40.6435    5.6417 H         1 0XG402      0.0000 
     39 H          18.8101   40.3293    6.0109 H         1 0XG402      0.0000 
     40 H          22.1612   39.5928    7.1560 H         1 0XG402      0.0000 
     41 H          21.4848   40.2759    8.4451 H         1 0XG402      0.0000 
     42 H          21.6581   38.6784    8.3795 H         1 0XG402      0.0000 
     43 H          23.2298   32.2088    9.6896 H         1 0XG402      0.0000 
     44 H          23.0025   32.4818    8.1212 H         1 0XG402      0.0000 
     45 H          21.8676   32.8968    9.1824 H         1 0XG402      0.0000 
@<TRIPOS>BOND
     1   18    1 1    
     2   37    1 1    
     3   38    1 1    
     4   39    1 1    
     5   18    2 1    
     6   40    2 1    
     7   41    2 1    
     8   42    2 1    
     9   19    3 2    
    10    5    4 ar   
    11   20    4 ar   
    12   29    4 1    
    13    6    5 ar   
    14   30    5 1    
    15    7    6 ar   
    16   21    6 1    
    17    8    7 ar   
    18   31    7 1    
    19   20    8 ar   
    20   32    8 1    
    21   12    9 ar   
    22   21    9 1    
    23   22    9 ar   
    24   11   10 ar   
    25   22   10 ar   
    26   33   10 1    
    27   14   11 1    
    28   23   11 ar   
    29   23   12 ar   
    30   24   13 1    
    31   43   13 1    
    32   44   13 1    
    33   45   13 1    
    34   15   14 2    
    35   26   14 1    
    36   25   15 1    
    37   34   15 1    
    38   25   16 2    
    39   26   16 1    
    40   35   16 1    
    41   27   17 ar   
    42   19   18 am   
    43   20   19 1    
    44   36   21 1    
    45   24   23 1    
    46   27   25 1    
    47   28   27 ar   
@<TRIPOS>SUBSTRUCTURE
     1 0XG402      1 GROUP   
@<TRIPOS>SET

