#    Name: 3aun_YR4_1_INTS_M
#    Modification time : Mon Mar 24 18:13:39 2014

@<TRIPOS>MOLECULE
3aun_YR4_1_INTS_M
  128     0     9     0     0
SMALL
NO_CHARGES


@<TRIPOS>ATOM
      1 CA         -8.4320   10.9725   -9.3640 C.3       3 GLC5        0.0000 
      2 CA         -9.9970   11.7650  -10.1350 C.3       9 GLL5        0.0000 
      3 CA         -6.8670   10.1800   -8.5930 C.3       6 GLP5        0.0000 
      4 CA        -11.2910    7.6415  -12.4395 C.3       3 GLC5        0.0000 
      5 CA        -11.1310    9.2920  -10.9730 C.3       9 GLL5        0.0000 
      6 CA        -11.4510    5.9910  -13.9060 C.3       6 GLP5        0.0000 
      7 CA        -14.0780    7.7695   -7.3335 C.3       3 GLC5        0.0000 
      8 CA        -13.1970    9.7720   -7.7670 C.3       9 GLL5        0.0000 
      9 CA        -14.9590    5.7670   -6.9000 C.3       6 GLP5        0.0000 
     10 CA        -10.5800    8.2670   -6.3975 C.3       3 GLC5        0.0000 
     11 CA        -12.1000    9.8520   -6.8870 C.3       9 GLL5        0.0000 
     12 CA         -9.0600    6.6820   -5.9080 C.3       6 GLP5        0.0000 
     13 CA        -16.2935    9.7105   -8.1095 C.3       3 GLC5        0.0000 
     14 CA        -14.4990   10.0190   -7.2610 C.3       9 GLL5        0.0000 
     15 CA        -18.0880    9.4020   -8.9580 C.3       6 GLP5        0.0000 
     16 CA        -14.9565    9.9065   -3.3875 C.3       3 GLC5        0.0000 
     17 CA        -13.5300   10.4030   -5.0240 C.3       9 GLL5        0.0000 
     18 CA        -16.3830    9.4100   -1.7510 C.3       6 GLP5        0.0000 
     19 CA        -10.7660    9.0820   -4.6565 C.3       3 GLC5        0.0000 
     20 CA        -12.2500   10.1620   -5.5420 C.3       9 GLL5        0.0000 
     21 CA         -9.2820    8.0020   -3.7710 C.3       6 GLP5        0.0000 
     22 CA        -10.5405    6.8555   -7.2660 C.3       3 GLC5        0.0000 
     23 CA        -12.0210    7.0290   -8.6240 C.3       9 GLL5        0.0000 
     24 CA        -11.3155    5.5155   -9.4275 C.3       3 GLC5        0.0000 
     25 CA        -10.6100    4.0020  -10.2310 C.3       6 GLP5        0.0000 
     26 CA        -15.0010    8.8670  -11.2550 C.3       3 GLC5        0.0000 
     27 CA        -14.1090    9.9330  -10.1330 C.3       9 GLL5        0.0000 
     28 CA        -15.8930    7.8010  -12.3770 C.3       6 GLP5        0.0000 
     29 CA        -16.0985    9.6675   -9.5455 C.3       3 GLC5        0.0000 
     30 CA        -13.0200   13.1660   -9.9460 C.3       3 GLC5        0.0000 
     31 CA        -14.2460   11.4540  -10.1670 C.3       9 GLL5        0.0000 
     32 CA        -11.7940   14.8780   -9.7250 C.3       6 GLP5        0.0000 
     33 CA        -14.9640   13.0475  -11.2040 C.3       3 GLC5        0.0000 
     34 CA        -15.6820   14.6410  -12.2410 C.3       6 GLP5        0.0000 
     35 CA         -8.5420    8.9480  -10.7915 C.3       3 GLC5        0.0000 
     36 CA         -9.4160    8.9660  -12.7720 C.3       9 GLL5        0.0000 
     37 CA         -7.6680    8.9300   -8.8110 C.3       6 GLP5        0.0000 
     38 CA        -11.0190   10.3425  -13.3500 C.3       3 GLC5        0.0000 
     39 CA        -12.6220   11.7190  -13.9280 C.3       6 GLP5        0.0000 
     40 CA        -10.4335    7.4785  -13.3390 C.3       3 GLC5        0.0000 
     41 CA         -8.1525    8.0710  -13.5920 C.3       3 GLC5        0.0000 
     42 CA         -6.8890    7.1760  -14.4120 C.3       6 GLP5        0.0000 
     43 CA         -9.0255    7.1740  -11.8585 C.3       3 GLC5        0.0000 
     44 CA         -8.6350    5.3820  -10.9450 C.3       6 GLP5        0.0000 
     45 CA        -16.1075    8.7470   -5.1730 C.3       3 GLC5        0.0000 
     46 CA        -16.0820   10.6190   -5.3540 C.3       9 GLL5        0.0000 
     47 CA        -16.1330    6.8750   -4.9920 C.3       6 GLP5        0.0000 
     48 CA        -16.2325   10.0145   -3.5525 C.3       3 GLC5        0.0000 
     49 CA        -17.8670   10.7540   -4.6765 C.3       3 GLC5        0.0000 
     50 CA        -19.6520   10.8890   -3.9990 C.3       6 GLP5        0.0000 
     51 CA        -17.0850   10.0105   -7.1560 C.3       3 GLC5        0.0000 
     52 CA        -16.5335   12.2125   -4.2175 C.3       3 GLC5        0.0000 
     53 CA        -16.9850   13.8060   -3.0810 C.3       6 GLP5        0.0000 
     54 CA        -11.3160   11.9740   -4.1295 C.3       3 GLC5        0.0000 
     55 CA        -12.5800   11.0480   -2.8860 C.3       9 GLL5        0.0000 
     56 CA        -10.0520   12.9000   -5.3730 C.3       6 GLP5        0.0000 
     57 N         -14.9770   13.2375   -2.0025 N.am      2 SEC2        0.0000 
     58 N         -14.1720   12.2220   -1.4250 N.am      8 SEL2        0.0000 
     59 N         -15.7820   14.2530   -2.5800 N.am      5 SEP2        0.0000 
     60 O         -15.2425   11.4740   -1.3900 O.2       1 ALC1        0.0000 
     61 O         -14.1720   12.2220   -1.4250 O.2       7 ALL1        0.0000 
     62 O         -16.3130   10.7260   -1.3550 O.2       4 ALP1        0.0000 
     63 CA        -13.2870   13.4140    1.3265 C.3       3 GLC5        0.0000 
     64 CA        -12.4480   11.5930    0.8800 C.3       9 GLL5        0.0000 
     65 CA        -14.1260   15.2350    1.7730 C.3       6 GLP5        0.0000 
     66 CA        -13.1235   11.4765    2.4800 C.3       3 GLC5        0.0000 
     67 CA        -13.7990   11.3600    4.0800 C.3       6 GLP5        0.0000 
     68 CA        -10.6960   12.1450    1.8370 C.3       3 GLC5        0.0000 
     69 CA         -8.9440   12.6970    2.7940 C.3       6 GLP5        0.0000 
     70 CA        -12.2085   14.4530    0.7145 C.3       3 GLC5        0.0000 
     71 CA        -11.4930   13.1830   -0.7970 C.3       9 GLL5        0.0000 
     72 CA        -12.9240   15.7230    2.2260 C.3       6 GLP5        0.0000 
     73 CA        -10.2185   12.9400    0.9985 C.3       3 GLC5        0.0000 
     74 CA        -10.4000   14.8335   -0.2285 C.3       3 GLC5        0.0000 
     75 CA         -9.3070   16.4840    0.3400 C.3       6 GLP5        0.0000 
     76 CA        -11.8955   14.9805   -1.6850 C.3       3 GLC5        0.0000 
     77 CA        -12.2980   16.7780   -2.5730 C.3       6 GLP5        0.0000 
     78 CA         -9.9785    9.4260   -2.2170 C.3       3 GLC5        0.0000 
     79 CA        -10.6750   10.8500   -0.6630 C.3       9 GLL5        0.0000 
     80 CA         -8.8370   11.1480   -1.0835 C.3       3 GLC5        0.0000 
     81 CA         -6.9990   11.4460   -1.5040 C.3       6 GLP5        0.0000 
     82 CA        -11.5220    8.8420   -0.7835 C.3       3 GLC5        0.0000 
     83 CA        -12.3690    6.8340   -0.9040 C.3       6 GLP5        0.0000 
     84 CA         -9.8095   11.7735    1.0655 C.3       3 GLC5        0.0000 
     85 CA         -8.5370   14.6450  -11.2550 C.3       3 GLC5        0.0000 
     86 CA         -9.4440   13.4790  -12.9130 C.3       9 GLL5        0.0000 
     87 CA         -7.6300   15.8110   -9.5970 C.3       6 GLP5        0.0000 
     88 CA        -10.6190   14.1785  -11.3190 C.3       3 GLC5        0.0000 
     89 CA         -9.9465   14.8570  -13.7600 C.3       3 GLC5        0.0000 
     90 CA        -10.4490   16.2350  -14.6070 C.3       6 GLP5        0.0000 
     91 CA         -6.1530   10.2935  -15.9995 C.3       3 GLC5        0.0000 
     92 CA         -7.3570   11.0330  -14.9070 C.3       9 GLL5        0.0000 
     93 CA         -4.9490    9.5540  -17.0920 C.3       6 GLP5        0.0000 
     94 CA         -5.6225   10.2765  -13.7200 C.3       3 GLC5        0.0000 
     95 CA         -3.8880    9.5200  -12.5330 C.3       6 GLP5        0.0000 
     96 CA         -8.2695    9.5295  -16.1550 C.3       3 GLC5        0.0000 
     97 CA         -9.1820    8.0260  -17.4030 C.3       6 GLP5        0.0000 
     98 CA         -7.1230    9.1045  -14.6595 C.3       3 GLC5        0.0000 
     99 N          -7.7915   15.3490  -13.2540 N.am      2 SEC2        0.0000 
    100 N          -8.5690   14.4440  -12.3610 N.am      8 SEL2        0.0000 
    101 N          -7.0140   16.2540  -14.1470 N.am      5 SEP2        0.0000 
    102 O          -7.9410   14.4645  -11.1950 O.2       1 ALC1        0.0000 
    103 O          -8.5690   14.4440  -12.3610 O.2       7 ALL1        0.0000 
    104 O          -7.3130   14.4850  -10.0290 O.2       4 ALP1        0.0000 
    105 N          -8.1125   11.1510  -17.0660 N.am      2 SEC2        0.0000 
    106 N          -8.4980   10.8940  -15.7820 N.am      8 SEL2        0.0000 
    107 N          -7.7270   11.4080  -18.3500 N.am      5 SEP2        0.0000 
    108 O          -9.1880    9.6850  -16.0130 O.2       1 ALC1        0.0000 
    109 O          -8.4980   10.8940  -15.7820 O.2       7 ALL1        0.0000 
    110 O          -9.8780    8.4760  -16.2440 O.2       4 ALP1        0.0000 
    111 CA        -11.1770   13.1850   -9.7728 C.3       3 GLC5        0.0000 
    112 CA        -11.1230   11.2190   -9.5060 C.3       9 GLL5        0.0000 
    113 CA        -11.1670   11.0642  -12.6660 C.3       3 GLC5        0.0000 
    114 CA         -9.4020   11.0520  -11.1770 C.3       9 GLL5        0.0000 
    115 CA        -12.0190   10.6775  -12.1788 C.3       3 GLC5        0.0000 
    116 CA        -11.4522   11.5525   -5.4961 C.3       3 GLC5        0.0000 
    117 CA        -15.0995    8.5835   -5.3996 C.3       3 GLC5        0.0000 
    118 CA        -13.3575    6.4997  -10.5180 C.3       3 GLC5        0.0000 
    119 CA        -13.0570    7.8720   -9.3620 C.3       9 GLL5        0.0000 
    120 CA        -14.1760    5.5490  -12.0430 C.3       6 GLP5        0.0000 
    121 CA        -13.7490    6.6087   -7.9465 C.3       3 GLC5        0.0000 
    122 CA        -13.3998   11.2063  -12.0390 C.3       3 GLC5        0.0000 
    123 CA        -14.6010   10.2897   -1.9593 C.3       3 GLC5        0.0000 
    124 CA        -10.8392   12.2677  -13.4688 C.3       3 GLC5        0.0000 
    125 CA         -7.4478   12.6825  -16.0817 C.3       3 GLC5        0.0000 
    126 CA         -7.4620   12.2870  -14.0180 C.3       9 GLL5        0.0000 
    127 CA         -7.4860   13.7050  -17.7010 C.3       6 GLP5        0.0000 
    128 CA         -9.0799    9.5538   -9.8401 C.3       3 GLC5        0.0000 
@<TRIPOS>BOND
@<TRIPOS>SUBSTRUCTURE
     1 ALC1       60 GROUP        1 X    ALC  0     ROOT ALC X 1
     2 SEC2       57 GROUP        1 X    SEC  0     **** SEC X 2
     3 GLC5        1 GROUP        1 X    GLC  0     **** GLC X 6
     4 ALP1       62 GROUP        1 Y    ALP  0     ROOT ALP Y 8
     5 SEP2       59 GROUP        1 Y    SEP  0     **** SEP Y 9
     6 GLP5        3 GROUP        1 Y    GLP  0     **** GLP Y 13
     7 ALL1       61 GROUP        1 Z    ALL  0     ROOT ALL Z 15
     8 SEL2       58 GROUP        1 Z    SEL  0     **** SEL Z 16
     9 GLL5        2 GROUP        1 Z    GLL  0     **** GLL Z 20
@<TRIPOS>SET

