#    Name: 3aun_YR4_1_ligand
#    Modification time : Mon Mar 24 18:13:39 2014

@<TRIPOS>MOLECULE
3aun_YR4_1_ligand
   78    79     1     0     0
SMALL
NO_CHARGES


@<TRIPOS>ATOM
      1 C1        -11.1230   11.2190   -9.5060 C.ar      1 YR41        0.0000 
      2 C2         -9.9970   11.7650  -10.1350 C.ar      1 YR41        0.0000 
      3 C3         -9.4020   11.0520  -11.1770 C.ar      1 YR41        0.0000 
      4 C4        -10.0220    9.7670  -11.6310 C.ar      1 YR41        0.0000 
      5 C5        -11.1310    9.2920  -10.9730 C.ar      1 YR41        0.0000 
      6 C6        -11.7010    9.9800   -9.8860 C.ar      1 YR41        0.0000 
      7 C7        -12.9580    9.4110   -9.2440 C.3       1 YR41        0.0000 
      8 C8        -13.1970    9.7720   -7.7670 C.ar      1 YR41        0.0000 
      9 C9        -12.1000    9.8520   -6.8870 C.ar      1 YR41        0.0000 
     10 C10       -14.4990   10.0190   -7.2610 C.ar      1 YR41        0.0000 
     11 C11       -14.7050   10.3430   -5.9200 C.ar      1 YR41        0.0000 
     12 C12       -13.5300   10.4030   -5.0240 C.ar      1 YR41        0.0000 
     13 C13       -12.2500   10.1620   -5.5420 C.ar      1 YR41        0.0000 
     14 C14       -13.0570    7.8720   -9.3620 C.3       1 YR41        0.0000 
     15 C15       -12.0210    7.0290   -8.6240 C.3       1 YR41        0.0000 
     16 C16       -14.1090    9.9330  -10.1330 C.3       1 YR41        0.0000 
     17 C17       -14.2460   11.4540  -10.1670 C.3       1 YR41        0.0000 
     18 C18        -9.4160    8.9660  -12.7720 C.3       1 YR41        0.0000 
     19 C19       -16.0820   10.6190   -5.3540 C.3       1 YR41        0.0000 
     20 O20       -13.7010   10.7170   -3.7020 O.3       1 YR41        0.0000 
     21 O21        -8.3210   11.5550  -11.8400 O.3       1 YR41        0.0000 
     22 C22       -12.5800   11.0480   -2.8860 C.3       1 YR41        0.0000 
     23 C23       -13.0580   11.2910   -1.4490 C.3       1 YR41        0.0000 
     24 C24       -11.9120   11.7370   -0.5360 C.3       1 YR41        0.0000 
     25 O25       -14.1720   12.2220   -1.4250 O.3       1 YR41        0.0000 
     26 C26       -12.4480   11.5930    0.8800 C.3       1 YR41        0.0000 
     27 C27       -11.4930   13.1830   -0.7970 C.3       1 YR41        0.0000 
     28 C28       -10.6750   10.8500   -0.6630 C.3       1 YR41        0.0000 
     29 C29        -8.6690   12.1540  -13.1060 C.3       1 YR41        0.0000 
     30 C30        -7.4620   12.2870  -14.0180 C.3       1 YR41        0.0000 
     31 C31        -9.4440   13.4790  -12.9130 C.3       1 YR41        0.0000 
     32 C32        -7.3570   11.0330  -14.9070 C.3       1 YR41        0.0000 
     33 O33        -8.5690   14.4440  -12.3610 O.3       1 YR41        0.0000 
     34 O34        -8.4980   10.8940  -15.7820 O.3       1 YR41        0.0000 
     35 H         -11.5645   11.7437   -8.7177 H         1 YR41        0.0000 
     36 H          -9.6228   12.6615   -9.8374 H         1 YR41        0.0000 
     37 H         -11.5723    8.3989  -11.2767 H         1 YR41        0.0000 
     38 H         -11.1470    9.6709   -7.2666 H         1 YR41        0.0000 
     39 H         -15.3024    9.9552   -7.9054 H         1 YR41        0.0000 
     40 H         -11.4330   10.2158   -4.9262 H         1 YR41        0.0000 
     41 H         -13.0277    7.6071  -10.4487 H         1 YR41        0.0000 
     42 H         -14.0780    7.5653   -9.0221 H         1 YR41        0.0000 
     43 H         -15.0547    9.4927   -9.7737 H         1 YR41        0.0000 
     44 H         -13.9530    9.5610  -11.1599 H         1 YR41        0.0000 
     45 H         -12.0797   11.9585   -3.2270 H         1 YR41        0.0000 
     46 H         -11.8418   10.2419   -2.8575 H         1 YR41        0.0000 
     47 H         -13.4061   10.3065   -1.0659 H         1 YR41        0.0000 
     48 H          -9.3862   11.4621  -13.6311 H         1 YR41        0.0000 
     49 H          -6.5615   12.3737  -13.4250 H         1 YR41        0.0000 
     50 H          -7.5737   13.1575  -14.6502 H         1 YR41        0.0000 
     51 H         -10.2936   13.2634  -12.2610 H         1 YR41        0.0000 
     52 H          -9.8272   13.7738  -13.8926 H         1 YR41        0.0000 
     53 H          -7.2551   10.1617  -14.2399 H         1 YR41        0.0000 
     54 H          -6.4193   11.1113  -15.4807 H         1 YR41        0.0000 
     55 H         -11.0913    7.2276   -8.9343 H         1 YR41        0.0000 
     56 H         -12.0423    7.1938   -7.6379 H         1 YR41        0.0000 
     57 H         -12.1729    6.0501   -8.7610 H         1 YR41        0.0000 
     58 H         -13.4169   11.8940  -10.5120 H         1 YR41        0.0000 
     59 H         -14.9995   11.7459  -10.7560 H         1 YR41        0.0000 
     60 H         -14.4215   11.8315   -9.2578 H         1 YR41        0.0000 
     61 H          -8.4769    8.6866  -12.5719 H         1 YR41        0.0000 
     62 H          -9.9364    8.1326  -12.9582 H         1 YR41        0.0000 
     63 H          -9.3905    9.4917  -13.6223 H         1 YR41        0.0000 
     64 H         -16.0457   10.8381   -4.3790 H         1 YR41        0.0000 
     65 H         -16.5238   11.3907   -5.8116 H         1 YR41        0.0000 
     66 H         -16.6898    9.8313   -5.4550 H         1 YR41        0.0000 
     67 H         -11.7685   11.8603    1.5633 H         1 YR41        0.0000 
     68 H         -13.2556   12.1630    1.0312 H         1 YR41        0.0000 
     69 H         -12.7125   10.6502    1.0829 H         1 YR41        0.0000 
     70 H         -10.7445   13.4667   -0.1977 H         1 YR41        0.0000 
     71 H         -11.1813   13.3153   -1.7379 H         1 YR41        0.0000 
     72 H         -12.2477   13.8214   -0.6457 H         1 YR41        0.0000 
     73 H         -10.3144   10.8468   -1.5957 H         1 YR41        0.0000 
     74 H          -9.9353   11.1563   -0.0638 H         1 YR41        0.0000 
     75 H         -10.8730    9.8999   -0.4221 H         1 YR41        0.0000 
     76 H         -14.9675   11.6807   -1.6974 H         1 YR41        0.0000 
     77 H          -8.3332   14.0914  -11.4554 H         1 YR41        0.0000 
     78 H          -8.7369    9.9237  -15.7434 H         1 YR41        0.0000 
@<TRIPOS>BOND
     1    2    1 ar   
     2    6    1 ar   
     3   35    1 1    
     4    3    2 ar   
     5   36    2 1    
     6    4    3 ar   
     7   21    3 1    
     8    5    4 ar   
     9   18    4 1    
    10    6    5 ar   
    11   37    5 1    
    12    7    6 1    
    13    8    7 1    
    14   14    7 1    
    15   16    7 1    
    16    9    8 ar   
    17   10    8 ar   
    18   13    9 ar   
    19   38    9 1    
    20   11   10 ar   
    21   39   10 1    
    22   12   11 ar   
    23   19   11 1    
    24   13   12 ar   
    25   20   12 1    
    26   40   13 1    
    27   15   14 1    
    28   41   14 1    
    29   42   14 1    
    30   55   15 1    
    31   56   15 1    
    32   57   15 1    
    33   17   16 1    
    34   43   16 1    
    35   44   16 1    
    36   58   17 1    
    37   59   17 1    
    38   60   17 1    
    39   61   18 1    
    40   62   18 1    
    41   63   18 1    
    42   64   19 1    
    43   65   19 1    
    44   66   19 1    
    45   22   20 1    
    46   29   21 1    
    47   23   22 1    
    48   45   22 1    
    49   46   22 1    
    50   24   23 1    
    51   25   23 1    
    52   47   23 1    
    53   26   24 1    
    54   27   24 1    
    55   28   24 1    
    56   76   25 1    
    57   67   26 1    
    58   68   26 1    
    59   69   26 1    
    60   70   27 1    
    61   71   27 1    
    62   72   27 1    
    63   73   28 1    
    64   74   28 1    
    65   75   28 1    
    66   30   29 1    
    67   31   29 1    
    68   48   29 1    
    69   32   30 1    
    70   49   30 1    
    71   50   30 1    
    72   33   31 1    
    73   51   31 1    
    74   52   31 1    
    75   34   32 1    
    76   53   32 1    
    77   54   32 1    
    78   77   33 1    
    79   78   34 1    
@<TRIPOS>SUBSTRUCTURE
     1 YR41        1 GROUP   
@<TRIPOS>SET

