#    Name: 4elu_0R6_1_INTS_M
#    Modification time : Mon Mar 24 18:15:57 2014

@<TRIPOS>MOLECULE
4elu_0R6_1_INTS_M
   80     0    12     0     0
SMALL
NO_CHARGES


@<TRIPOS>ATOM
      1 N          18.2635  -22.1660   -5.8905 N.am      1 SEC2        0.0000 
      2 N          18.4870  -20.7180   -5.6830 N.am      9 SEL2        0.0000 
      3 N          18.0400  -23.6140   -6.0980 N.am      5 SEP2        0.0000 
      4 CA         20.0040  -14.0325   -4.6265 C.3       4 GLC5        0.0000 
      5 CA         20.5200  -14.5640   -6.7440 C.3      12 GLL5        0.0000 
      6 CA         19.4880  -13.5010   -2.5090 C.3       8 GLP5        0.0000 
      7 CA         18.7515  -12.4885   -6.4380 C.3       4 GLC5        0.0000 
      8 CA         20.6460  -12.3000   -6.0480 C.3      12 GLL5        0.0000 
      9 CA         16.8570  -12.6770   -6.8280 C.3       8 GLP5        0.0000 
     10 CA         20.0670  -12.9005   -4.2785 C.3       4 GLC5        0.0000 
     11 CA         21.6160   -7.5175   -9.0005 C.3       4 GLC5        0.0000 
     12 CA         22.7330   -8.3630   -7.9210 C.3      12 GLL5        0.0000 
     13 CA         20.4990   -6.6720  -10.0800 C.3       8 GLP5        0.0000 
     14 CA         16.6855  -21.4265   -9.5830 C.3       4 GLC5        0.0000 
     15 CA         17.4610  -19.8870   -8.6810 C.3      12 GLL5        0.0000 
     16 CA         15.9100  -22.9660  -10.4850 C.3       8 GLP5        0.0000 
     17 CA         16.1210  -20.5675  -10.0695 C.3       4 GLC5        0.0000 
     18 CA         17.5900  -19.0180   -9.9270 C.3      12 GLL5        0.0000 
     19 CA         14.6520  -22.1170  -10.2120 C.3       8 GLP5        0.0000 
     20 N          15.4620  -19.9940  -11.5740 N.am      1 SEC2        0.0000 
     21 N          16.4650  -19.1750  -10.8140 N.am      9 SEL2        0.0000 
     22 N          14.4590  -20.8130  -12.3340 N.am      5 SEP2        0.0000 
     23 CA         20.1055  -19.3220  -13.3325 C.3       4 GLC5        0.0000 
     24 CA         19.5740  -18.5400  -11.4580 C.3      12 GLL5        0.0000 
     25 CA         20.6370  -20.1040  -15.2070 C.3       8 GLP5        0.0000 
     26 Zn         19.4790  -16.0380  -13.6890 Zn        3 ZIC7        0.0000 
     27 Zn         20.0720  -15.9970  -12.8260 Zn       11 ZIL7        0.0000 
     28 Zn         18.8860  -16.0790  -14.5520 Zn        7 ZIP7        0.0000 
     29 Zn         21.1915  -16.0780  -13.2075 Zn        3 ZIC7        0.0000 
     30 Zn         22.3110  -16.1590  -13.5890 Zn        7 ZIP7        0.0000 
     31 NZ         19.9255  -13.6695  -10.6125 N.4       2 LYC4        0.0000 
     32 NZ         20.4410  -14.9100  -10.5270 N.4      10 LYL4        0.0000 
     33 NZ         19.4100  -12.4290  -10.6980 N.4       6 LYP4        0.0000 
     34 N          19.9255  -13.6695  -10.6125 N.am      1 SEC2        0.0000 
     35 N          20.4410  -14.9100  -10.5270 N.am      9 SEL2        0.0000 
     36 N          19.4100  -12.4290  -10.6980 N.am      5 SEP2        0.0000 
     37 Zn         18.1010  -16.3675  -13.9420 Zn        3 ZIC7        0.0000 
     38 Zn         17.3160  -16.6560  -13.3320 Zn       11 ZIL7        0.0000 
     39 N          16.0560  -17.5495  -13.6540 N.am      1 SEC2        0.0000 
     40 N          17.3160  -16.6560  -13.3320 N.am      9 SEL2        0.0000 
     41 N          14.7960  -18.4430  -13.9760 N.am      5 SEP2        0.0000 
     42 N          14.9490  -15.3450  -10.6385 N.am      1 SEC2        0.0000 
     43 N          15.7870  -16.4360  -11.2670 N.am      9 SEL2        0.0000 
     44 N          14.1110  -14.2540  -10.0100 N.am      5 SEP2        0.0000 
     45 N          15.5015  -15.0285  -13.5560 N.am      1 SEC2        0.0000 
     46 N          16.5240  -14.3620  -12.3930 N.am      9 SEL2        0.0000 
     47 N          14.4790  -15.6950  -14.7190 N.am      5 SEP2        0.0000 
     48 Zn         18.5490  -15.1235  -14.4055 Zn        3 ZIC7        0.0000 
     49 Zn         18.2120  -14.1680  -14.2590 Zn       11 ZIL7        0.0000 
     50 NZ         15.0295  -12.0705  -13.9565 N.4       2 LYC4        0.0000 
     51 NZ         15.8860  -13.1420  -14.4260 N.4      10 LYL4        0.0000 
     52 NZ         14.6290   -9.8750  -12.9420 N.4       6 LYP4        0.0000 
     53 N          15.1825  -14.4185  -14.5725 N.am      1 SEC2        0.0000 
     54 N          15.8860  -13.1420  -14.4260 N.am      9 SEL2        0.0000 
     55 N          15.0295  -12.0705  -13.9565 N.am      1 SEC2        0.0000 
     56 N          14.1730  -10.9990  -13.4870 N.am      5 SEP2        0.0000 
     57 NZ         16.7335  -11.0110  -12.6450 N.4       2 LYC4        0.0000 
     58 NZ         17.5920  -12.1980  -12.7980 N.4      10 LYL4        0.0000 
     59 NZ         18.5010  -12.3135  -11.7480 N.4       2 LYC4        0.0000 
     60 N          16.7335  -11.0110  -12.6450 N.am      1 SEC2        0.0000 
     61 N          17.5920  -12.1980  -12.7980 N.am      9 SEL2        0.0000 
     62 N          15.8750   -9.8240  -12.4920 N.am      5 SEP2        0.0000 
     63 N          18.5010  -12.3135  -11.7480 N.am      1 SEC2        0.0000 
     64 CA         18.5915  -13.9030   -6.7445 C.3       4 GLC5        0.0000 
     65 CA         22.8072  -11.3895   -5.5758 C.3       4 GLC5        0.0000 
     66 CA         24.7400  -11.1310   -4.9780 C.3       8 GLP5        0.0000 
     67 CA         23.3730  -11.1805   -6.4343 C.3       4 GLC5        0.0000 
     68 CA         21.8560  -10.7220   -7.4470 C.3      12 GLL5        0.0000 
     69 CA         23.9765   -9.5575   -6.8723 C.3       4 GLC5        0.0000 
     70 CA         22.2950   -9.5370   -7.6820 C.3      12 GLL5        0.0000 
     71 CA         25.4390  -10.1650   -5.9430 C.3       8 GLP5        0.0000 
     72 CA         20.5356   -8.8740   -7.7038 C.3       4 GLC5        0.0000 
     73 CA         19.1840   -7.5500   -8.1300 C.3       8 GLP5        0.0000 
     74 CA         16.1088  -18.6022   -8.9735 C.3       4 GLC5        0.0000 
     75 CA         14.6920  -17.7520   -8.6430 C.3       8 GLP5        0.0000 
     76 CA         18.0457  -19.6199  -12.3465 C.3       4 GLC5        0.0000 
     77 CA         17.1870  -20.3300  -13.8480 C.3       8 GLP5        0.0000 
     78 CA         20.1254  -11.8308   -8.4401 C.3       4 GLC5        0.0000 
     79 CA         22.1560  -11.7380   -8.3340 C.3      12 GLL5        0.0000 
     80 CA         18.6450  -12.0030   -9.4820 C.3       8 GLP5        0.0000 
@<TRIPOS>BOND
@<TRIPOS>SUBSTRUCTURE
     1 SEC2        1 GROUP        1 X    SEC  0     ROOT SEC X 2
     2 LYC4       31 GROUP        1 X    LYC  0     **** LYC X 4
     3 ZIC7       26 GROUP        1 X    ZIC  0     **** ZIC X 5
     4 GLC5        4 GROUP        1 X    GLC  0     **** GLC X 6
     5 SEP2        3 GROUP        1 Y    SEP  0     ROOT SEP Y 9
     6 LYP4       33 GROUP        1 Y    LYP  0     **** LYP Y 11
     7 ZIP7       28 GROUP        1 Y    ZIP  0     **** ZIP Y 12
     8 GLP5        6 GROUP        1 Y    GLP  0     **** GLP Y 13
     9 SEL2        2 GROUP        1 Z    SEL  0     ROOT SEL Z 16
    10 LYL4       32 GROUP        1 Z    LYL  0     **** LYL Z 18
    11 ZIL7       27 GROUP        1 Z    ZIL  0     **** ZIL Z 19
    12 GLL5        5 GROUP        1 Z    GLL  0     **** GLL Z 20
@<TRIPOS>SET

