#    Name: 4elu_0R6_1_ligand
#    Modification time : Mon Mar 24 18:15:57 2014

@<TRIPOS>MOLECULE
4elu_0R6_1_ligand
   53    55     1     0     0
SMALL
NO_CHARGES


@<TRIPOS>ATOM
      1 O2         18.4870  -20.7180   -5.6830 O.2       1 0R6901      0.0000 
      2 C2         18.8630  -19.5390   -5.8790 C.2       1 0R6901      0.0000 
      3 N3         19.0130  -18.6860   -4.8290 N.2       1 0R6901      0.0000 
      4 C4         19.4340  -17.4130   -5.0320 C.2       1 0R6901      0.0000 
      5 N4         19.5730  -16.5710   -3.9790 N.pl3     1 0R6901      0.0000 
      6 C5         19.7270  -16.9280   -6.4010 C.2       1 0R6901      0.0000 
      7 C29        20.1320  -15.6940   -6.5780 C.1       1 0R6901      0.0000 
      8 C30        20.5200  -14.5640   -6.7440 C.1       1 0R6901      0.0000 
      9 C31        20.9270  -13.3290   -6.9490 C.ar      1 0R6901      0.0000 
     10 C36        20.6460  -12.3000   -6.0480 C.ar      1 0R6901      0.0000 
     11 C35        21.1030  -10.9960   -6.2990 C.ar      1 0R6901      0.0000 
     12 C34        21.8560  -10.7220   -7.4470 C.ar      1 0R6901      0.0000 
     13 C37        22.2950   -9.5370   -7.6820 C.1       1 0R6901      0.0000 
     14 C38        22.7330   -8.3630   -7.9210 C.1       1 0R6901      0.0000 
     15 C33        22.1560  -11.7380   -8.3340 C.ar      1 0R6901      0.0000 
     16 C32        21.6900  -13.0280   -8.0770 C.ar      1 0R6901      0.0000 
     17 C6         19.5560  -17.8540   -7.4410 C.2       1 0R6901      0.0000 
     18 N1         19.1430  -19.1180   -7.1940 N.am      1 0R6901      0.0000 
     19 C1'        18.9080  -20.1260   -8.2560 C.3       1 0R6901      0.0000 
     20 C2'        17.4610  -19.8870   -8.6810 C.3       1 0R6901      0.0000 
     21 C3'        17.5900  -19.0180   -9.9270 C.3       1 0R6901      0.0000 
     22 O3'        16.4650  -19.1750  -10.8140 O.3       1 0R6901      0.0000 
     23 O4'        19.6980  -19.9050   -9.4220 O.3       1 0R6901      0.0000 
     24 C4'        18.8800  -19.5410  -10.5370 C.3       1 0R6901      0.0000 
     25 C5'        19.5740  -18.5400  -11.4580 C.3       1 0R6901      0.0000 
     26 O5'        19.9260  -17.3910  -10.6810 O.3       1 0R6901      0.0000 
     27 PA         19.7420  -15.9590  -11.3590 P.3       1 0R6901      0.0000 
     28 O1A        20.0720  -15.9970  -12.8260 O.co2     1 0R6901      0.0000 
     29 O2A        20.4410  -14.9100  -10.5270 O.co2     1 0R6901      0.0000 
     30 O3A        18.1640  -15.7380  -11.0760 O.3       1 0R6901      0.0000 
     31 PB         16.9230  -15.8890  -12.0980 P.3       1 0R6901      0.0000 
     32 O1B        17.3160  -16.6560  -13.3320 O.co2     1 0R6901      0.0000 
     33 O2B        15.7870  -16.4360  -11.2670 O.co2     1 0R6901      0.0000 
     34 O3B        16.5240  -14.3620  -12.3930 O.3       1 0R6901      0.0000 
     35 PG         17.1040  -13.4060  -13.5610 P.3       1 0R6901      0.0000 
     36 O3G        18.2120  -14.1680  -14.2590 O.co2     1 0R6901      0.0000 
     37 O1G        15.8860  -13.1420  -14.4260 O.co2     1 0R6901      0.0000 
     38 O2G        17.5920  -12.1980  -12.7980 O.co2     1 0R6901      0.0000 
     39 H          19.3685  -16.9550   -3.0786 H         1 0R6901      0.0000 
     40 H          19.8677  -15.6403   -4.1957 H         1 0R6901      0.0000 
     41 H          20.1037  -12.4937   -5.1981 H         1 0R6901      0.0000 
     42 H          20.8833  -10.2430   -5.6377 H         1 0R6901      0.0000 
     43 H          22.7137  -11.5528   -9.1725 H         1 0R6901      0.0000 
     44 H          21.9194  -13.7899   -8.7490 H         1 0R6901      0.0000 
     45 H          19.7565  -17.5409   -8.4138 H         1 0R6901      0.0000 
     46 H          18.9750  -21.1007   -7.8762 H         1 0R6901      0.0000 
     47 H          16.9470  -19.3547   -7.9216 H         1 0R6901      0.0000 
     48 H          17.0030  -20.8101   -8.9309 H         1 0R6901      0.0000 
     49 H          17.7540  -18.0174   -9.6130 H         1 0R6901      0.0000 
     50 H          18.6278  -20.4327  -11.1113 H         1 0R6901      0.0000 
     51 H          18.8845  -18.2897  -12.2630 H         1 0R6901      0.0000 
     52 H          20.4508  -19.0263  -11.8833 H         1 0R6901      0.0000 
     53 H          16.1531  -18.2440  -11.0035 H         1 0R6901      0.0000 
@<TRIPOS>BOND
     1    2    1 2    
     2    3    2 1    
     3   18    2 am   
     4    4    3 2    
     5    5    4 1    
     6    6    4 1    
     7   39    5 1    
     8   40    5 1    
     9    7    6 1    
    10   17    6 2    
    11    8    7 3    
    12    9    8 1    
    13   10    9 ar   
    14   16    9 ar   
    15   11   10 ar   
    16   41   10 1    
    17   12   11 ar   
    18   42   11 1    
    19   13   12 1    
    20   15   12 ar   
    21   14   13 3    
    22   16   15 ar   
    23   43   15 1    
    24   44   16 1    
    25   18   17 1    
    26   45   17 1    
    27   19   18 1    
    28   20   19 1    
    29   23   19 1    
    30   46   19 1    
    31   21   20 1    
    32   47   20 1    
    33   48   20 1    
    34   22   21 1    
    35   24   21 1    
    36   49   21 1    
    37   53   22 1    
    38   24   23 1    
    39   25   24 1    
    40   50   24 1    
    41   26   25 1    
    42   51   25 1    
    43   52   25 1    
    44   27   26 1    
    45   28   27 ar   
    46   29   27 ar   
    47   30   27 1    
    48   31   30 1    
    49   32   31 ar   
    50   33   31 ar   
    51   34   31 1    
    52   35   34 1    
    53   36   35 ar   
    54   37   35 ar   
    55   38   35 ar   
@<TRIPOS>SUBSTRUCTURE
     1 0R6901      1 GROUP   
@<TRIPOS>SET

