#    Name: 4ACF_2_CAVITY_N1_6.mol2
#    Modification time : Tue Mar 11 17:00:54 2014

@<TRIPOS>MOLECULE
4ACF_2_CAVITY_N1_6.mol2
   12     0     5     0     0
SMALL
NO_CHARGES


@<TRIPOS>ATOM
      1 O         -22.8006   84.7378   17.0089 O.2       1 ALA2        0.0000 
      2 OD1       -22.8174   83.4982   17.8534 O.3       2 ASP3        0.0000 
      3 OD1       -22.8934   82.6555   16.6148 O.3       2 ASP3        0.0000 
      4 N         -22.9694   81.8127   15.3763 N.2       1 ALA2        0.0000 
      5 O         -22.7079   86.8201   17.4029 O.2       1 ALA2        0.0000 
      6 CA        -24.4841   80.6297   16.2742 C.3       4 GLY6        0.0000 
      7 DU        -24.3746   83.9517   15.8237 H         5 CUB7        0.0000 
      8 NZ        -24.3913   82.7121   16.6682 N.2       3 LYS4        0.0000 
      9 OD1       -21.3027   84.6812   16.9555 O.3       2 ASP3        0.0000 
     10 O         -24.2986   84.7944   17.0623 O.2       1 ALA2        0.0000 
     11 OD1       -24.3153   83.5548   17.9068 O.3       2 ASP3        0.0000 
     12 O         -25.7966   84.8510   17.1157 O.2       1 ALA2        0.0000 
@<TRIPOS>BOND
@<TRIPOS>SUBSTRUCTURE
     1 ALA2        1 GROUP   
     2 ASP3        2 GROUP   
     3 LYS4        8 GROUP   
     4 GLY6        6 GROUP   
     5 CUB7        7 GROUP   
@<TRIPOS>SET

