#    Name: 4ACF_2_CAVITY_N1_ALL.mol2
#    Modification time : Tue Mar 11 17:00:54 2014

@<TRIPOS>MOLECULE
4ACF_2_CAVITY_N1_ALL.mol2
   79     0     5     0     0
SMALL
NO_CHARGES


@<TRIPOS>ATOM
      1 O         -26.0246   82.3228   13.4000 O.2       1 ALA2        0.0000 
      2 N         -26.0413   81.0832   14.2445 N.2       1 ALA2        0.0000 
      3 CA        -26.0580   79.8436   15.0890 C.3       4 GLY6        0.0000 
      4 CA        -22.7672   87.2170   15.3199 C.3       4 GLY6        0.0000 
      5 CA        -22.7839   85.9774   16.1644 C.3       4 GLY6        0.0000 
      6 O         -22.8006   84.7378   17.0089 O.2       1 ALA2        0.0000 
      7 OD1       -22.8174   83.4982   17.8534 O.3       2 ASP3        0.0000 
      8 CA        -22.8432   86.3742   14.0814 C.3       4 GLY6        0.0000 
      9 CA        -22.8599   85.1347   14.9259 C.3       4 GLY6        0.0000 
     10 OD1       -22.8766   83.8951   15.7703 O.3       2 ASP3        0.0000 
     11 OD1       -22.8934   82.6555   16.6148 O.3       2 ASP3        0.0000 
     12 DU        -22.9192   85.5315   12.8428 H         5 CUB7        0.0000 
     13 DU        -22.9359   84.2919   13.6873 H         5 CUB7        0.0000 
     14 DU        -22.9526   83.0523   14.5318 H         5 CUB7        0.0000 
     15 N         -22.9694   81.8127   15.3763 N.2       1 ALA2        0.0000 
     16 DU        -21.5732   83.7894   10.3123 H         5 CUB7        0.0000 
     17 NZ        -21.5899   82.5498   11.1568 N.2       3 LYS4        0.0000 
     18 NZ        -21.6066   81.3102   12.0013 N.2       3 LYS4        0.0000 
     19 O         -26.1006   81.4800   12.1615 O.2       1 ALA2        0.0000 
     20 NZ        -26.1173   80.2404   13.0060 N.2       3 LYS4        0.0000 
     21 CA        -18.5012   84.5189   11.4441 C.3       4 GLY6        0.0000 
     22 CA        -18.5180   83.2794   12.2885 C.3       4 GLY6        0.0000 
     23 CA        -18.5347   82.0398   13.1330 C.3       4 GLY6        0.0000 
     24 CA        -18.5772   83.6762   10.2055 C.3       4 GLY6        0.0000 
     25 CA        -18.5940   82.4366   11.0500 C.3       4 GLY6        0.0000 
     26 N         -18.6107   81.1970   11.8945 N.2       1 ALA2        0.0000 
     27 O         -18.4252   85.3617   12.6826 O.2       1 ALA2        0.0000 
     28 OD1       -18.4420   84.1221   13.5271 O.3       2 ASP3        0.0000 
     29 O         -22.7079   86.8201   17.4029 O.2       1 ALA2        0.0000 
     30 N         -25.9486   83.1655   14.6386 N.2       1 ALA2        0.0000 
     31 O         -24.4171   85.5881   12.8962 O.2       1 ALA2        0.0000 
     32 O         -24.4339   84.3485   13.7407 O.2       1 ALA2        0.0000 
     33 O         -24.4506   83.1089   14.5852 O.2       1 ALA2        0.0000 
     34 N         -24.4673   81.8693   15.4297 N.2       1 ALA2        0.0000 
     35 CA        -24.4841   80.6297   16.2742 C.3       4 GLY6        0.0000 
     36 O         -24.4931   84.7453   11.6577 O.2       1 ALA2        0.0000 
     37 O         -24.5099   83.5058   12.5022 O.2       1 ALA2        0.0000 
     38 O         -24.5266   82.2662   13.3466 O.2       1 ALA2        0.0000 
     39 NZ        -24.5433   81.0266   14.1911 N.2       3 LYS4        0.0000 
     40 CA        -24.5601   79.7870   15.0356 C.3       4 GLY6        0.0000 
     41 O         -24.5859   82.6630   11.2636 O.2       1 ALA2        0.0000 
     42 NZ        -24.6026   81.4234   12.1081 N.2       3 LYS4        0.0000 
     43 NZ        -24.6193   80.1838   12.9526 N.2       3 LYS4        0.0000 
     44 DU        -21.4972   84.6321   11.5509 H         5 CUB7        0.0000 
     45 DU        -21.5139   83.3926   12.3954 H         5 CUB7        0.0000 
     46 CA        -21.5306   82.1530   13.2398 C.3       4 GLY6        0.0000 
     47 N         -21.5474   80.9134   14.0843 N.2       1 ALA2        0.0000 
     48 CA        -17.0200   83.2228   12.2351 C.3       4 GLY6        0.0000 
     49 CA        -21.3619   85.0781   14.8724 C.3       4 GLY6        0.0000 
     50 CA        -21.4212   85.4749   12.7894 C.3       4 GLY6        0.0000 
     51 OD1       -21.4379   84.2353   13.6339 O.3       2 ASP3        0.0000 
     52 OD1       -21.4546   82.9957   14.4784 O.3       2 ASP3        0.0000 
     53 O         -24.3411   86.4308   14.1348 O.2       1 ALA2        0.0000 
     54 O         -24.3579   85.1912   14.9793 O.2       1 ALA2        0.0000 
     55 DU        -24.3746   83.9517   15.8237 H         5 CUB7        0.0000 
     56 NZ        -24.3913   82.7121   16.6682 N.2       3 LYS4        0.0000 
     57 DU        -23.0712   83.8460   10.3657 H         5 CUB7        0.0000 
     58 NZ        -23.0879   82.6064   11.2102 N.2       3 LYS4        0.0000 
     59 CA        -21.2859   85.9208   16.1110 C.3       4 GLY6        0.0000 
     60 OD1       -21.3027   84.6812   16.9555 O.3       2 ASP3        0.0000 
     61 O         -25.8559   85.2478   15.0327 O.2       1 ALA2        0.0000 
     62 O         -24.2652   87.2736   15.3733 O.2       1 ALA2        0.0000 
     63 O         -24.2819   86.0340   16.2178 O.2       1 ALA2        0.0000 
     64 O         -24.2986   84.7944   17.0623 O.2       1 ALA2        0.0000 
     65 OD1       -24.3153   83.5548   17.9068 O.3       2 ASP3        0.0000 
     66 DU        -22.9952   84.6887   11.6043 H         5 CUB7        0.0000 
     67 DU        -23.0119   83.4492   12.4488 H         5 CUB7        0.0000 
     68 NZ        -23.0286   82.2096   13.2932 N.2       3 LYS4        0.0000 
     69 N         -23.0454   80.9700   14.1377 N.2       1 ALA2        0.0000 
     70 N         -19.8639   85.0215   14.8190 N.2       1 ALA2        0.0000 
     71 O         -19.9232   85.4183   12.7360 O.2       1 ALA2        0.0000 
     72 OD1       -19.9399   84.1787   13.5805 O.3       2 ASP3        0.0000 
     73 O         -25.7966   84.8510   17.1157 O.2       1 ALA2        0.0000 
     74 CA        -19.9992   84.5755   11.4975 C.3       4 GLY6        0.0000 
     75 DU        -20.0159   83.3360   12.3419 H         5 CUB7        0.0000 
     76 CA        -20.0327   82.0964   13.1864 C.3       4 GLY6        0.0000 
     77 DU        -20.0752   83.7328   10.2589 H         5 CUB7        0.0000 
     78 CA        -20.0919   82.4932   11.1034 C.3       4 GLY6        0.0000 
     79 CA        -20.1087   81.2536   11.9479 C.3       4 GLY6        0.0000 
@<TRIPOS>BOND
@<TRIPOS>SUBSTRUCTURE
     1 ALA2        1 GROUP   
     2 ASP3        7 GROUP   
     3 LYS4       17 GROUP   
     4 GLY6        3 GROUP   
     5 CUB7       12 GROUP   
@<TRIPOS>SET

