#    Name: 4acf_P3S_2_INTS_M
#    Modification time : Tue Mar 25 05:28:53 2014

@<TRIPOS>MOLECULE
4acf_P3S_2_INTS_M
   64     0    18     0     0
SMALL
NO_CHARGES


@<TRIPOS>ATOM
      1 Zn        -25.4055   82.3310   20.9210 Zn        5 ZIC7        0.0000 
      2 Zn        -24.6660   82.5710   21.5660 Zn       17 ZIL7        0.0000 
      3 Zn        -26.1450   82.0910   20.2760 Zn       11 ZIP7        0.0000 
      4 N         -25.9125   83.3855   22.3100 N.am      2 SEC2        0.0000 
      5 N         -24.6660   82.5710   21.5660 N.am     14 SEL2        0.0000 
      6 N         -27.1590   84.2000   23.0540 N.am      8 SEP2        0.0000 
      7 NZ        -22.5690   84.7390   21.3670 N.4       4 LYC4        0.0000 
      8 NZ        -22.3200   83.4790   22.0350 N.4      16 LYL4        0.0000 
      9 NZ        -23.1630   86.7260   21.7580 N.4      10 LYP4        0.0000 
     10 N         -22.8255   84.8090   22.4895 N.am      2 SEC2        0.0000 
     11 N         -22.3200   83.4790   22.0350 N.am     14 SEL2        0.0000 
     12 N         -23.3310   86.1390   22.9440 N.am      8 SEP2        0.0000 
     13 N         -22.5690   84.7390   21.3670 N.am      2 SEC2        0.0000 
     14 N         -22.8180   85.9990   20.6990 N.am      8 SEP2        0.0000 
     15 Zn        -22.6080   80.3075   21.9760 Zn        5 ZIC7        0.0000 
     16 Zn        -22.6430   81.0780   21.2450 Zn       17 ZIL7        0.0000 
     17 Zn        -22.5730   79.5370   22.7070 Zn       11 ZIP7        0.0000 
     18 Zn        -22.6830   80.8915   20.2100 Zn        5 ZIC7        0.0000 
     19 Zn        -22.7230   80.7050   19.1750 Zn       11 ZIP7        0.0000 
     20 Zn        -22.9605   80.5350   23.1265 Zn        5 ZIC7        0.0000 
     21 Zn        -23.3480   81.5330   23.5460 Zn       17 ZIL7        0.0000 
     22 Zn        -24.7465   81.8120   21.9110 Zn        5 ZIC7        0.0000 
     23 Zn        -23.0355   81.1190   21.3605 Zn        5 ZIC7        0.0000 
     24 N         -23.5710   84.8030   23.9850 N.am      2 SEC2        0.0000 
     25 N         -23.8110   83.4670   25.0260 N.am     14 SEL2        0.0000 
     26 N         -25.1700   83.5850   25.1260 N.am      2 SEC2        0.0000 
     27 N         -26.5290   83.7030   25.2260 N.am      8 SEP2        0.0000 
     28 CA        -19.6740   82.5930   23.9805 C.3       6 GLC5        0.0000 
     29 CA        -21.4170   82.6730   24.9140 C.3      18 GLL5        0.0000 
     30 CA        -17.9310   82.5130   23.0470 C.3      12 GLP5        0.0000 
     31 CA        -20.1300   82.2040   26.5985 C.3       6 GLC5        0.0000 
     32 CA        -18.8430   81.7350   28.2830 C.3      12 GLP5        0.0000 
     33 CA        -20.6785   84.5065   24.0605 C.3       6 GLC5        0.0000 
     34 CA        -19.9400   86.3400   23.2070 C.3      12 GLP5        0.0000 
     35 OD1       -24.3560   77.8330   26.3790 O.co2     3 ASC3        0.0000 
     36 OD1       -24.1230   78.5980   27.4710 O.co2    15 ASL3        0.0000 
     37 OD1       -24.5890   77.0680   25.2870 O.co2     9 ASP3        0.0000 
     38 OD1       -23.6285   78.4920   25.8735 O.co2     3 ASC3        0.0000 
     39 OD1       -23.1340   78.3860   24.2760 O.co2     9 ASP3        0.0000 
     40 O         -24.3560   77.8330   26.3790 O.2       1 ALC1        0.0000 
     41 O         -24.1230   78.5980   27.4710 O.2      13 ALL1        0.0000 
     42 O         -24.5890   77.0680   25.2870 O.2       7 ALP1        0.0000 
     43 O         -23.6285   78.4920   25.8735 O.2       1 ALC1        0.0000 
     44 O         -23.1340   78.3860   24.2760 O.2       7 ALP1        0.0000 
     45 O         -24.1205   77.4870   28.3295 O.2       1 ALC1        0.0000 
     46 O         -24.1180   76.3760   29.1880 O.2       7 ALP1        0.0000 
     47 O         -22.8015   78.6605   27.6335 O.2       1 ALC1        0.0000 
     48 O         -21.4800   78.7230   27.7960 O.2       7 ALP1        0.0000 
     49 NZ        -28.6700   79.0465   26.8610 N.4       4 LYC4        0.0000 
     50 NZ        -27.3460   79.6300   26.6730 N.4      16 LYL4        0.0000 
     51 NZ        -30.1600   77.5420   27.9840 N.4      10 LYP4        0.0000 
     52 N         -27.5590   80.0855   25.3150 N.am      2 SEC2        0.0000 
     53 N         -27.3460   79.6300   26.6730 N.am     14 SEL2        0.0000 
     54 N         -27.7720   80.5410   23.9570 N.am      8 SEP2        0.0000 
     55 N         -28.6700   79.0465   26.8610 N.am      2 SEC2        0.0000 
     56 N         -29.9940   78.4630   27.0490 N.am      8 SEP2        0.0000 
     57 NZ        -27.9240   77.8475   28.5930 N.4       4 LYC4        0.0000 
     58 NZ        -26.7460   78.5490   28.4720 N.4      16 LYL4        0.0000 
     59 N         -27.9240   77.8475   28.5930 N.am      2 SEC2        0.0000 
     60 N         -26.7460   78.5490   28.4720 N.am     14 SEL2        0.0000 
     61 N         -29.1020   77.1460   28.7140 N.am      8 SEP2        0.0000 
     62 CA        -24.6992   82.1142   27.7139 C.3       6 GLC5        0.0000 
     63 CA        -24.7810   80.6160   26.1670 C.3      18 GLL5        0.0000 
     64 CA        -24.8570   83.9070   28.6480 C.3      12 GLP5        0.0000 
@<TRIPOS>BOND
@<TRIPOS>SUBSTRUCTURE
     1 ALC1       40 GROUP        1 X    ALC  0     ROOT ALC X 1
     2 SEC2        4 GROUP        1 X    SEC  0     **** SEC X 2
     3 ASC3       35 GROUP        1 X    ASC  0     **** ASC X 3
     4 LYC4        7 GROUP        1 X    LYC  0     **** LYC X 4
     5 ZIC7        1 GROUP        1 X    ZIC  0     **** ZIC X 5
     6 GLC5       28 GROUP        1 X    GLC  0     **** GLC X 6
     7 ALP1       42 GROUP        1 Y    ALP  0     ROOT ALP Y 8
     8 SEP2        6 GROUP        1 Y    SEP  0     **** SEP Y 9
     9 ASP3       37 GROUP        1 Y    ASP  0     **** ASP Y 10
    10 LYP4        9 GROUP        1 Y    LYP  0     **** LYP Y 11
    11 ZIP7        3 GROUP        1 Y    ZIP  0     **** ZIP Y 12
    12 GLP5       30 GROUP        1 Y    GLP  0     **** GLP Y 13
    13 ALL1       41 GROUP        1 Z    ALL  0     ROOT ALL Z 15
    14 SEL2        5 GROUP        1 Z    SEL  0     **** SEL Z 16
    15 ASL3       36 GROUP        1 Z    ASL  0     **** ASL Z 17
    16 LYL4        8 GROUP        1 Z    LYL  0     **** LYL Z 18
    17 ZIL7        2 GROUP        1 Z    ZIL  0     **** ZIL Z 19
    18 GLL5       29 GROUP        1 Z    GLL  0     **** GLL Z 20
@<TRIPOS>SET

