#    Name: 4acf_P3S_2_ligand
#    Modification time : Tue Mar 25 05:28:54 2014

@<TRIPOS>MOLECULE
4acf_P3S_2_ligand
   26    25     1     0     0
SMALL
NO_CHARGES


@<TRIPOS>ATOM
      1 O3A       -24.6660   82.5710   21.5660 O.co2     1 P3S1483     0.0000 
      2 PA        -23.2460   82.2470   22.0020 P.3       1 P3S1483     0.0000 
      3 O1A       -22.3200   83.4790   22.0350 O.co2     1 P3S1483     0.0000 
      4 O2A       -22.6430   81.0780   21.2450 O.co2     1 P3S1483     0.0000 
      5 NE        -23.3480   81.5330   23.5460 N.pl3     1 P3S1483     0.0000 
      6 SD        -23.0400   82.2280   24.8370 S.o2      1 P3S1483     0.0000 
      7 OE        -23.8110   83.4670   25.0260 O.2       1 P3S1483     0.0000 
      8 CE        -21.4170   82.6730   24.9140 C.3       1 P3S1483     0.0000 
      9 CG        -23.3290   81.1560   26.1240 C.3       1 P3S1483     0.0000 
     10 CB        -24.7810   80.6160   26.1670 C.3       1 P3S1483     0.0000 
     11 CA        -25.0280   79.7570   27.4140 C.3       1 P3S1483     0.0000 
     12 N         -24.1230   78.5980   27.4710 N.4       1 P3S1483     0.0000 
     13 C         -26.4700   79.2890   27.5130 C.2       1 P3S1483     0.0000 
     14 OT        -27.3460   79.6300   26.6730 O.co2     1 P3S1483     0.0000 
     15 O         -26.7460   78.5490   28.4720 O.co2     1 P3S1483     0.0000 
     16 H         -23.0932   81.7150   27.0196 H         1 P3S1483     0.0000 
     17 H         -22.6169   80.3525   25.9917 H         1 P3S1483     0.0000 
     18 H         -24.9587   80.0173   25.2748 H         1 P3S1483     0.0000 
     19 H         -25.4689   81.4603   26.1677 H         1 P3S1483     0.0000 
     20 H         -24.8329   80.3959   28.2946 H         1 P3S1483     0.0000 
     21 H         -20.8111   81.8798   24.8528 H         1 P3S1483     0.0000 
     22 H         -21.1658   83.2918   24.1697 H         1 P3S1483     0.0000 
     23 H         -21.2006   83.1417   25.7704 H         1 P3S1483     0.0000 
     24 H         -23.1630   78.8772   27.4937 H         1 P3S1483     0.0000 
     25 H         -24.2852   78.0398   28.2847 H         1 P3S1483     0.0000 
     26 H         -24.2355   77.9996   26.6778 H         1 P3S1483     0.0000 
@<TRIPOS>BOND
     1    2    1 ar   
     2    3    2 ar   
     3    4    2 ar   
     4    5    2 1    
     5    6    5 1    
     6    7    6 2    
     7    8    6 1    
     8    9    6 1    
     9   21    8 1    
    10   22    8 1    
    11   23    8 1    
    12   10    9 1    
    13   16    9 1    
    14   17    9 1    
    15   11   10 1    
    16   18   10 1    
    17   19   10 1    
    18   12   11 1    
    19   13   11 1    
    20   20   11 1    
    21   24   12 1    
    22   25   12 1    
    23   26   12 1    
    24   14   13 ar   
    25   15   13 ar   
@<TRIPOS>SUBSTRUCTURE
     1 P3S1483     1 GROUP   
@<TRIPOS>SET

