#    Name: 2ZOZ_1_CAVITY_N1_6.mol2
#    Modification time : Tue Mar 11 06:08:40 2014

@<TRIPOS>MOLECULE
2ZOZ_1_CAVITY_N1_6.mol2
  106     0     6     0     0
SMALL
NO_CHARGES


@<TRIPOS>ATOM
      1 CA         43.7151   38.1204   47.9724 C.3       5 GLY6        0.0000 
      2 CZ         43.2406   39.4329   47.4227 C.ar      4 PHE5        0.0000 
      3 NZ         44.5404   36.3542   47.1360 N.2       3 LYS4        0.0000 
      4 DU         44.0659   37.6667   46.5864 H         6 CUB7        0.0000 
      5 CZ         43.5915   38.9793   46.0367 C.ar      4 PHE5        0.0000 
      6 CA         44.4167   37.2131   45.2003 C.3       5 GLY6        0.0000 
      7 CZ         43.9423   38.5256   44.6506 C.ar      4 PHE5        0.0000 
      8 CZ         43.4678   39.8381   44.1010 C.ar      4 PHE5        0.0000 
      9 CA         44.7676   36.7594   43.8143 C.3       5 GLY6        0.0000 
     10 CZ         44.2931   38.0719   43.2646 C.ar      4 PHE5        0.0000 
     11 CZ         43.8186   39.3845   42.7149 C.ar      4 PHE5        0.0000 
     12 CZ         43.3442   40.6970   42.1652 C.ar      4 PHE5        0.0000 
     13 CA         45.5928   34.9932   42.9779 C.3       5 GLY6        0.0000 
     14 CZ         45.1184   36.3058   42.4282 C.ar      4 PHE5        0.0000 
     15 CZ         44.6439   37.6183   41.8785 C.ar      4 PHE5        0.0000 
     16 CZ         44.1695   38.9308   41.3289 C.ar      4 PHE5        0.0000 
     17 CZ         43.6950   40.2434   40.7792 C.ar      4 PHE5        0.0000 
     18 CZ         45.4692   35.8521   41.0422 C.ar      4 PHE5        0.0000 
     19 CZ         44.9947   37.1646   40.4925 C.ar      4 PHE5        0.0000 
     20 CZ         44.5203   38.4772   39.9428 C.ar      4 PHE5        0.0000 
     21 CZ         44.0458   39.7897   39.3931 C.ar      4 PHE5        0.0000 
     22 CZ         45.3456   36.7110   39.1064 C.ar      4 PHE5        0.0000 
     23 CZ         44.8711   38.0235   38.5568 C.ar      4 PHE5        0.0000 
     24 CA         45.6964   36.2573   37.7204 C.3       5 GLY6        0.0000 
     25 CA         45.2219   37.5699   37.1707 C.3       5 GLY6        0.0000 
     26 O          44.7475   38.8824   36.6210 O.2       2 ALA2        0.0000 
     27 N          42.6869   37.0997   46.4229 N.2       2 ALA2        0.0000 
     28 CA         42.2124   38.4123   45.8732 C.3       5 GLY6        0.0000 
     29 CZ         43.0377   36.6461   45.0368 C.ar      4 PHE5        0.0000 
     30 CA         42.5632   37.9586   44.4872 C.3       5 GLY6        0.0000 
     31 CZ         42.9140   37.5050   43.1011 C.ar      4 PHE5        0.0000 
     32 CA         42.4396   38.8175   42.5514 C.3       5 GLY6        0.0000 
     33 CA         41.9651   40.1300   42.0017 C.3       5 GLY6        0.0000 
     34 CZ         43.2649   37.0513   41.7151 C.ar      4 PHE5        0.0000 
     35 CZ         42.7904   38.3638   41.1654 C.ar      4 PHE5        0.0000 
     36 N          42.3159   39.6764   40.6157 N.2       2 ALA2        0.0000 
     37 CZ         43.6157   36.5977   40.3290 C.ar      4 PHE5        0.0000 
     38 CZ         43.1412   37.9102   39.7793 C.ar      4 PHE5        0.0000 
     39 N          42.6668   39.2227   39.2297 N.2       2 ALA2        0.0000 
     40 NZ         43.4920   37.4565   38.3933 N.2       3 LYS4        0.0000 
     41 NZ         43.0176   38.7691   37.8436 N.2       3 LYS4        0.0000 
     42 CA         44.3173   35.6904   37.5569 C.3       5 GLY6        0.0000 
     43 NZ         43.8429   37.0029   37.0072 N.2       3 LYS4        0.0000 
     44 CZ         41.4113   37.7969   41.0019 C.ar      4 PHE5        0.0000 
     45 CZ         41.7622   37.3432   39.6159 C.ar      4 PHE5        0.0000 
     46 N          41.2877   38.6557   39.0662 N.2       2 ALA2        0.0000 
     47 CZ         42.1130   36.8896   38.2298 C.ar      4 PHE5        0.0000 
     48 NZ         41.6385   38.2021   37.6801 N.2       3 LYS4        0.0000 
     49 CA         48.8012   37.1962   49.5622 C.3       5 GLY6        0.0000 
     50 CA         48.6776   38.0551   47.6265 C.3       5 GLY6        0.0000 
     51 NZ         51.2771   31.8977   47.0531 N.2       3 LYS4        0.0000 
     52 NZ         50.8026   33.2102   46.5034 N.2       3 LYS4        0.0000 
     53 NZ         51.6279   31.4440   45.6671 N.2       3 LYS4        0.0000 
     54 NZ         51.1534   32.7566   45.1174 N.2       3 LYS4        0.0000 
     55 NZ         47.8966   35.3167   49.9484 N.2       3 LYS4        0.0000 
     56 NZ         47.4221   36.6293   49.3987 N.2       3 LYS4        0.0000 
     57 NZ         46.9477   37.9418   48.8491 N.2       3 LYS4        0.0000 
     58 NZ         48.2474   34.8631   48.5624 N.2       3 LYS4        0.0000 
     59 NZ         47.7730   36.1756   48.0127 N.2       3 LYS4        0.0000 
     60 CA         47.2985   37.4881   47.4630 C.3       5 GLY6        0.0000 
     61 N          46.8240   38.8007   46.9133 N.2       2 ALA2        0.0000 
     62 DU         49.0727   33.0969   47.7260 H         6 CUB7        0.0000 
     63 NZ         48.5982   34.4094   47.1763 N.2       3 LYS4        0.0000 
     64 NZ         48.1238   35.7220   46.6266 N.2       3 LYS4        0.0000 
     65 NZ         47.6493   37.0345   46.0770 N.2       3 LYS4        0.0000 
     66 CA         47.1749   38.3470   45.5273 C.3       5 GLY6        0.0000 
     67 CA         49.8980   31.3307   46.8896 C.3       5 GLY6        0.0000 
     68 NZ         49.4235   32.6432   46.3400 N.2       3 LYS4        0.0000 
     69 NZ         48.9491   33.9558   45.7903 N.2       3 LYS4        0.0000 
     70 NZ         48.4746   35.2683   45.2406 N.2       3 LYS4        0.0000 
     71 CA         48.0001   36.5808   44.6909 C.3       5 GLY6        0.0000 
     72 CA         50.2488   30.8771   45.5036 C.3       5 GLY6        0.0000 
     73 N          49.7744   32.1896   44.9539 N.2       2 ALA2        0.0000 
     74 NZ         49.2999   33.5021   44.4042 N.2       3 LYS4        0.0000 
     75 NZ         48.8254   34.8147   43.8545 N.2       3 LYS4        0.0000 
     76 N          50.1252   31.7359   43.5679 N.2       2 ALA2        0.0000 
     77 NZ         45.5686   37.3748   48.6856 N.2       3 LYS4        0.0000 
     78 CA         45.0942   38.6874   48.1359 C.3       5 GLY6        0.0000 
     79 NZ         45.9194   36.9212   47.2995 N.2       3 LYS4        0.0000 
     80 N          45.4450   38.2337   46.7498 N.2       2 ALA2        0.0000 
     81 CZ         44.9705   39.5462   46.2002 C.ar      4 PHE5        0.0000 
     82 CA         47.6936   32.5299   47.5625 C.3       5 GLY6        0.0000 
     83 CA         47.2192   33.8425   47.0128 C.3       5 GLY6        0.0000 
     84 CA         46.7447   35.1550   46.4632 C.3       5 GLY6        0.0000 
     85 CA         46.2703   36.4675   45.9135 C.3       5 GLY6        0.0000 
     86 DU         45.7958   37.7800   45.3638 H         6 CUB7        0.0000 
     87 CZ         45.3213   39.0926   44.8141 C.ar      4 PHE5        0.0000 
     88 N          48.5189   30.7637   46.7262 N.2       2 ALA2        0.0000 
     89 N          48.0445   32.0763   46.1765 N.2       2 ALA2        0.0000 
     90 CA         47.5700   33.3888   45.6268 C.3       5 GLY6        0.0000 
     91 CA         46.6211   36.0139   44.5274 C.3       5 GLY6        0.0000 
     92 CA         46.1466   37.3264   43.9777 C.3       5 GLY6        0.0000 
     93 CA         45.6722   38.6389   43.4281 C.3       5 GLY6        0.0000 
     94 CZ         45.1977   39.9515   42.8784 C.ar      4 PHE5        0.0000 
     95 CZ         44.7232   41.2640   42.3287 C.ar      4 PHE5        0.0000 
     96 N          48.3953   31.6226   44.7904 N.2       2 ALA2        0.0000 
     97 N          47.9208   32.9351   44.2407 N.2       2 ALA2        0.0000 
     98 CA         47.4464   34.2477   43.6911 C.3       5 GLY6        0.0000 
     99 CA         46.9719   35.5602   43.1414 C.3       5 GLY6        0.0000 
    100 O          46.4974   36.8727   42.5917 O.2       2 ALA2        0.0000 
    101 CZ         46.0230   38.1853   42.0420 C.ar      4 PHE5        0.0000 
    102 CZ         45.5485   39.4978   41.4923 C.ar      4 PHE5        0.0000 
    103 N          47.7972   33.7940   42.3050 N.2       2 ALA2        0.0000 
    104 OG         47.3227   35.1066   41.7553 O.2       1 SER1        0.0000 
    105 O          46.8483   36.4191   41.2057 O.2       2 ALA2        0.0000 
    106 OG         47.1991   35.9654   39.8196 O.2       1 SER1        0.0000 
@<TRIPOS>BOND
@<TRIPOS>SUBSTRUCTURE
     1 SER1      104 GROUP   
     2 ALA2       26 GROUP   
     3 LYS4        3 GROUP   
     4 PHE5        2 GROUP   
     5 GLY6        1 GROUP   
     6 CUB7        4 GROUP   
@<TRIPOS>SET

