#    Name: 2zoz_ET_1_ligand
#    Modification time : Mon Apr  7 18:48:14 2014

@<TRIPOS>MOLECULE
2zoz_ET_1_ligand
   44    47     1     0     0
SMALL
NO_CHARGES


@<TRIPOS>ATOM
      1 C1         44.2960   36.9810   38.3640 C.ar      1 ET184       0.0000 
      2 C2         43.4220   37.7340   37.5890 C.ar      1 ET184       0.0000 
      3 C3         42.6480   38.7650   38.1720 C.ar      1 ET184       0.0000 
      4 C4         42.7510   39.0440   39.5360 C.ar      1 ET184       0.0000 
      5 N5         43.7510   38.5540   41.7620 N.ar      1 ET184       0.0000 
      6 C6         44.5790   37.8420   42.5970 C.ar      1 ET184       0.0000 
      7 C7         46.3160   35.9770   42.8730 C.ar      1 ET184       0.0000 
      8 C8         47.0970   34.9600   42.3250 C.ar      1 ET184       0.0000 
      9 C9         47.0250   34.6640   40.9390 C.ar      1 ET184       0.0000 
     10 C10        46.1760   35.3820   40.1020 C.ar      1 ET184       0.0000 
     11 C11        45.4300   36.7430   42.0460 C.ar      1 ET184       0.0000 
     12 C12        45.3600   36.4350   40.6250 C.ar      1 ET184       0.0000 
     13 C13        44.4300   37.2320   39.7700 C.ar      1 ET184       0.0000 
     14 C14        43.6450   38.2870   40.3890 C.ar      1 ET184       0.0000 
     15 C15        44.6660   38.1080   44.0910 C.ar      1 ET184       0.0000 
     16 C16        45.6890   38.9130   44.6710 C.ar      1 ET184       0.0000 
     17 C17        45.7220   39.1000   46.0690 C.ar      1 ET184       0.0000 
     18 C18        44.7490   38.4940   46.9010 C.ar      1 ET184       0.0000 
     19 C19        43.7300   37.6970   46.3400 C.ar      1 ET184       0.0000 
     20 C20        43.6830   37.4990   44.9480 C.ar      1 ET184       0.0000 
     21 C21        42.9180   39.6630   42.3260 C.3       1 ET184       0.0000 
     22 C22        43.6430   41.0130   42.1110 C.3       1 ET184       0.0000 
     23 N23        41.7740   39.5170   37.3820 N.pl3     1 ET184       0.0000 
     24 N24        47.9540   34.2350   43.1570 N.pl3     1 ET184       0.0000 
     25 H          44.8600   36.2333   37.9445 H         1 ET184       0.0000 
     26 H          43.3290   37.5487   36.5814 H         1 ET184       0.0000 
     27 H          42.1946   39.7923   39.9631 H         1 ET184       0.0000 
     28 H          46.3633   36.1921   43.8739 H         1 ET184       0.0000 
     29 H          47.6113   33.9086   40.5605 H         1 ET184       0.0000 
     30 H          46.1222   35.1683   39.1009 H         1 ET184       0.0000 
     31 H          46.3887   39.3476   44.0748 H         1 ET184       0.0000 
     32 H          46.4559   39.6794   46.4889 H         1 ET184       0.0000 
     33 H          44.7881   38.6369   47.9131 H         1 ET184       0.0000 
     34 H          43.0287   37.2653   46.9437 H         1 ET184       0.0000 
     35 H          42.9525   36.9220   44.5291 H         1 ET184       0.0000 
     36 H          42.7678   39.5202   43.3904 H         1 ET184       0.0000 
     37 H          41.9567   39.7067   41.8260 H         1 ET184       0.0000 
     38 H          41.4066   39.0580   36.5731 H         1 ET184       0.0000 
     39 H          41.5911   40.4495   37.6935 H         1 ET184       0.0000 
     40 H          48.3405   34.7340   43.9326 H         1 ET184       0.0000 
     41 H          48.1073   33.2794   42.9054 H         1 ET184       0.0000 
     42 H          44.5365   41.0303   42.5597 H         1 ET184       0.0000 
     43 H          43.7983   41.2008   41.1412 H         1 ET184       0.0000 
     44 H          43.1162   41.7800   42.4774 H         1 ET184       0.0000 
@<TRIPOS>BOND
     1    2    1 ar   
     2   13    1 ar   
     3   25    1 1    
     4    3    2 ar   
     5   26    2 1    
     6    4    3 ar   
     7   23    3 1    
     8   14    4 ar   
     9   27    4 1    
    10    6    5 ar   
    11   14    5 ar   
    12   21    5 1    
    13   11    6 ar   
    14   15    6 1    
    15    8    7 ar   
    16   11    7 ar   
    17   28    7 1    
    18    9    8 ar   
    19   24    8 1    
    20   10    9 ar   
    21   29    9 1    
    22   12   10 ar   
    23   30   10 1    
    24   12   11 ar   
    25   13   12 ar   
    26   14   13 ar   
    27   16   15 ar   
    28   20   15 ar   
    29   17   16 ar   
    30   31   16 1    
    31   18   17 ar   
    32   32   17 1    
    33   19   18 ar   
    34   33   18 1    
    35   20   19 ar   
    36   34   19 1    
    37   35   20 1    
    38   22   21 1    
    39   36   21 1    
    40   37   21 1    
    41   42   22 1    
    42   43   22 1    
    43   44   22 1    
    44   38   23 1    
    45   39   23 1    
    46   40   24 1    
    47   41   24 1    
@<TRIPOS>SUBSTRUCTURE
     1 ET184       1 GROUP   
@<TRIPOS>SET

