#    Name: 1xpc_AIT_1_INTS_M
#    Modification time : Tue Mar 25 10:29:00 2014

@<TRIPOS>MOLECULE
1xpc_AIT_1_INTS_M
  105     0    12     0     0
SMALL
NO_CHARGES


@<TRIPOS>ATOM
      1 CA         28.6645   -3.4895   25.8330 C.3       4 GLC5        0.0000 
      2 CA         28.0570   -2.9720   27.7510 C.3      12 GLL5        0.0000 
      3 CA         29.2720   -4.0070   23.9150 C.3       8 GLP5        0.0000 
      4 CA         27.4075   -3.7150   25.4910 C.3       4 GLC5        0.0000 
      5 CA         26.8160   -2.6120   27.2910 C.3      12 GLL5        0.0000 
      6 CA         27.9990   -4.8180   23.6910 C.3       8 GLP5        0.0000 
      7 N          24.0950   -1.4160   27.8065 N.am      2 SEC2        0.0000 
      8 N          25.2240   -1.0180   26.7530 N.am     10 SEL2        0.0000 
      9 N          22.9660   -1.8140   28.8600 N.am      6 SEP2        0.0000 
     10 O          24.7655   -2.1560   26.1725 O.2       1 ALC1        0.0000 
     11 O          25.2240   -1.0180   26.7530 O.2       9 ALL1        0.0000 
     12 O          24.3070   -3.2940   25.5920 O.2       5 ALP1        0.0000 
     13 CA         28.2395    0.9835   29.7250 C.3       4 GLC5        0.0000 
     14 CA         29.7200    0.4830   28.3560 C.3      12 GLL5        0.0000 
     15 CA         26.7590    1.4840   31.0940 C.3       8 GLP5        0.0000 
     16 CA         29.1800   -0.4545   30.0145 C.3       4 GLC5        0.0000 
     17 CA         28.6400   -1.3920   31.6730 C.3       8 GLP5        0.0000 
     18 CA         31.7430    1.8585   25.7390 C.3       4 GLC5        0.0000 
     19 CA         32.7400    1.2430   27.5380 C.3      12 GLL5        0.0000 
     20 CA         30.7460    2.4740   23.9400 C.3       8 GLP5        0.0000 
     21 CA         33.7635    3.2135   29.0565 C.3       4 GLC5        0.0000 
     22 CA         33.9970    1.8250   27.3600 C.3      12 GLL5        0.0000 
     23 CA         33.5300    4.6020   30.7530 C.3       8 GLP5        0.0000 
     24 CA         35.1690    1.0730   25.9880 C.3       4 GLC5        0.0000 
     25 CA         36.3410    0.3210   24.6160 C.3       8 GLP5        0.0000 
     26 O          37.4060    1.7355   28.7285 O.2       1 ALC1        0.0000 
     27 O          36.2770    2.1500   28.0980 O.2       9 ALL1        0.0000 
     28 O          38.5350    1.3210   29.3590 O.2       5 ALP1        0.0000 
     29 CA         35.3485    0.3165   31.2270 C.3       4 GLC5        0.0000 
     30 CA         34.8610    0.7370   29.3560 C.3      12 GLL5        0.0000 
     31 CA         35.8360   -0.1040   33.0980 C.3       8 GLP5        0.0000 
     32 CA         34.4785   -0.7840   31.0315 C.3       4 GLC5        0.0000 
     33 CA         33.5910    0.1750   29.5280 C.3      12 GLL5        0.0000 
     34 CA         35.3660   -1.7430   32.5350 C.3       8 GLP5        0.0000 
     35 CA         34.3440   -3.5905   27.4355 C.3       4 GLC5        0.0000 
     36 CA         32.6080   -2.8710   26.4350 C.3      12 GLL5        0.0000 
     37 CA         36.0800   -4.3100   28.4360 C.3       8 GLP5        0.0000 
     38 CA         29.6690   -0.9060   23.6570 C.3       4 GLC5        0.0000 
     39 CA         31.5950   -1.2900   24.4580 C.3      12 GLL5        0.0000 
     40 CA         27.7430   -0.5220   22.8560 C.3       8 GLP5        0.0000 
     41 CA         33.6750   -5.5235   22.9145 C.3       4 GLC5        0.0000 
     42 CA         33.2980   -3.7290   22.3210 C.3      12 GLL5        0.0000 
     43 CA         34.0520   -7.3180   23.5080 C.3       8 GLP5        0.0000 
     44 CA         31.2850   -3.8680   23.1180 C.3       4 GLC5        0.0000 
     45 CA         32.8695   -1.6480   20.6735 C.3       4 GLC5        0.0000 
     46 CA         33.6970   -3.6680   20.8220 C.3      12 GLL5        0.0000 
     47 CA         32.0420    0.3720   20.5250 C.3       8 GLP5        0.0000 
     48 CA         34.3390   -6.0805   22.0570 C.3       4 GLC5        0.0000 
     49 CA         34.6260   -4.8430   20.6060 C.3      12 GLL5        0.0000 
     50 CA         35.5595   -5.8735   19.7160 C.3       4 GLC5        0.0000 
     51 CA         36.4930   -6.9040   18.8260 C.3       8 GLP5        0.0000 
     52 OD1        31.9105   -5.1595   19.9735 O.co2     3 ASC3        0.0000 
     53 OD1        32.5710   -3.8810   19.8960 O.co2    11 ASL3        0.0000 
     54 OD1        31.2500   -6.4380   20.0510 O.co2     7 ASP3        0.0000 
     55 O          31.9105   -5.1595   19.9735 O.2       1 ALC1        0.0000 
     56 O          32.5710   -3.8810   19.8960 O.2       9 ALL1        0.0000 
     57 O          31.2500   -6.4380   20.0510 O.2       5 ALP1        0.0000 
     58 CA         31.5105   -2.4065   16.0125 C.3       4 GLC5        0.0000 
     59 CA         31.2640   -2.9080   18.1050 C.3      12 GLL5        0.0000 
     60 CA         31.7570   -1.9050   13.9200 C.3       8 GLP5        0.0000 
     61 CA         29.4495   -5.1695   19.8750 C.3       4 GLC5        0.0000 
     62 CA         30.3740   -3.4510   19.2220 C.3      12 GLL5        0.0000 
     63 CA         28.5250   -6.8880   20.5280 C.3       8 GLP5        0.0000 
     64 CA         30.2985   -3.6830   22.1815 C.3       4 GLC5        0.0000 
     65 CA         31.3250   -3.3590   20.4480 C.3      12 GLL5        0.0000 
     66 CA         29.9680   -1.2070   30.1370 C.3       4 GLC5        0.0000 
     67 CA         31.3560   -1.7210   28.2890 C.3      12 GLL5        0.0000 
     68 CA         26.4342   -4.3385   28.1325 C.3       4 GLC5        0.0000 
     69 CA         25.4320   -5.8850   28.7440 C.3       8 GLP5        0.0000 
     70 CA         26.6642    0.2627   25.6575 C.3       4 GLC5        0.0000 
     71 CA         26.4850   -1.2490   27.1580 C.3      12 GLL5        0.0000 
     72 CA         26.3930    1.2750   23.9590 C.3       8 GLP5        0.0000 
     73 CA         27.3950    0.5328   29.4315 C.3       4 GLC5        0.0000 
     74 CA         27.3860   -0.2500   27.5540 C.3      12 GLL5        0.0000 
     75 CA         32.3803    3.2470   27.3435 C.3       4 GLC5        0.0000 
     76 CA         31.3920    4.9600   27.2380 C.3       8 GLP5        0.0000 
     77 CA         35.1365    3.3942   27.0583 C.3       4 GLC5        0.0000 
     78 CA         35.7440    5.0840   26.3100 C.3       8 GLP5        0.0000 
     79 CA         35.4975    2.8428   29.8953 C.3       4 GLC5        0.0000 
     80 CA         35.0610    1.5840   28.2530 C.3      12 GLL5        0.0000 
     81 CA         36.0340    4.5250   30.9860 C.3       8 GLP5        0.0000 
     82 CA         35.6120    0.1063   27.1288 C.3       4 GLC5        0.0000 
     83 CA         36.2630   -0.9480   25.4530 C.3       8 GLP5        0.0000 
     84 CA         30.7142   -3.1895   25.2712 C.3       4 GLC5        0.0000 
     85 CA         31.8806   -3.8295   28.2394 C.3       4 GLC5        0.0000 
     86 CA         31.6920   -5.3250   29.4840 C.3       8 GLP5        0.0000 
     87 CA         32.5587   -4.9482   25.5525 C.3       4 GLC5        0.0000 
     88 CA         32.3190   -6.8930   25.3370 C.3       8 GLP5        0.0000 
     89 CA         34.5307   -1.9757   25.6105 C.3       4 GLC5        0.0000 
     90 CA         32.9890   -3.1360   25.1010 C.3      12 GLL5        0.0000 
     91 CA         31.0070   -3.3637   24.2552 C.3       4 GLC5        0.0000 
     92 CA         34.3865   -3.5488   24.2163 C.3       4 GLC5        0.0000 
     93 CA         32.4950   -2.3050   24.0900 C.3      12 GLL5        0.0000 
     94 CA         36.0310   -4.3770   23.8370 C.3       8 GLP5        0.0000 
     95 CA         33.6180   -0.6953   23.9490 C.3       4 GLC5        0.0000 
     96 CA         35.1910    0.4070   23.6240 C.3       8 GLP5        0.0000 
     97 CA         30.3317   -2.5990   24.5138 C.3       4 GLC5        0.0000 
     98 CA         31.0687    0.6415   24.5262 C.3       4 GLC5        0.0000 
     99 CA         35.0464   -4.3239   22.4629 C.3       4 GLC5        0.0000 
    100 CA         32.0135   -1.3370   19.4357 C.3       4 GLC5        0.0000 
    101 CA         32.7060   -3.1840   18.5880 C.3      12 GLL5        0.0000 
    102 CA         29.4910   -3.3348   17.3783 C.3       4 GLC5        0.0000 
    103 CA         28.1630   -3.4900   16.0930 C.3       8 GLP5        0.0000 
    104 CA         30.7632   -1.6010   20.3145 C.3       4 GLC5        0.0000 
    105 CA         30.6770    0.2030   20.7940 C.3       8 GLP5        0.0000 
@<TRIPOS>BOND
@<TRIPOS>SUBSTRUCTURE
     1 ALC1       10 GROUP        1 X    ALC  0     ROOT ALC X 1
     2 SEC2        7 GROUP        1 X    SEC  0     **** SEC X 2
     3 ASC3       52 GROUP        1 X    ASC  0     **** ASC X 3
     4 GLC5        1 GROUP        1 X    GLC  0     **** GLC X 6
     5 ALP1       12 GROUP        1 Y    ALP  0     ROOT ALP Y 8
     6 SEP2        9 GROUP        1 Y    SEP  0     **** SEP Y 9
     7 ASP3       54 GROUP        1 Y    ASP  0     **** ASP Y 10
     8 GLP5        3 GROUP        1 Y    GLP  0     **** GLP Y 13
     9 ALL1       11 GROUP        1 Z    ALL  0     ROOT ALL Z 15
    10 SEL2        8 GROUP        1 Z    SEL  0     **** SEL Z 16
    11 ASL3       53 GROUP        1 Z    ASL  0     **** ASL Z 17
    12 GLL5        2 GROUP        1 Z    GLL  0     **** GLL Z 20
@<TRIPOS>SET

