#    Name: 1xpc_AIT_1_ligand
#    Modification time : Tue Mar 25 10:29:01 2014

@<TRIPOS>MOLECULE
1xpc_AIT_1_ligand
   63    67     1     0     0
SMALL
NO_CHARGES


@<TRIPOS>ATOM
      1 C1         31.2360   -0.3230   28.9130 C.3       1 AIT600      0.0000 
      2 C2         31.3560   -1.7210   28.2890 C.3       1 AIT600      0.0000 
      3 O3         30.1370   -2.4730   28.5440 O.3       1 AIT600      0.0000 
      4 C4         28.9570   -1.9550   28.1010 C.ar      1 AIT600      0.0000 
      5 C5         28.0570   -2.9720   27.7510 C.ar      1 AIT600      0.0000 
      6 C6         26.8160   -2.6120   27.2910 C.ar      1 AIT600      0.0000 
      7 C7         26.4850   -1.2490   27.1580 C.ar      1 AIT600      0.0000 
      8 O8         25.2240   -1.0180   26.7530 O.3       1 AIT600      0.0000 
      9 C9         27.3860   -0.2500   27.5540 C.ar      1 AIT600      0.0000 
     10 C10        28.6760   -0.5870   27.9840 C.ar      1 AIT600      0.0000 
     11 S11        29.7200    0.4830   28.3560 S.3       1 AIT600      0.0000 
     12 C12        32.5450    0.3830   28.6300 C.ar      1 AIT600      0.0000 
     13 C13        32.7400    1.2430   27.5380 C.ar      1 AIT600      0.0000 
     14 C14        33.9970    1.8250   27.3600 C.ar      1 AIT600      0.0000 
     15 C15        35.0610    1.5840   28.2530 C.ar      1 AIT600      0.0000 
     16 O16        36.2770    2.1500   28.0980 O.3       1 AIT600      0.0000 
     17 C17        34.8610    0.7370   29.3560 C.ar      1 AIT600      0.0000 
     18 C18        33.5910    0.1750   29.5280 C.ar      1 AIT600      0.0000 
     19 C19        31.7050   -1.8730   26.8200 C.ar      1 AIT600      0.0000 
     20 C20        32.6080   -2.8710   26.4350 C.ar      1 AIT600      0.0000 
     21 C21        32.9890   -3.1360   25.1010 C.ar      1 AIT600      0.0000 
     22 C22        32.4950   -2.3050   24.0900 C.ar      1 AIT600      0.0000 
     23 C23        31.5950   -1.2900   24.4580 C.ar      1 AIT600      0.0000 
     24 C24        31.1880   -1.0920   25.7670 C.ar      1 AIT600      0.0000 
     25 O25        32.7880   -2.4670   22.7870 O.3       1 AIT600      0.0000 
     26 C26        33.2980   -3.7290   22.3210 C.3       1 AIT600      0.0000 
     27 C27        33.6970   -3.6680   20.8220 C.3       1 AIT600      0.0000 
     28 C28        34.6260   -4.8430   20.6060 C.3       1 AIT600      0.0000 
     29 N29        32.5710   -3.8810   19.8960 N.4       1 AIT600      0.0000 
     30 C30        32.7060   -3.1840   18.5880 C.3       1 AIT600      0.0000 
     31 C31        31.2640   -2.9080   18.1050 C.3       1 AIT600      0.0000 
     32 C32        30.3740   -3.4510   19.2220 C.3       1 AIT600      0.0000 
     33 C33        31.3250   -3.3590   20.4480 C.3       1 AIT600      0.0000 
     34 H          31.0805   -0.4425   29.9796 H         1 AIT600      0.0000 
     35 H          32.1695   -2.2586   28.8689 H         1 AIT600      0.0000 
     36 H          28.3313   -3.9479   27.8412 H         1 AIT600      0.0000 
     37 H          26.1173   -3.3224   27.0395 H         1 AIT600      0.0000 
     38 H          27.0973    0.7361   27.5284 H         1 AIT600      0.0000 
     39 H          31.9803    1.4361   26.8921 H         1 AIT600      0.0000 
     40 H          34.1579    2.4526   26.5503 H         1 AIT600      0.0000 
     41 H          35.6114    0.5416   30.0025 H         1 AIT600      0.0000 
     42 H          33.4214   -0.4265   30.3669 H         1 AIT600      0.0000 
     43 H          33.0371   -3.4703   27.1911 H         1 AIT600      0.0000 
     44 H          33.6051   -3.9103   24.8881 H         1 AIT600      0.0000 
     45 H          31.2230   -0.6644   23.7079 H         1 AIT600      0.0000 
     46 H          30.4911   -0.3589   25.9869 H         1 AIT600      0.0000 
     47 H          32.5531   -4.5323   22.4260 H         1 AIT600      0.0000 
     48 H          34.1925   -4.0384   22.8825 H         1 AIT600      0.0000 
     49 H          34.2200   -2.7814   20.6271 H         1 AIT600      0.0000 
     50 H          32.4349   -4.9427   19.6996 H         1 AIT600      0.0000 
     51 H          33.1935   -3.8104   17.8687 H         1 AIT600      0.0000 
     52 H          33.2130   -2.2475   18.7036 H         1 AIT600      0.0000 
     53 H          31.0864   -3.4432   17.2059 H         1 AIT600      0.0000 
     54 H          31.1221   -1.8612   18.0034 H         1 AIT600      0.0000 
     55 H          30.1376   -4.4568   19.0428 H         1 AIT600      0.0000 
     56 H          29.5525   -2.8172   19.3737 H         1 AIT600      0.0000 
     57 H          31.4082   -2.3415   20.7256 H         1 AIT600      0.0000 
     58 H          30.9381   -3.9790   21.2131 H         1 AIT600      0.0000 
     59 H          34.9417   -4.8976   19.6587 H         1 AIT600      0.0000 
     60 H          35.4403   -4.7837   21.1834 H         1 AIT600      0.0000 
     61 H          34.1799   -5.7128   20.8169 H         1 AIT600      0.0000 
     62 H          25.1010   -1.5969   25.9470 H         1 AIT600      0.0000 
     63 H          36.8806    1.6374   28.7087 H         1 AIT600      0.0000 
@<TRIPOS>BOND
     1    2    1 1    
     2   11    1 1    
     3   12    1 1    
     4   34    1 1    
     5    3    2 1    
     6   19    2 1    
     7   35    2 1    
     8    4    3 1    
     9    5    4 ar   
    10   10    4 ar   
    11    6    5 ar   
    12   36    5 1    
    13    7    6 ar   
    14   37    6 1    
    15    8    7 1    
    16    9    7 ar   
    17   62    8 1    
    18   10    9 ar   
    19   38    9 1    
    20   11   10 1    
    21   13   12 ar   
    22   18   12 ar   
    23   14   13 ar   
    24   39   13 1    
    25   15   14 ar   
    26   40   14 1    
    27   16   15 1    
    28   17   15 ar   
    29   63   16 1    
    30   18   17 ar   
    31   41   17 1    
    32   42   18 1    
    33   20   19 ar   
    34   24   19 ar   
    35   21   20 ar   
    36   43   20 1    
    37   22   21 ar   
    38   44   21 1    
    39   23   22 ar   
    40   25   22 1    
    41   24   23 ar   
    42   45   23 1    
    43   46   24 1    
    44   26   25 1    
    45   27   26 1    
    46   47   26 1    
    47   48   26 1    
    48   28   27 1    
    49   29   27 1    
    50   49   27 1    
    51   59   28 1    
    52   60   28 1    
    53   61   28 1    
    54   30   29 1    
    55   33   29 1    
    56   50   29 1    
    57   31   30 1    
    58   51   30 1    
    59   52   30 1    
    60   32   31 1    
    61   53   31 1    
    62   54   31 1    
    63   33   32 1    
    64   55   32 1    
    65   56   32 1    
    66   57   33 1    
    67   58   33 1    
@<TRIPOS>SUBSTRUCTURE
     1 AIT600      1 GROUP   
@<TRIPOS>SET

