#    Name: 2c6k_DT2_1_INTS_M
#    Modification time : Mon Mar 24 22:43:40 2014

@<TRIPOS>MOLECULE
2c6k_DT2_1_INTS_M
   70     0     9     0     0
SMALL
NO_CHARGES


@<TRIPOS>ATOM
      1 N           4.8230  -12.4400    6.1390 N.am      2 SEC2        0.0000 
      2 N           6.2400  -12.0470    6.8590 N.am      8 SEL2        0.0000 
      3 N           3.4060  -12.8330    5.4190 N.am      5 SEP2        0.0000 
      4 N           5.7005   -8.9700    8.8945 N.am      2 SEC2        0.0000 
      5 N           5.6040   -9.9930    7.6480 N.am      8 SEL2        0.0000 
      6 N           5.7970   -7.9470   10.1410 N.am      5 SEP2        0.0000 
      7 CA         11.4555  -12.4535   10.1500 C.3       3 GLC5        0.0000 
      8 CA          9.7400  -11.1250   10.5040 C.3       9 GLL5        0.0000 
      9 CA         13.1710  -13.7820    9.7960 C.3       6 GLP5        0.0000 
     10 O           9.6995  -11.7955   12.3630 O.2       1 ALC1        0.0000 
     11 O          10.6320  -11.2550   11.5140 O.2       7 ALL1        0.0000 
     12 O           8.7670  -12.3360   13.2120 O.2       4 ALP1        0.0000 
     13 N          10.9190  -11.6520   14.8650 N.am      2 SEC2        0.0000 
     14 N          12.0180  -10.8720   13.9780 N.am      8 SEL2        0.0000 
     15 N           9.8200  -12.4320   15.7520 N.am      5 SEP2        0.0000 
     16 CA         14.0340  -11.6380   14.3440 C.3       3 GLC5        0.0000 
     17 CA         12.9080  -10.4240   14.8910 C.3       9 GLL5        0.0000 
     18 CA         15.1600  -12.8520   13.7970 C.3       6 GLP5        0.0000 
     19 CA         13.2505   -9.4610   16.5055 C.3       3 GLC5        0.0000 
     20 CA         13.5930   -8.4980   18.1200 C.3       6 GLP5        0.0000 
     21 CA         14.7785  -10.5665   16.0115 C.3       3 GLC5        0.0000 
     22 CA         16.6490  -10.7090   17.1320 C.3       6 GLP5        0.0000 
     23 CA         12.2725  -12.1540   15.7245 C.3       3 GLC5        0.0000 
     24 CA         11.6370  -13.8840   16.5580 C.3       6 GLP5        0.0000 
     25 CA         11.8755   -9.0035   14.3910 C.3       3 GLC5        0.0000 
     26 CA         10.8430   -7.5830   13.8910 C.3       6 GLP5        0.0000 
     27 CA         14.2770  -11.2010   13.3845 C.3       3 GLC5        0.0000 
     28 CA         13.3940   -9.5500   12.9720 C.3       9 GLL5        0.0000 
     29 CA         15.2470   -9.3015   12.7700 C.3       3 GLC5        0.0000 
     30 CA         17.1000   -9.0530   12.5680 C.3       6 GLP5        0.0000 
     31 CA         12.1185   -8.5665   13.4315 C.3       3 GLC5        0.0000 
     32 N          15.1645   -8.2855   12.2305 N.am      2 SEC2        0.0000 
     33 N          13.9080   -8.8230   11.9530 N.am      8 SEL2        0.0000 
     34 N          16.4210   -7.7480   12.5080 N.am      5 SEP2        0.0000 
     35 CA         15.2330   -8.9830   11.6430 C.3       3 GLC5        0.0000 
     36 CA         13.3660   -8.9130   10.7180 C.3       9 GLL5        0.0000 
     37 CA         13.4000  -11.2310    7.9450 C.3       3 GLC5        0.0000 
     38 CA         13.3010   -9.0800    7.5620 C.3       9 GLL5        0.0000 
     39 CA         13.4990  -13.3820    8.3280 C.3       6 GLP5        0.0000 
     40 CA         15.0645  -10.1330    7.9525 C.3       3 GLC5        0.0000 
     41 CA         16.8280  -11.1860    8.3430 C.3       6 GLP5        0.0000 
     42 CA         12.1210   -4.7650    6.6210 C.3       3 GLC5        0.0000 
     43 CA         13.4940   -6.3680    6.4910 C.3       9 GLL5        0.0000 
     44 CA         10.7480   -3.1620    6.7510 C.3       6 GLP5        0.0000 
     45 CA          6.5415  -10.8125    9.8495 C.3       3 GLC5        0.0000 
     46 CA          7.8480  -10.8850    8.4680 C.3       9 GLL5        0.0000 
     47 CA          5.0840  -10.1150   10.9680 C.3       6 GLP5        0.0000 
     48 CA         10.0075  -13.3845    8.7060 C.3       3 GLC5        0.0000 
     49 CA          8.1500  -12.1350    8.9940 C.3       9 GLL5        0.0000 
     50 CA         11.3950  -14.5720    7.9090 C.3       6 GLP5        0.0000 
     51 CA          7.3905  -12.7370   11.1600 C.3       3 GLC5        0.0000 
     52 CA          9.0900  -12.2590   10.0120 C.3       9 GLL5        0.0000 
     53 CA          6.1610  -13.2770   12.8170 C.3       6 GLP5        0.0000 
     54 CA          7.0205   -9.9558   10.2210 C.3       3 GLC5        0.0000 
     55 CA          9.4240   -9.8540    9.9880 C.3       9 GLL5        0.0000 
     56 CA          8.1220   -7.9543    9.4325 C.3       3 GLC5        0.0000 
     57 CA          8.4900   -9.7390    8.9600 C.3       9 GLL5        0.0000 
     58 CA          7.2870   -6.1120    9.3910 C.3       6 GLP5        0.0000 
     59 CA          9.1435   -8.3373   10.7905 C.3       3 GLC5        0.0000 
     60 CA          9.3300   -6.8780   12.1070 C.3       6 GLP5        0.0000 
     61 CA         12.5765  -11.9345   10.4347 C.3       3 GLC5        0.0000 
     62 CA         12.2450   -9.7420   10.5180 C.3       9 GLL5        0.0000 
     63 CA         14.5297  -10.4173   10.1685 C.3       3 GLC5        0.0000 
     64 CA         16.2540  -11.5070    9.7190 C.3       6 GLP5        0.0000 
     65 CA         11.7585   -8.5415   12.3934 C.3       3 GLC5        0.0000 
     66 CA         13.7875   -9.6928    4.8182 C.3       3 GLC5        0.0000 
     67 CA         12.7350   -8.7230    6.1900 C.3       9 GLL5        0.0000 
     68 CA         14.4300  -11.2290    3.7520 C.3       6 GLP5        0.0000 
     69 CA         15.8403   -6.3893    6.5545 C.3       3 GLC5        0.0000 
     70 CA         17.9050   -6.2310    5.9320 C.3       6 GLP5        0.0000 
@<TRIPOS>BOND
@<TRIPOS>SUBSTRUCTURE
     1 ALC1       10 GROUP        1 X    ALC  0     ROOT ALC X 1
     2 SEC2        1 GROUP        1 X    SEC  0     **** SEC X 2
     3 GLC5        7 GROUP        1 X    GLC  0     **** GLC X 6
     4 ALP1       12 GROUP        1 Y    ALP  0     ROOT ALP Y 8
     5 SEP2        3 GROUP        1 Y    SEP  0     **** SEP Y 9
     6 GLP5        9 GROUP        1 Y    GLP  0     **** GLP Y 13
     7 ALL1       11 GROUP        1 Z    ALL  0     ROOT ALL Z 15
     8 SEL2        2 GROUP        1 Z    SEL  0     **** SEL Z 16
     9 GLL5        8 GROUP        1 Z    GLL  0     **** GLL Z 20
@<TRIPOS>SET

