#    Name: 2c6k_DT2_1_ligand
#    Modification time : Mon Mar 24 22:43:40 2014

@<TRIPOS>MOLECULE
2c6k_DT2_1_ligand
   48    51     1     0     0
SMALL
NO_CHARGES


@<TRIPOS>ATOM
      1 O2          6.2400  -12.0470    6.8590 O.2       1 DT21299     0.0000 
      2 S1          6.6560  -10.7510    7.1710 S.o2      1 DT21299     0.0000 
      3 O3          5.6040   -9.9930    7.6480 O.2       1 DT21299     0.0000 
      4 N6          7.3480  -10.0780    5.9650 N.pl3     1 DT21299     0.0000 
      5 C16         7.8480  -10.8850    8.4680 C.ar      1 DT21299     0.0000 
      6 C15         8.1500  -12.1350    8.9940 C.ar      1 DT21299     0.0000 
      7 C14         9.0900  -12.2590   10.0120 C.ar      1 DT21299     0.0000 
      8 C13         9.7400  -11.1250   10.5040 C.ar      1 DT21299     0.0000 
      9 C18         9.4240   -9.8540    9.9880 C.ar      1 DT21299     0.0000 
     10 C17         8.4900   -9.7390    8.9600 C.ar      1 DT21299     0.0000 
     11 N5         10.6320  -11.2550   11.5140 N.pl3     1 DT21299     0.0000 
     12 C9         11.7190  -10.4320   11.6290 C.ar      1 DT21299     0.0000 
     13 N2         12.3240  -10.2990   12.8200 N.pl3     1 DT21299     0.0000 
     14 N3         12.0180  -10.8720   13.9780 N.ar      1 DT21299     0.0000 
     15 C11        12.9080  -10.4240   14.8910 C.ar      1 DT21299     0.0000 
     16 C10        13.3940   -9.5500   12.9720 C.ar      1 DT21299     0.0000 
     17 N4         13.7700   -9.5820   14.2460 N.ar      1 DT21299     0.0000 
     18 N1         13.9080   -8.8230   11.9530 N.ar      1 DT21299     0.0000 
     19 C7         13.3660   -8.9130   10.7180 C.ar      1 DT21299     0.0000 
     20 C8         12.2450   -9.7420   10.5180 C.ar      1 DT21299     0.0000 
     21 N7         13.9630   -8.2450    9.6750 N.pl3     1 DT21299     0.0000 
     22 C1         13.2340   -7.8600    8.4730 C.3       1 DT21299     0.0000 
     23 C2         13.3010   -9.0800    7.5620 C.3       1 DT21299     0.0000 
     24 C3         12.7350   -8.7230    6.1900 C.3       1 DT21299     0.0000 
     25 C4         13.5550   -7.5900    5.5790 C.3       1 DT21299     0.0000 
     26 C5         13.4940   -6.3680    6.4910 C.3       1 DT21299     0.0000 
     27 C6         14.0570   -6.7270    7.8630 C.3       1 DT21299     0.0000 
     28 H           7.4583  -10.6446    5.1484 H         1 DT21299     0.0000 
     29 H           7.6320   -9.1280    6.0945 H         1 DT21299     0.0000 
     30 H           7.6763  -12.9740    8.6292 H         1 DT21299     0.0000 
     31 H           9.3077  -13.1834   10.4034 H         1 DT21299     0.0000 
     32 H           9.8811   -9.0226   10.3699 H         1 DT21299     0.0000 
     33 H           8.2699   -8.8208    8.5616 H         1 DT21299     0.0000 
     34 H          10.4910  -12.0080   12.2338 H         1 DT21299     0.0000 
     35 H          12.9370  -10.6493   15.8197 H         1 DT21299     0.0000 
     36 H          11.8288   -9.8398    9.6033 H         1 DT21299     0.0000 
     37 H          14.9685   -7.9897    9.7117 H         1 DT21299     0.0000 
     38 H          12.2757   -7.5747    8.6608 H         1 DT21299     0.0000 
     39 H          12.7174   -9.8850    7.9931 H         1 DT21299     0.0000 
     40 H          14.3326   -9.3941    7.4544 H         1 DT21299     0.0000 
     41 H          11.7049   -8.4044    6.2975 H         1 DT21299     0.0000 
     42 H          12.7833   -9.5914    5.5437 H         1 DT21299     0.0000 
     43 H          13.1486   -7.3349    4.6076 H         1 DT21299     0.0000 
     44 H          14.5851   -7.9084    5.4721 H         1 DT21299     0.0000 
     45 H          12.4638   -6.0489    6.5968 H         1 DT21299     0.0000 
     46 H          14.0819   -5.5667    6.0590 H         1 DT21299     0.0000 
     47 H          15.0868   -7.0475    7.7574 H         1 DT21299     0.0000 
     48 H          14.0092   -5.8593    8.5105 H         1 DT21299     0.0000 
@<TRIPOS>BOND
     1    2    1 2    
     2    3    2 2    
     3    4    2 1    
     4    5    2 1    
     5   28    4 1    
     6   29    4 1    
     7    6    5 ar   
     8   10    5 ar   
     9    7    6 ar   
    10   30    6 1    
    11    8    7 ar   
    12   31    7 1    
    13    9    8 ar   
    14   11    8 1    
    15   10    9 ar   
    16   32    9 1    
    17   33   10 1    
    18   12   11 1    
    19   34   11 1    
    20   13   12 ar   
    21   20   12 ar   
    22   14   13 ar   
    23   16   13 ar   
    24   15   14 ar   
    25   17   15 ar   
    26   35   15 1    
    27   17   16 ar   
    28   18   16 ar   
    29   19   18 ar   
    30   20   19 ar   
    31   21   19 1    
    32   36   20 1    
    33   22   21 1    
    34   37   21 1    
    35   23   22 1    
    36   27   22 1    
    37   38   22 1    
    38   24   23 1    
    39   39   23 1    
    40   40   23 1    
    41   25   24 1    
    42   41   24 1    
    43   42   24 1    
    44   26   25 1    
    45   43   25 1    
    46   44   25 1    
    47   27   26 1    
    48   45   26 1    
    49   46   26 1    
    50   47   27 1    
    51   48   27 1    
@<TRIPOS>SUBSTRUCTURE
     1 DT21299     1 GROUP   
@<TRIPOS>SET

