#    Name: 1zo9_EPM_2_INTS_M
#    Modification time : Tue Mar 25 11:56:53 2014

@<TRIPOS>MOLECULE
1zo9_EPM_2_INTS_M
   88     0     6     0     0
SMALL
NO_CHARGES


@<TRIPOS>ATOM
      1 N           0.8670   18.6695  -28.7155 N.am      1 SEC2        0.0000 
      2 N          -0.1170   17.6890  -28.8200 N.am      5 SEL2        0.0000 
      3 N           1.8510   19.6500  -28.6110 N.am      3 SEP2        0.0000 
      4 N           1.9070   16.5205  -29.1510 N.am      1 SEC2        0.0000 
      5 N           0.7300   15.7460  -29.3540 N.am      5 SEL2        0.0000 
      6 N           3.0840   17.2950  -28.9480 N.am      3 SEP2        0.0000 
      7 CA         -3.2030   16.0510  -32.2905 C.3       2 GLC5        0.0000 
      8 CA         -1.9970   15.5530  -30.7450 C.3       6 GLL5        0.0000 
      9 CA         -4.4090   16.5490  -33.8360 C.3       4 GLP5        0.0000 
     10 CA         -1.0605   12.3390  -30.6180 C.3       2 GLC5        0.0000 
     11 CA         -1.1150   14.4660  -31.3330 C.3       6 GLL5        0.0000 
     12 CA         -1.0060   10.2120  -29.9030 C.3       4 GLP5        0.0000 
     13 CA         -3.1140   13.3405  -33.7310 C.3       2 GLC5        0.0000 
     14 CA         -1.5040   14.1450  -33.0860 C.3       6 GLL5        0.0000 
     15 CA         -4.7240   12.5360  -34.3760 C.3       4 GLP5        0.0000 
     16 CA         -1.4275   15.6230  -35.6900 C.3       2 GLC5        0.0000 
     17 CA         -0.3060   15.2410  -33.9000 C.3       6 GLL5        0.0000 
     18 CA         -2.5490   16.0050  -37.4800 C.3       4 GLP5        0.0000 
     19 CA         -0.3410   14.0415  -35.6980 C.3       2 GLC5        0.0000 
     20 CA         -0.3760   12.8420  -37.4960 C.3       4 GLP5        0.0000 
     21 CA          1.3605   14.4365  -34.3775 C.3       2 GLC5        0.0000 
     22 CA          3.0270   13.6320  -34.8550 C.3       4 GLP5        0.0000 
     23 CA          1.3260   15.9395  -32.8565 C.3       2 GLC5        0.0000 
     24 CA          2.9580   16.6380  -31.8130 C.3       4 GLP5        0.0000 
     25 N          -4.0090   14.3100  -28.7030 N.am      1 SEC2        0.0000 
     26 N          -4.1380   15.4290  -28.0120 N.am      5 SEL2        0.0000 
     27 N          -3.8800   13.1910  -29.3940 N.am      3 SEP2        0.0000 
     28 CA         -6.0900   16.1740  -28.3910 C.3       2 GLC5        0.0000 
     29 CA         -4.8130   17.7390  -28.0220 C.3       6 GLL5        0.0000 
     30 CA         -7.3670   14.6090  -28.7600 C.3       4 GLP5        0.0000 
     31 CA         -3.4395   20.9265  -27.1315 C.3       2 GLC5        0.0000 
     32 CA         -4.1940   18.9140  -27.2510 C.3       6 GLL5        0.0000 
     33 CA         -2.6850   22.9390  -27.0120 C.3       4 GLP5        0.0000 
     34 CA         -3.9290   17.0285  -24.2220 C.3       2 GLC5        0.0000 
     35 CA         -3.8200   18.5240  -25.8350 C.3       6 GLL5        0.0000 
     36 CA         -4.0380   15.5330  -22.6090 C.3       4 GLP5        0.0000 
     37 CA         -1.5415   20.1580  -26.1215 C.3       2 GLC5        0.0000 
     38 CA         -3.2350   19.6890  -25.1170 C.3       6 GLL5        0.0000 
     39 CA          0.1520   20.6270  -27.1260 C.3       4 GLP5        0.0000 
     40 CA         -2.9600   21.3140  -26.0645 C.3       2 GLC5        0.0000 
     41 CA         -3.4780   17.3780  -23.1910 C.3       2 GLC5        0.0000 
     42 CA         -2.9180   19.2230  -23.7730 C.3       6 GLL5        0.0000 
     43 CA         -4.7645   20.2775  -21.7530 C.3       2 GLC5        0.0000 
     44 CA         -3.1990   20.2580  -22.7650 C.3       6 GLL5        0.0000 
     45 CA         -6.3300   20.2970  -20.7410 C.3       4 GLP5        0.0000 
     46 CA         -3.3350   21.3345  -19.7735 C.3       2 GLC5        0.0000 
     47 CA         -1.9060   21.7050  -21.2030 C.3       6 GLL5        0.0000 
     48 CA         -4.7640   20.9640  -18.3440 C.3       4 GLP5        0.0000 
     49 CA          0.9980   22.1225  -22.0995 C.3       2 GLC5        0.0000 
     50 CA         -0.9060   22.7600  -21.3900 C.3       6 GLL5        0.0000 
     51 CA          2.9020   21.4850  -22.8090 C.3       4 GLP5        0.0000 
     52 CA          0.7295   22.1680  -20.1610 C.3       2 GLC5        0.0000 
     53 CA          2.3650   21.5760  -18.9320 C.3       4 GLP5        0.0000 
     54 CA          0.3885   22.8705  -19.1565 C.3       2 GLC5        0.0000 
     55 CA         -0.7110   23.8880  -20.4360 C.3       6 GLL5        0.0000 
     56 CA          1.4880   21.8530  -17.8770 C.3       4 GLP5        0.0000 
     57 CA          1.3640   23.1675  -19.9320 C.3       2 GLC5        0.0000 
     58 CA          0.3630   24.7590  -20.9320 C.3       6 GLL5        0.0000 
     59 CA          1.2945   23.6345  -18.8330 C.3       2 GLC5        0.0000 
     60 CA          1.1010   25.4160  -19.7890 C.3       6 GLL5        0.0000 
     61 CA          3.2675   26.0590  -22.0230 C.3       2 GLC5        0.0000 
     62 CA          2.3840   25.9130  -20.3270 C.3       6 GLL5        0.0000 
     63 CA          4.1510   26.2050  -23.7190 C.3       4 GLP5        0.0000 
     64 CA          2.6470   26.6015  -17.4135 C.3       2 GLC5        0.0000 
     65 CA          3.2060   26.5870  -19.3060 C.3       6 GLL5        0.0000 
     66 CA          2.0880   26.6160  -15.5210 C.3       4 GLP5        0.0000 
     67 CA          4.3045   26.6445  -21.8080 C.3       2 GLC5        0.0000 
     68 CA          4.4580   27.0840  -19.8970 C.3       6 GLL5        0.0000 
     69 CA          5.9225   27.3515  -20.9045 C.3       2 GLC5        0.0000 
     70 CA          7.3870   27.6190  -21.9120 C.3       4 GLP5        0.0000 
     71 CA          4.9780   25.3215  -18.9060 C.3       2 GLC5        0.0000 
     72 CA          5.4980   23.5590  -17.9150 C.3       4 GLP5        0.0000 
     73 CA          5.3720   28.2140  -18.5885 C.3       2 GLC5        0.0000 
     74 CA          6.2860   29.3440  -17.2800 C.3       4 GLP5        0.0000 
     75 CA         -2.6570   15.6210  -33.6645 C.3       2 GLC5        0.0000 
     76 CA         -3.7698   19.3057  -29.1752 C.3       2 GLC5        0.0000 
     77 CA         -3.0360   20.2850  -30.7140 C.3       4 GLP5        0.0000 
     78 CA         -6.0739   18.5061  -26.0464 C.3       2 GLC5        0.0000 
     79 CA         -7.9860   18.5870  -25.3570 C.3       4 GLP5        0.0000 
     80 CA         -2.9175   22.1745  -23.6490 C.3       2 GLC5        0.0000 
     81 CA         -3.2870   23.8940  -24.7810 C.3       4 GLP5        0.0000 
     82 CA         -2.3465   23.0632  -23.0388 C.3       2 GLC5        0.0000 
     83 CA         -2.6837   24.0906  -20.5321 C.3       2 GLC5        0.0000 
     84 CA         -4.3090   25.1210  -20.1980 C.3       4 GLP5        0.0000 
     85 CA          3.4440   24.6060  -18.8577 C.3       2 GLC5        0.0000 
     86 CA          4.0930   22.9620  -17.8990 C.3       4 GLP5        0.0000 
     87 CA          1.5601   27.9224  -19.6355 C.3       2 GLC5        0.0000 
     88 CA          0.6460   29.7190  -19.5890 C.3       4 GLP5        0.0000 
@<TRIPOS>BOND
@<TRIPOS>SUBSTRUCTURE
     1 SEC2        1 GROUP        1 X    SEC  0     ROOT SEC X 2
     2 GLC5        7 GROUP        1 X    GLC  0     **** GLC X 6
     3 SEP2        3 GROUP        1 Y    SEP  0     ROOT SEP Y 9
     4 GLP5        9 GROUP        1 Y    GLP  0     **** GLP Y 13
     5 SEL2        2 GROUP        1 Z    SEL  0     ROOT SEL Z 16
     6 GLL5        8 GROUP        1 Z    GLL  0     **** GLL Z 20
@<TRIPOS>SET

