#    Name: 1zo9_EPM_2_ligand
#    Modification time : Tue Mar 25 11:56:53 2014

@<TRIPOS>MOLECULE
1zo9_EPM_2_ligand
   66    65     1     0     0
SMALL
NO_CHARGES


@<TRIPOS>ATOM
      1 C1         -0.2390   16.4870  -29.1440 C.2       1 EPM1471     0.0000 
      2 O1         -0.1170   17.6890  -28.8200 O.co2     1 EPM1471     0.0000 
      3 O2          0.7300   15.7460  -29.3540 O.co2     1 EPM1471     0.0000 
      4 C2         -1.7110   15.8880  -29.2680 C.3       1 EPM1471     0.0000 
      5 C3         -1.9970   15.5530  -30.7450 C.3       1 EPM1471     0.0000 
      6 C4         -1.1150   14.4660  -31.3330 C.3       1 EPM1471     0.0000 
      7 S1         -1.5040   14.1450  -33.0860 S.3       1 EPM1471     0.0000 
      8 C5         -0.3060   15.2410  -33.9000 C.3       1 EPM1471     0.0000 
      9 N          -2.7070   16.9030  -28.9480 N.am      1 EPM1471     0.0000 
     10 C6         -3.8380   16.5940  -28.3430 C.2       1 EPM1471     0.0000 
     11 O3         -4.1380   15.4290  -28.0120 O.2       1 EPM1471     0.0000 
     12 C7         -4.8130   17.7390  -28.0220 C.3       1 EPM1471     0.0000 
     13 C8         -4.1940   18.9140  -27.2510 C.3       1 EPM1471     0.0000 
     14 C9         -3.8200   18.5240  -25.8350 C.3       1 EPM1471     0.0000 
     15 C10        -3.2350   19.6890  -25.1170 C.3       1 EPM1471     0.0000 
     16 C11        -2.9180   19.2230  -23.7730 C.3       1 EPM1471     0.0000 
     17 C12        -3.1990   20.2580  -22.7650 C.3       1 EPM1471     0.0000 
     18 C13        -1.8970   20.6520  -22.2690 C.3       1 EPM1471     0.0000 
     19 C14        -1.9060   21.7050  -21.2030 C.3       1 EPM1471     0.0000 
     20 C15        -0.9060   22.7600  -21.3900 C.3       1 EPM1471     0.0000 
     21 C16        -0.7110   23.8880  -20.4360 C.3       1 EPM1471     0.0000 
     22 C17         0.3630   24.7590  -20.9320 C.3       1 EPM1471     0.0000 
     23 C18         1.1010   25.4160  -19.7890 C.3       1 EPM1471     0.0000 
     24 C19         2.3840   25.9130  -20.3270 C.3       1 EPM1471     0.0000 
     25 C20         3.2060   26.5870  -19.3060 C.3       1 EPM1471     0.0000 
     26 C21         4.4580   27.0840  -19.8970 C.3       1 EPM1471     0.0000 
     27 H          -1.7978   15.0349  -28.6905 H         1 EPM1471     0.0000 
     28 H          -1.8821   16.4775  -31.3403 H         1 EPM1471     0.0000 
     29 H          -3.0567   15.2509  -30.8346 H         1 EPM1471     0.0000 
     30 H          -1.2621   13.5014  -30.8927 H         1 EPM1471     0.0000 
     31 H          -0.0776   14.7260  -31.3798 H         1 EPM1471     0.0000 
     32 H          -2.4646   17.8767  -29.2277 H         1 EPM1471     0.0000 
     33 H          -5.6555   17.3329  -27.4354 H         1 EPM1471     0.0000 
     34 H          -5.2377   18.1184  -28.9678 H         1 EPM1471     0.0000 
     35 H          -4.9136   19.7370  -27.2264 H         1 EPM1471     0.0000 
     36 H          -3.3025   19.2547  -27.7848 H         1 EPM1471     0.0000 
     37 H          -3.0984   17.7050  -25.8710 H         1 EPM1471     0.0000 
     38 H          -4.7143   18.1738  -25.3151 H         1 EPM1471     0.0000 
     39 H          -3.9580   20.4940  -25.0840 H         1 EPM1471     0.0000 
     40 H          -2.3407   20.0186  -25.6303 H         1 EPM1471     0.0000 
     41 H          -1.8527   18.9339  -23.7151 H         1 EPM1471     0.0000 
     42 H          -3.5040   18.3152  -23.5401 H         1 EPM1471     0.0000 
     43 H          -3.8043   19.8448  -21.9724 H         1 EPM1471     0.0000 
     44 H          -3.7044   21.0930  -23.2262 H         1 EPM1471     0.0000 
     45 H          -1.2576   21.0175  -23.1141 H         1 EPM1471     0.0000 
     46 H          -1.3501   19.7582  -21.8709 H         1 EPM1471     0.0000 
     47 H          -1.7548   21.2114  -20.2161 H         1 EPM1471     0.0000 
     48 H          -2.9244   22.1534  -21.1565 H         1 EPM1471     0.0000 
     49 H          -1.0597   23.2213  -22.4405 H         1 EPM1471     0.0000 
     50 H           0.1254   22.2571  -21.5427 H         1 EPM1471     0.0000 
     51 H          -0.4512   23.4903  -19.4521 H         1 EPM1471     0.0000 
     52 H          -1.6428   24.4512  -20.3447 H         1 EPM1471     0.0000 
     53 H          -0.0496   25.5428  -21.5814 H         1 EPM1471     0.0000 
     54 H           1.0809   24.1793  -21.5276 H         1 EPM1471     0.0000 
     55 H           1.2729   24.6860  -19.0102 H         1 EPM1471     0.0000 
     56 H           0.5073   26.2343  -19.4058 H         1 EPM1471     0.0000 
     57 H           2.1857   26.6125  -21.1635 H         1 EPM1471     0.0000 
     58 H           2.9532   25.0669  -20.7610 H         1 EPM1471     0.0000 
     59 H           3.4324   25.8848  -18.4903 H         1 EPM1471     0.0000 
     60 H           2.6418   27.4245  -18.8702 H         1 EPM1471     0.0000 
     61 H           0.6301   14.9014  -33.8083 H         1 EPM1471     0.0000 
     62 H          -0.4905   15.3312  -34.8787 H         1 EPM1471     0.0000 
     63 H          -0.3227   16.1627  -33.5124 H         1 EPM1471     0.0000 
     64 H           5.0330   27.5414  -19.2186 H         1 EPM1471     0.0000 
     65 H           5.0023   26.3434  -20.2911 H         1 EPM1471     0.0000 
     66 H           4.2870   27.7436  -20.6289 H         1 EPM1471     0.0000 
@<TRIPOS>BOND
     1    2    1 ar   
     2    3    1 ar   
     3    4    1 1    
     4    5    4 1    
     5    9    4 1    
     6   27    4 1    
     7    6    5 1    
     8   28    5 1    
     9   29    5 1    
    10    7    6 1    
    11   30    6 1    
    12   31    6 1    
    13    8    7 1    
    14   61    8 1    
    15   62    8 1    
    16   63    8 1    
    17   10    9 am   
    18   32    9 1    
    19   11   10 2    
    20   12   10 1    
    21   13   12 1    
    22   33   12 1    
    23   34   12 1    
    24   14   13 1    
    25   35   13 1    
    26   36   13 1    
    27   15   14 1    
    28   37   14 1    
    29   38   14 1    
    30   16   15 1    
    31   39   15 1    
    32   40   15 1    
    33   17   16 1    
    34   41   16 1    
    35   42   16 1    
    36   18   17 1    
    37   43   17 1    
    38   44   17 1    
    39   19   18 1    
    40   45   18 1    
    41   46   18 1    
    42   20   19 1    
    43   47   19 1    
    44   48   19 1    
    45   21   20 1    
    46   49   20 1    
    47   50   20 1    
    48   22   21 1    
    49   51   21 1    
    50   52   21 1    
    51   23   22 1    
    52   53   22 1    
    53   54   22 1    
    54   24   23 1    
    55   55   23 1    
    56   56   23 1    
    57   25   24 1    
    58   57   24 1    
    59   58   24 1    
    60   26   25 1    
    61   59   25 1    
    62   60   25 1    
    63   64   26 1    
    64   65   26 1    
    65   66   26 1    
@<TRIPOS>SUBSTRUCTURE
     1 EPM1471     1 GROUP   
@<TRIPOS>SET

