#    Name: 1vfp_ACP_1_INTS_M
#    Modification time : Tue Mar 25 07:47:23 2014

@<TRIPOS>MOLECULE
1vfp_ACP_1_INTS_M
   74     0    15     0     0
SMALL
NO_CHARGES


@<TRIPOS>ATOM
      1 NZ         14.9535   -2.6875   53.9270 N.4       3 LYC4        0.0000 
      2 NZ         16.2040   -2.7500   55.2130 N.4      13 LYL4        0.0000 
      3 NZ         13.7030   -2.6250   52.6410 N.4       8 LYP4        0.0000 
      4 N          16.7835   -1.3875   55.9270 N.am      2 SEC2        0.0000 
      5 N          16.2040   -2.7500   55.2130 N.am     12 SEL2        0.0000 
      6 N          17.3630   -0.0250   56.6410 N.am      7 SEP2        0.0000 
      7 N          15.5845   -2.0505   56.2715 N.am      2 SEC2        0.0000 
      8 N          14.9650   -1.3510   57.3300 N.am      7 SEP2        0.0000 
      9 Zn         18.4860   -4.1650   52.9030 Zn        4 ZIC7        0.0000 
     10 Zn         17.9600   -3.5270   53.6010 Zn       14 ZIL7        0.0000 
     11 Zn         19.0120   -4.8030   52.2050 Zn        9 ZIP7        0.0000 
     12 N          19.6610   -1.4280   54.3755 N.am      2 SEC2        0.0000 
     13 N          18.6150   -1.8910   55.3380 N.am     12 SEL2        0.0000 
     14 N          20.7070   -0.9650   53.4130 N.am      7 SEP2        0.0000 
     15 N          19.8605   -2.0600   55.6025 N.am      2 SEC2        0.0000 
     16 N          21.1060   -2.2290   55.8670 N.am      7 SEP2        0.0000 
     17 N          17.9890   -0.9580   55.9895 N.am      2 SEC2        0.0000 
     18 N          19.6740   -5.6910   58.6940 N.am      2 SEC2        0.0000 
     19 N          18.3050   -5.8010   57.9730 N.am     12 SEL2        0.0000 
     20 N          21.0430   -5.5810   59.4150 N.am      7 SEP2        0.0000 
     21 NZ         19.7300   -3.3465   58.9205 N.4       3 LYC4        0.0000 
     22 NZ         18.2340   -3.3960   58.6140 N.4      13 LYL4        0.0000 
     23 NZ         21.7580   -4.4730   59.5510 N.4       8 LYP4        0.0000 
     24 N          19.7300   -3.3465   58.9205 N.am      2 SEC2        0.0000 
     25 N          18.2340   -3.3960   58.6140 N.am     12 SEL2        0.0000 
     26 N          21.2260   -3.2970   59.2270 N.am      7 SEP2        0.0000 
     27 CA         19.8035   -3.6600   55.3455 C.3       5 GLC5        0.0000 
     28 CA         18.2040   -4.3350   56.0010 C.3      15 GLL5        0.0000 
     29 CA         21.4030   -2.9850   54.6900 C.3      10 GLP5        0.0000 
     30 NZ         14.4725   -7.7015   57.1330 N.4       3 LYC4        0.0000 
     31 NZ         15.7030   -7.0470   57.4930 N.4      13 LYL4        0.0000 
     32 NZ         13.6000   -9.6020   56.4960 N.4       8 LYP4        0.0000 
     33 N          14.4725   -7.7015   57.1330 N.am      2 SEC2        0.0000 
     34 N          15.7030   -7.0470   57.4930 N.am     12 SEL2        0.0000 
     35 N          13.2420   -8.3560   56.7730 N.am      7 SEP2        0.0000 
     36 CA         15.0430   -3.6225   59.6830 C.3       5 GLC5        0.0000 
     37 CA         15.6240   -5.2990   60.8130 C.3      15 GLL5        0.0000 
     38 CA         14.4620   -1.9460   58.5530 C.3      10 GLP5        0.0000 
     39 CA         16.3310   -4.6480   64.2180 C.3       5 GLC5        0.0000 
     40 CA         16.3720   -5.2000   62.1530 C.3      15 GLL5        0.0000 
     41 CA         16.2900   -4.0960   66.2830 C.3      10 GLP5        0.0000 
     42 N          17.4515   -2.7785   62.4215 N.am      2 SEC2        0.0000 
     43 N          17.9740   -3.6240   61.2310 N.am     12 SEL2        0.0000 
     44 N          16.9290   -1.9330   63.6120 N.am      7 SEP2        0.0000 
     45 CA         16.5385   -8.2330   62.7350 C.3       5 GLC5        0.0000 
     46 CA         17.8580   -6.7610   62.9740 C.3      15 GLL5        0.0000 
     47 CA         15.2190   -9.7050   62.4960 C.3      10 GLP5        0.0000 
     48 CA         17.5755  -12.3890   62.2135 C.3       5 GLC5        0.0000 
     49 CA         19.2670  -11.4290   62.4660 C.3      15 GLL5        0.0000 
     50 CA         15.8840  -13.3490   61.9610 C.3      10 GLP5        0.0000 
     51 CA         18.9125  -13.5310   62.4130 C.3       5 GLC5        0.0000 
     52 CA         18.5580  -15.6330   62.3600 C.3      10 GLP5        0.0000 
     53 CA         20.4965  -12.2640   63.9140 C.3       5 GLC5        0.0000 
     54 CA         21.7260  -13.0990   65.3620 C.3      10 GLP5        0.0000 
     55 O          20.7090  -13.7410   61.8880 O.2       1 ALC1        0.0000 
     56 O          19.7310  -12.4170   61.6510 O.2      11 ALL1        0.0000 
     57 O          21.6870  -15.0650   62.1250 O.2       6 ALP1        0.0000 
     58 CA         16.8595  -10.5570   65.6060 C.3       5 GLC5        0.0000 
     59 CA         18.5960  -10.7640   64.6580 C.3      15 GLL5        0.0000 
     60 CA         15.1230  -10.3500   66.5540 C.3      10 GLP5        0.0000 
     61 CA         17.9605  -12.4750   65.0060 C.3       5 GLC5        0.0000 
     62 CA         17.3250  -14.1860   65.3540 C.3      10 GLP5        0.0000 
     63 CA         19.7795  -11.4095   66.0095 C.3       5 GLC5        0.0000 
     64 CA         20.9630  -12.0550   67.3610 C.3      10 GLP5        0.0000 
     65 CA         18.3595   -9.5675   66.0595 C.3       5 GLC5        0.0000 
     66 CA         18.1230   -8.3710   67.4610 C.3      10 GLP5        0.0000 
     67 CA         19.9470   -7.9715   63.9770 C.3       5 GLC5        0.0000 
     68 CA         18.5410   -9.2090   62.9260 C.3      15 GLL5        0.0000 
     69 CA         21.3530   -6.7340   65.0280 C.3      10 GLP5        0.0000 
     70 CA         15.6310   -7.2352   61.3420 C.3       5 GLC5        0.0000 
     71 CA         15.2640   -9.2210   61.2010 C.3      10 GLP5        0.0000 
     72 CA         14.4115   -4.9458   62.4265 C.3       5 GLC5        0.0000 
     73 CA         12.8250   -4.6420   63.3700 C.3      10 GLP5        0.0000 
     74 CA         19.8045   -6.4540   63.9150 C.3       5 GLC5        0.0000 
@<TRIPOS>BOND
@<TRIPOS>SUBSTRUCTURE
     1 ALC1       55 GROUP        1 X    ALC  0     ROOT ALC X 1
     2 SEC2        4 GROUP        1 X    SEC  0     **** SEC X 2
     3 LYC4        1 GROUP        1 X    LYC  0     **** LYC X 4
     4 ZIC7        9 GROUP        1 X    ZIC  0     **** ZIC X 5
     5 GLC5       27 GROUP        1 X    GLC  0     **** GLC X 6
     6 ALP1       57 GROUP        1 Y    ALP  0     ROOT ALP Y 8
     7 SEP2        6 GROUP        1 Y    SEP  0     **** SEP Y 9
     8 LYP4        3 GROUP        1 Y    LYP  0     **** LYP Y 11
     9 ZIP7       11 GROUP        1 Y    ZIP  0     **** ZIP Y 12
    10 GLP5       29 GROUP        1 Y    GLP  0     **** GLP Y 13
    11 ALL1       56 GROUP        1 Z    ALL  0     ROOT ALL Z 15
    12 SEL2        5 GROUP        1 Z    SEL  0     **** SEL Z 16
    13 LYL4        2 GROUP        1 Z    LYL  0     **** LYL Z 18
    14 ZIL7       10 GROUP        1 Z    ZIL  0     **** ZIL Z 19
    15 GLL5       28 GROUP        1 Z    GLL  0     **** GLL Z 20
@<TRIPOS>SET

