#    Name: 1vfp_ACP_1_ligand
#    Modification time : Tue Mar 25 07:47:23 2014

@<TRIPOS>MOLECULE
1vfp_ACP_1_ligand
   45    47     1     0     0
SMALL
NO_CHARGES


@<TRIPOS>ATOM
      1 PG         17.6820   -3.0380   54.9820 P.3       1 ACP1001     0.0000 
      2 O1G        16.2040   -2.7500   55.2130 O.co2     1 ACP1001     0.0000 
      3 O2G        17.9600   -3.5270   53.6010 O.co2     1 ACP1001     0.0000 
      4 O3G        18.6150   -1.8910   55.3380 O.co2     1 ACP1001     0.0000 
      5 PB         17.7740   -4.4350   57.6820 P.3       1 ACP1001     0.0000 
      6 O1B        18.3050   -5.8010   57.9730 O.co2     1 ACP1001     0.0000 
      7 O2B        18.2340   -3.3960   58.6140 O.co2     1 ACP1001     0.0000 
      8 C3B        18.2040   -4.3350   56.0010 C.3       1 ACP1001     0.0000 
      9 PA         15.2870   -5.8690   58.3860 P.3       1 ACP1001     0.0000 
     10 O1A        15.7030   -7.0470   57.4930 O.co2     1 ACP1001     0.0000 
     11 O2A        13.8500   -5.5000   58.3330 O.co2     1 ACP1001     0.0000 
     12 O3A        16.1800   -4.5960   58.0690 O.3       1 ACP1001     0.0000 
     13 O5'        15.8720   -6.2680   59.7990 O.3       1 ACP1001     0.0000 
     14 C5'        15.6240   -5.2990   60.8130 C.3       1 ACP1001     0.0000 
     15 C4'        16.3720   -5.2000   62.1530 C.3       1 ACP1001     0.0000 
     16 O4'        16.4910   -6.5050   62.6750 O.3       1 ACP1001     0.0000 
     17 C3'        17.7420   -4.9690   61.5690 C.3       1 ACP1001     0.0000 
     18 O3'        17.9740   -3.6240   61.2310 O.3       1 ACP1001     0.0000 
     19 C2'        18.6540   -5.5870   62.6300 C.3       1 ACP1001     0.0000 
     20 O2'        18.8490   -4.6560   63.6750 O.3       1 ACP1001     0.0000 
     21 C1'        17.8580   -6.7610   62.9740 C.3       1 ACP1001     0.0000 
     22 N9         18.3540   -8.0370   62.2830 N.pl3     1 ACP1001     0.0000 
     23 C8         18.7090   -8.2970   61.0090 C.2       1 ACP1001     0.0000 
     24 N7         19.1130   -9.5420   60.7600 N.2       1 ACP1001     0.0000 
     25 C5         19.0070  -10.1060   61.9510 C.ar      1 ACP1001     0.0000 
     26 C6         19.2670  -11.4290   62.4660 C.ar      1 ACP1001     0.0000 
     27 N6         19.7310  -12.4170   61.6510 N.pl3     1 ACP1001     0.0000 
     28 N1         19.0550  -11.7350   63.8120 N.ar      1 ACP1001     0.0000 
     29 C2         18.5960  -10.7640   64.6580 C.ar      1 ACP1001     0.0000 
     30 N3         18.3240   -9.4780   64.2590 N.ar      1 ACP1001     0.0000 
     31 C4         18.5410   -9.2090   62.9260 C.ar      1 ACP1001     0.0000 
     32 H          19.3052   -4.3485   55.9591 H         1 ACP1001     0.0000 
     33 H          17.8520   -5.2684   55.5327 H         1 ACP1001     0.0000 
     34 H          14.4915   -5.3120   61.0940 H         1 ACP1001     0.0000 
     35 H          15.6807   -4.2292   60.3502 H         1 ACP1001     0.0000 
     36 H          16.0724   -4.4722   62.7049 H         1 ACP1001     0.0000 
     37 H          17.8036   -5.6423   60.6947 H         1 ACP1001     0.0000 
     38 H          19.5399   -5.8823   62.1267 H         1 ACP1001     0.0000 
     39 H          17.9589   -6.9368   64.0659 H         1 ACP1001     0.0000 
     40 H          18.6682   -7.5809   60.2870 H         1 ACP1001     0.0000 
     41 H          19.8809  -12.1647   60.6950 H         1 ACP1001     0.0000 
     42 H          19.8809  -13.3076   62.0805 H         1 ACP1001     0.0000 
     43 H          18.4410  -11.0139   65.6756 H         1 ACP1001     0.0000 
     44 H          18.0563   -3.6182   60.2344 H         1 ACP1001     0.0000 
     45 H          18.6454   -3.7650   63.2691 H         1 ACP1001     0.0000 
@<TRIPOS>BOND
     1    2    1 ar   
     2    3    1 ar   
     3    4    1 ar   
     4    8    1 1    
     5    6    5 ar   
     6    7    5 ar   
     7    8    5 1    
     8   12    5 1    
     9   32    8 1    
    10   33    8 1    
    11   10    9 ar   
    12   11    9 ar   
    13   12    9 1    
    14   13    9 1    
    15   14   13 1    
    16   15   14 1    
    17   34   14 1    
    18   35   14 1    
    19   16   15 1    
    20   17   15 1    
    21   36   15 1    
    22   21   16 1    
    23   18   17 1    
    24   19   17 1    
    25   37   17 1    
    26   44   18 1    
    27   20   19 1    
    28   21   19 1    
    29   38   19 1    
    30   45   20 1    
    31   22   21 1    
    32   39   21 1    
    33   23   22 1    
    34   31   22 1    
    35   24   23 2    
    36   40   23 1    
    37   25   24 1    
    38   26   25 ar   
    39   31   25 ar   
    40   27   26 1    
    41   28   26 ar   
    42   41   27 1    
    43   42   27 1    
    44   29   28 ar   
    45   30   29 ar   
    46   43   29 1    
    47   31   30 ar   
@<TRIPOS>SUBSTRUCTURE
     1 ACP1001     1 GROUP   
@<TRIPOS>SET

