#    Name: 1uom_PTI_1_INTS_M
#    Modification time : Tue Mar 25 06:47:08 2014

@<TRIPOS>MOLECULE
1uom_PTI_1_INTS_M
  101     0    12     0     0
SMALL
NO_CHARGES


@<TRIPOS>ATOM
      1 CA         -2.7570   51.8145   19.9390 C.3       4 GLC5        0.0000 
      2 CA         -3.1030   53.4940   19.4140 C.3      12 GLL5        0.0000 
      3 CA         -2.4110   50.1350   20.4640 C.3       8 GLP5        0.0000 
      4 CA         -1.4945   52.0790   19.4910 C.3       4 GLC5        0.0000 
      5 CA         -1.9600   53.8010   18.4030 C.3      12 GLL5        0.0000 
      6 CA         -1.0290   50.3570   20.5790 C.3       8 GLP5        0.0000 
      7 OD1        -2.8295   55.5710   20.2025 O.co2     3 ASC3        0.0000 
      8 OD1        -3.9320   54.7120   19.7410 O.co2    11 ASL3        0.0000 
      9 OD1        -1.7270   56.4300   20.6640 O.co2     7 ASP3        0.0000 
     10 OD1        -3.2495   56.5500   19.9500 O.co2     3 ASC3        0.0000 
     11 OD1        -2.5670   58.3880   20.1590 O.co2     7 ASP3        0.0000 
     12 O          -2.8295   55.5710   20.2025 O.2       1 ALC1        0.0000 
     13 O          -3.9320   54.7120   19.7410 O.2       9 ALL1        0.0000 
     14 O          -1.7270   56.4300   20.6640 O.2       5 ALP1        0.0000 
     15 CA         -1.4910   52.9455   28.8805 C.3       4 GLC5        0.0000 
     16 CA         -1.3290   51.4190   27.4700 C.3      12 GLL5        0.0000 
     17 CA         -1.6530   54.4720   30.2910 C.3       8 GLP5        0.0000 
     18 CA         -1.2985   47.0175   27.9360 C.3       4 GLC5        0.0000 
     19 CA         -0.9350   49.0100   28.4040 C.3      12 GLL5        0.0000 
     20 CA         -1.6620   45.0250   27.4680 C.3       8 GLP5        0.0000 
     21 CA         -0.6680   47.6880   30.0605 C.3       4 GLC5        0.0000 
     22 CA         -0.4010   46.3660   31.7170 C.3       8 GLP5        0.0000 
     23 CA         -0.3725   48.3750   25.6685 C.3       4 GLC5        0.0000 
     24 CA          0.4420   48.9400   27.6670 C.3      12 GLL5        0.0000 
     25 CA         -1.1870   47.8100   23.6700 C.3       8 GLP5        0.0000 
     26 CA          0.6585   47.1810   27.0665 C.3       4 GLC5        0.0000 
     27 CA          0.8750   45.4220   26.4660 C.3       8 GLP5        0.0000 
     28 CA         -0.7135   53.9720   27.9895 C.3       4 GLC5        0.0000 
     29 CA          0.8050   52.7540   26.9090 C.3      12 GLL5        0.0000 
     30 CA         -2.2320   55.1900   29.0700 C.3       8 GLP5        0.0000 
     31 CA          2.8810   54.4835   27.6085 C.3       4 GLC5        0.0000 
     32 CA          2.2040   52.8580   26.6870 C.3      12 GLL5        0.0000 
     33 CA          3.5580   56.1090   28.5300 C.3       8 GLP5        0.0000 
     34 CA          2.0690   51.9465   24.6810 C.3       4 GLC5        0.0000 
     35 CA          1.9340   51.0350   22.6750 C.3       8 GLP5        0.0000 
     36 N           5.4875   51.9085   27.6335 N.am      2 SEC2        0.0000 
     37 N           4.4020   51.7840   26.5760 N.am     10 SEL2        0.0000 
     38 N           6.5730   52.0330   28.6910 N.am      6 SEP2        0.0000 
     39 O           5.4235   52.4650   25.8585 O.2       1 ALC1        0.0000 
     40 O           4.4020   51.7840   26.5760 O.2       9 ALL1        0.0000 
     41 O           6.4450   53.1460   25.1410 O.2       5 ALP1        0.0000 
     42 O           4.4525   52.9770   25.9455 O.2       1 ALC1        0.0000 
     43 O           4.5030   54.1700   25.3150 O.2       5 ALP1        0.0000 
     44 CA         -3.3500   51.9075   30.0175 C.3       4 GLC5        0.0000 
     45 CA         -3.9470   50.1380   29.0730 C.3      12 GLL5        0.0000 
     46 CA         -2.7530   53.6770   30.9620 C.3       8 GLP5        0.0000 
     47 CA         -5.7480   51.8565   28.2160 C.3       4 GLC5        0.0000 
     48 CA         -5.3410   49.8980   29.1540 C.3      12 GLL5        0.0000 
     49 CA         -6.1550   53.8150   27.2780 C.3       8 GLP5        0.0000 
     50 CA         -5.9405   50.2425   31.2205 C.3       4 GLC5        0.0000 
     51 CA         -6.5400   50.5870   33.2870 C.3       8 GLP5        0.0000 
     52 CA         -7.9225   49.0865   28.3320 C.3       4 GLC5        0.0000 
     53 CA         -6.0260   49.3020   28.0590 C.3      12 GLL5        0.0000 
     54 CA         -9.8190   48.8710   28.6050 C.3       8 GLP5        0.0000 
     55 CA         -2.5500   48.4950   25.2360 C.3       4 GLC5        0.0000 
     56 CA         -3.9130   49.1800   26.8020 C.3      12 GLL5        0.0000 
     57 CA         -0.5098   53.9710   16.9133 C.3       4 GLC5        0.0000 
     58 CA          1.2360   53.8140   16.0650 C.3       8 GLP5        0.0000 
     59 CA         -2.3702   52.9415   16.1382 C.3       4 GLC5        0.0000 
     60 CA         -2.4850   51.7550   14.5150 C.3       8 GLP5        0.0000 
     61 CA         -2.5597   55.3368   15.4975 C.3       4 GLC5        0.0000 
     62 CA         -2.5510   54.4550   17.1200 C.3      12 GLL5        0.0000 
     63 CA         -2.1870   55.5630   13.6820 C.3       8 GLP5        0.0000 
     64 CA         -4.7055   56.0590   22.3792 C.3       4 GLC5        0.0000 
     65 CA         -5.0190   54.3990   20.7130 C.3      12 GLL5        0.0000 
     66 CA         -4.5970   57.7390   23.2950 C.3       8 GLP5        0.0000 
     67 CA         -5.1830   52.3935   21.9177 C.3       4 GLC5        0.0000 
     68 CA         -4.6090   54.3590   22.2140 C.3      12 GLL5        0.0000 
     69 CA         -5.5520   50.4080   22.3720 C.3       8 GLP5        0.0000 
     70 CA         -1.4297   53.6505   23.9235 C.3       4 GLC5        0.0000 
     71 CA         -3.4350   53.5470   24.9120 C.3      12 GLL5        0.0000 
     72 CA          0.4460   54.0970   23.5530 C.3       8 GLP5        0.0000 
     73 CA         -4.1502   51.3503   23.0295 C.3       4 GLC5        0.0000 
     74 CA         -3.1760   52.8610   23.6760 C.3      12 GLL5        0.0000 
     75 CA         -4.6478   53.5665   26.3995 C.3       4 GLC5        0.0000 
     76 CA         -4.8677   52.4075   24.9545 C.3       4 GLC5        0.0000 
     77 CA         -2.8460   53.0890   26.1300 C.3      12 GLL5        0.0000 
     78 CA         -6.5950   51.4970   24.3880 C.3       8 GLP5        0.0000 
     79 CA         -2.3247   53.8535   27.6030 C.3       4 GLC5        0.0000 
     80 CA         -3.0414   55.0897   25.1535 C.3       4 GLC5        0.0000 
     81 CA         -3.0070   57.0330   25.0950 C.3       8 GLP5        0.0000 
     82 CA         -0.9858   53.3070   24.8445 C.3       4 GLC5        0.0000 
     83 CA         -0.7908   52.7963   23.9265 C.3       4 GLC5        0.0000 
     84 CA         -1.7340   51.2670   24.9020 C.3      12 GLL5        0.0000 
     85 CA         -1.6073   49.6527   23.9850 C.3       4 GLC5        0.0000 
     86 CA         -2.3210   51.7240   23.6980 C.3      12 GLL5        0.0000 
     87 CA         -0.0468   51.2652   23.4875 C.3       4 GLC5        0.0000 
     88 CA          1.2138   48.9765   29.4477 C.3       4 GLC5        0.0000 
     89 CA          2.6740   48.9780   30.8600 C.3       8 GLP5        0.0000 
     90 CA          2.2035   49.6845   29.0418 C.3       4 GLC5        0.0000 
     91 CA          2.4340   50.4520   27.1110 C.3      12 GLL5        0.0000 
     92 CA          0.9753   53.4515   25.1755 C.3       4 GLC5        0.0000 
     93 CA          2.7518   50.0992   25.3436 C.3       4 GLC5        0.0000 
     94 CA          3.0240   51.7120   26.7890 C.3      12 GLL5        0.0000 
     95 CA          3.1250   49.1470   23.6810 C.3       8 GLP5        0.0000 
     96 CA         -6.1776   47.7585   28.7056 C.3       4 GLC5        0.0000 
     97 CA         -5.3110   48.9420   26.8840 C.3      12 GLL5        0.0000 
     98 CA         -6.8580   46.2460   29.6660 C.3       8 GLP5        0.0000 
     99 CA         -5.3859   47.3050   26.5129 C.3       4 GLC5        0.0000 
    100 CA         -5.9810   45.4590   25.8890 C.3       8 GLP5        0.0000 
    101 CA         -5.6929   50.3240   25.7624 C.3       4 GLC5        0.0000 
@<TRIPOS>BOND
@<TRIPOS>SUBSTRUCTURE
     1 ALC1       12 GROUP        1 X    ALC  0     ROOT ALC X 1
     2 SEC2       36 GROUP        1 X    SEC  0     **** SEC X 2
     3 ASC3        7 GROUP        1 X    ASC  0     **** ASC X 3
     4 GLC5        1 GROUP        1 X    GLC  0     **** GLC X 6
     5 ALP1       14 GROUP        1 Y    ALP  0     ROOT ALP Y 8
     6 SEP2       38 GROUP        1 Y    SEP  0     **** SEP Y 9
     7 ASP3        9 GROUP        1 Y    ASP  0     **** ASP Y 10
     8 GLP5        3 GROUP        1 Y    GLP  0     **** GLP Y 13
     9 ALL1       13 GROUP        1 Z    ALL  0     ROOT ALL Z 15
    10 SEL2       37 GROUP        1 Z    SEL  0     **** SEL Z 16
    11 ASL3        8 GROUP        1 Z    ASL  0     **** ASL Z 17
    12 GLL5        2 GROUP        1 Z    GLL  0     **** GLL Z 20
@<TRIPOS>SET

