#    Name: 1uom_PTI_1_ligand
#    Modification time : Tue Mar 25 06:47:08 2014

@<TRIPOS>MOLECULE
1uom_PTI_1_ligand
   65    69     1     0     0
SMALL
NO_CHARGES


@<TRIPOS>ATOM
      1 C3         -3.1030   53.4940   19.4140 C.3       1 PTI1547     0.0000 
      2 C6         -1.9600   53.8010   18.4030 C.3       1 PTI1547     0.0000 
      3 C9         -2.5510   54.4550   17.1200 C.3       1 PTI1547     0.0000 
      4 N1         -3.9320   54.7120   19.7410 N.4       1 PTI1547     0.0000 
      5 C12        -3.3140   55.7660   17.5060 C.3       1 PTI1547     0.0000 
      6 C15        -4.4500   55.4410   18.5200 C.3       1 PTI1547     0.0000 
      7 C18        -5.0190   54.3990   20.7130 C.3       1 PTI1547     0.0000 
      8 C21        -4.6090   54.3590   22.2140 C.3       1 PTI1547     0.0000 
      9 O24        -3.7250   53.2370   22.4260 O.3       1 PTI1547     0.0000 
     10 C25        -3.1760   52.8610   23.6760 C.ar      1 PTI1547     0.0000 
     11 C26        -3.4350   53.5470   24.9120 C.ar      1 PTI1547     0.0000 
     12 C28        -2.8460   53.0890   26.1300 C.ar      1 PTI1547     0.0000 
     13 C30        -1.9890   51.9450   26.1420 C.ar      1 PTI1547     0.0000 
     14 C31        -1.7340   51.2670   24.9020 C.ar      1 PTI1547     0.0000 
     15 C33        -2.3210   51.7240   23.6980 C.ar      1 PTI1547     0.0000 
     16 C35        -1.3290   51.4190   27.4700 C.3       1 PTI1547     0.0000 
     17 N37        -1.8570   50.0460   27.8620 N.3       1 PTI1547     0.0000 
     18 C38        -0.9350   49.0100   28.4040 C.3       1 PTI1547     0.0000 
     19 C41         0.4420   48.9400   27.6670 C.3       1 PTI1547     0.0000 
     20 C44         1.0320   50.3300   27.3360 C.ar      1 PTI1547     0.0000 
     21 C45         0.2030   51.4910   27.2360 C.ar      1 PTI1547     0.0000 
     22 C46         0.8050   52.7540   26.9090 C.ar      1 PTI1547     0.0000 
     23 C48         2.2040   52.8580   26.6870 C.ar      1 PTI1547     0.0000 
     24 C50         3.0240   51.7120   26.7890 C.ar      1 PTI1547     0.0000 
     25 C51         2.4340   50.4520   27.1110 C.ar      1 PTI1547     0.0000 
     26 O53         4.4020   51.7840   26.5760 O.3       1 PTI1547     0.0000 
     27 C55        -3.2130   49.7890   27.9000 C.ar      1 PTI1547     0.0000 
     28 C56        -3.9470   50.1380   29.0730 C.ar      1 PTI1547     0.0000 
     29 C58        -5.3410   49.8980   29.1540 C.ar      1 PTI1547     0.0000 
     30 C60        -6.0260   49.3020   28.0590 C.ar      1 PTI1547     0.0000 
     31 C62        -5.3110   48.9420   26.8840 C.ar      1 PTI1547     0.0000 
     32 C64        -3.9130   49.1800   26.8020 C.ar      1 PTI1547     0.0000 
     33 H          -2.6505   53.0930   20.3277 H         1 PTI1547     0.0000 
     34 H          -3.7390   52.7135   18.9819 H         1 PTI1547     0.0000 
     35 H          -1.4683   52.8795   18.1352 H         1 PTI1547     0.0000 
     36 H          -1.2605   54.4842   18.8575 H         1 PTI1547     0.0000 
     37 H          -3.2422   53.7716   16.6589 H         1 PTI1547     0.0000 
     38 H          -1.7498   54.7028   16.4462 H         1 PTI1547     0.0000 
     39 H          -3.2359   55.4346   20.2662 H         1 PTI1547     0.0000 
     40 H          -3.7446   56.1945   16.6157 H         1 PTI1547     0.0000 
     41 H          -2.6192   56.4538   17.9597 H         1 PTI1547     0.0000 
     42 H          -4.9202   56.3811   18.8188 H         1 PTI1547     0.0000 
     43 H          -5.1980   54.8291   18.0101 H         1 PTI1547     0.0000 
     44 H          -5.4764   53.4139   20.4666 H         1 PTI1547     0.0000 
     45 H          -5.8431   55.1414   20.6128 H         1 PTI1547     0.0000 
     46 H          -5.5221   54.2731   22.7985 H         1 PTI1547     0.0000 
     47 H          -4.1264   55.3059   22.4448 H         1 PTI1547     0.0000 
     48 H          -4.0419   54.3632   24.9155 H         1 PTI1547     0.0000 
     49 H          -3.0389   53.5838   27.0018 H         1 PTI1547     0.0000 
     50 H          -1.1230   50.4495   24.8984 H         1 PTI1547     0.0000 
     51 H          -2.1275   51.2261   22.8191 H         1 PTI1547     0.0000 
     52 H          -1.5768   52.1501   28.2383 H         1 PTI1547     0.0000 
     53 H          -1.3973   48.0110   28.3373 H         1 PTI1547     0.0000 
     54 H          -0.7301   49.1980   29.4712 H         1 PTI1547     0.0000 
     55 H           0.3096   48.3763   26.7388 H         1 PTI1547     0.0000 
     56 H           1.1464   48.3930   28.3007 H         1 PTI1547     0.0000 
     57 H           0.2131   53.5836   26.8369 H         1 PTI1547     0.0000 
     58 H           2.6140   53.7625   26.4538 H         1 PTI1547     0.0000 
     59 H           3.0303   49.6217   27.1812 H         1 PTI1547     0.0000 
     60 H          -3.4567   50.5664   29.8625 H         1 PTI1547     0.0000 
     61 H          -5.8555   50.1516   29.9961 H         1 PTI1547     0.0000 
     62 H          -7.0281   49.1334   28.1170 H         1 PTI1547     0.0000 
     63 H          -5.8016   48.5135   26.1014 H         1 PTI1547     0.0000 
     64 H          -3.3968   48.9203   25.9634 H         1 PTI1547     0.0000 
     65 H           4.5476   52.6612   26.1185 H         1 PTI1547     0.0000 
@<TRIPOS>BOND
     1    2    1 1    
     2    4    1 1    
     3   33    1 1    
     4   34    1 1    
     5    3    2 1    
     6   35    2 1    
     7   36    2 1    
     8    5    3 1    
     9   37    3 1    
    10   38    3 1    
    11    6    4 1    
    12    7    4 1    
    13   39    4 1    
    14    6    5 1    
    15   40    5 1    
    16   41    5 1    
    17   42    6 1    
    18   43    6 1    
    19    8    7 1    
    20   44    7 1    
    21   45    7 1    
    22    9    8 1    
    23   46    8 1    
    24   47    8 1    
    25   10    9 1    
    26   11   10 ar   
    27   15   10 ar   
    28   12   11 ar   
    29   48   11 1    
    30   13   12 ar   
    31   49   12 1    
    32   14   13 ar   
    33   16   13 1    
    34   15   14 ar   
    35   50   14 1    
    36   51   15 1    
    37   17   16 1    
    38   21   16 1    
    39   52   16 1    
    40   18   17 1    
    41   27   17 1    
    42   19   18 1    
    43   53   18 1    
    44   54   18 1    
    45   20   19 1    
    46   55   19 1    
    47   56   19 1    
    48   21   20 ar   
    49   25   20 ar   
    50   22   21 ar   
    51   23   22 ar   
    52   57   22 1    
    53   24   23 ar   
    54   58   23 1    
    55   25   24 ar   
    56   26   24 1    
    57   59   25 1    
    58   65   26 1    
    59   28   27 ar   
    60   32   27 ar   
    61   29   28 ar   
    62   60   28 1    
    63   30   29 ar   
    64   61   29 1    
    65   31   30 ar   
    66   62   30 1    
    67   32   31 ar   
    68   63   31 1    
    69   64   32 1    
@<TRIPOS>SUBSTRUCTURE
     1 PTI1547     1 GROUP   
@<TRIPOS>SET

