#    Name: 2zx9_ZX9_1_INTS_M
#    Modification time : Tue Mar 25 11:16:32 2014

@<TRIPOS>MOLECULE
2zx9_ZX9_1_INTS_M
   71     0    12     0     0
SMALL
NO_CHARGES


@<TRIPOS>ATOM
      1 CA         -0.1205   28.9110   30.7825 C.3       4 GLC5        0.0000 
      2 CA         -0.7880   26.9120   31.4170 C.3      12 GLL5        0.0000 
      3 CA          0.5470   30.9100   30.1480 C.3       8 GLP5        0.0000 
      4 CA         -3.1115   29.1020   30.1315 C.3       4 GLC5        0.0000 
      5 CA         -2.8270   26.9350   30.0040 C.3      12 GLL5        0.0000 
      6 CA         -3.3960   31.2690   30.2590 C.3       8 GLP5        0.0000 
      7 CA         -7.3695   24.0015   29.7615 C.3       4 GLC5        0.0000 
      8 CA         -6.5070   25.9090   30.4130 C.3      12 GLL5        0.0000 
      9 CA         -8.2320   22.0940   29.1100 C.3       8 GLP5        0.0000 
     10 O          -1.5680   28.1495   27.6730 O.2       1 ALC1        0.0000 
     11 O          -1.8200   26.5850   27.8730 O.2       9 ALL1        0.0000 
     12 O          -1.3160   29.7140   27.4730 O.2       5 ALP1        0.0000 
     13 CA         -1.6920   23.8150   26.6230 C.3       4 GLC5        0.0000 
     14 CA         -1.1450   25.8900   26.7740 C.3      12 GLL5        0.0000 
     15 CA         -2.2390   21.7400   26.4720 C.3       8 GLP5        0.0000 
     16 CA         -2.3640   28.6945   25.3445 C.3       4 GLC5        0.0000 
     17 CA         -1.0710   26.9010   25.6320 C.3      12 GLL5        0.0000 
     18 CA         -3.6570   30.4880   25.0570 C.3       8 GLP5        0.0000 
     19 OD1         0.8225   26.0325   25.4095 O.co2     3 ASC3        0.0000 
     20 OD1         0.3310   27.3050   25.4450 O.co2    11 ASL3        0.0000 
     21 OD1         1.3140   24.7600   25.3740 O.co2     7 ASP3        0.0000 
     22 OD1        -0.4925   28.5095   26.4590 O.co2     3 ASC3        0.0000 
     23 OD1        -1.3160   29.7140   27.4730 O.co2     7 ASP3        0.0000 
     24 OD1         0.3870   28.0240   26.9245 O.co2     3 ASC3        0.0000 
     25 OD1         0.4430   28.7430   28.4040 O.co2     7 ASP3        0.0000 
     26 CA          0.0975   30.1660   24.3840 C.3       4 GLC5        0.0000 
     27 CA          0.3860   28.3770   24.4390 C.3      12 GLL5        0.0000 
     28 CA         -0.1910   31.9550   24.3290 C.3       8 GLP5        0.0000 
     29 CA          3.7335   29.0870   24.2155 C.3       4 GLC5        0.0000 
     30 CA          1.8290   28.8570   24.2830 C.3      12 GLL5        0.0000 
     31 CA          5.6380   29.3170   24.1480 C.3       8 GLP5        0.0000 
     32 CA          1.8530   28.5790   22.1660 C.3       4 GLC5        0.0000 
     33 CA          1.8770   28.3010   20.0490 C.3       8 GLP5        0.0000 
     34 CA          2.0350   30.4525   24.1400 C.3       4 GLC5        0.0000 
     35 CA          2.2410   32.0480   23.9970 C.3       8 GLP5        0.0000 
     36 CA          0.8460   28.1000   21.5740 C.3       4 GLC5        0.0000 
     37 CA         -0.1850   27.8990   23.0990 C.3      12 GLL5        0.0000 
     38 CA         -0.2780   29.8140   23.0185 C.3       4 GLC5        0.0000 
     39 CA         -0.3710   31.7290   22.9380 C.3       8 GLP5        0.0000 
     40 N           0.2035   26.1260   21.5500 N.am      2 SEC2        0.0000 
     41 N           0.6130   26.8290   22.5830 N.am     10 SEL2        0.0000 
     42 N          -0.2060   25.4230   20.5170 N.am      6 SEP2        0.0000 
     43 O           1.5680   27.4570   21.9175 O.2       1 ALC1        0.0000 
     44 O           0.6130   26.8290   22.5830 O.2       9 ALL1        0.0000 
     45 O           2.5230   28.0850   21.2520 O.2       5 ALP1        0.0000 
     46 CA         -2.9420   28.7830   23.5475 C.3       4 GLC5        0.0000 
     47 CA         -1.6210   27.4020   23.2690 C.3      12 GLL5        0.0000 
     48 CA         -4.2630   30.1640   23.8260 C.3       8 GLP5        0.0000 
     49 CA         -3.5155   27.1610   22.3010 C.3       4 GLC5        0.0000 
     50 CA         -5.4100   26.9200   21.3330 C.3       8 GLP5        0.0000 
     51 N          -3.5665   26.5140   22.2125 N.am      2 SEC2        0.0000 
     52 N          -2.1020   26.8640   22.0360 N.am     10 SEL2        0.0000 
     53 N          -5.0310   26.1640   22.3890 N.am      6 SEP2        0.0000 
     54 O          -2.1830   28.0740   21.4870 O.2       1 ALC1        0.0000 
     55 O          -2.1020   26.8640   22.0360 O.2       9 ALL1        0.0000 
     56 O          -2.2640   29.2840   20.9380 O.2       5 ALP1        0.0000 
     57 CA         -2.5965   24.7825   23.1240 C.3       4 GLC5        0.0000 
     58 CA         -1.6280   26.3060   24.3340 C.3      12 GLL5        0.0000 
     59 CA         -3.5650   23.2590   21.9140 C.3       8 GLP5        0.0000 
     60 N          -3.9990   25.9995   23.4535 N.am      2 SEC2        0.0000 
     61 N          -2.9670   25.8350   24.5180 N.am     10 SEL2        0.0000 
     62 N          -2.8195   24.6930   23.7150 N.am      2 SEC2        0.0000 
     63 N          -2.6720   23.5510   22.9120 N.am      6 SEP2        0.0000 
     64 CA         -2.1508   28.1601   34.0100 C.3       4 GLC5        0.0000 
     65 CA         -2.1790   26.1370   33.6820 C.3      12 GLL5        0.0000 
     66 CA         -2.1190   30.0300   34.9180 C.3       8 GLP5        0.0000 
     67 CA         -5.8662   29.3455   29.6900 C.3       4 GLC5        0.0000 
     68 CA         -5.2810   27.9160   29.9550 C.3      12 GLL5        0.0000 
     69 CA         -5.8190   31.1510   29.6360 C.3       8 GLP5        0.0000 
     70 CA         -7.8771   27.6818   30.1887 C.3       4 GLC5        0.0000 
     71 CA         -9.5440   28.6390   30.2990 C.3       8 GLP5        0.0000 
@<TRIPOS>BOND
@<TRIPOS>SUBSTRUCTURE
     1 ALC1       10 GROUP        1 X    ALC  0     ROOT ALC X 1
     2 SEC2       40 GROUP        1 X    SEC  0     **** SEC X 2
     3 ASC3       19 GROUP        1 X    ASC  0     **** ASC X 3
     4 GLC5        1 GROUP        1 X    GLC  0     **** GLC X 6
     5 ALP1       12 GROUP        1 Y    ALP  0     ROOT ALP Y 8
     6 SEP2       42 GROUP        1 Y    SEP  0     **** SEP Y 9
     7 ASP3       21 GROUP        1 Y    ASP  0     **** ASP Y 10
     8 GLP5        3 GROUP        1 Y    GLP  0     **** GLP Y 13
     9 ALL1       11 GROUP        1 Z    ALL  0     ROOT ALL Z 15
    10 SEL2       41 GROUP        1 Z    SEL  0     **** SEL Z 16
    11 ASL3       20 GROUP        1 Z    ASL  0     **** ASL Z 17
    12 GLL5        2 GROUP        1 Z    GLL  0     **** GLL Z 20
@<TRIPOS>SET

