#    Name: 2zx9_ZX9_1_ligand
#    Modification time : Tue Mar 25 11:16:32 2014

@<TRIPOS>MOLECULE
2zx9_ZX9_1_ligand
   55    57     1     0     0
SMALL
NO_CHARGES


@<TRIPOS>ATOM
      1 CAI        -0.7880   26.9120   31.4170 C.ar      1 ZX9901      0.0000 
      2 CAG        -0.0850   26.6860   32.5930 C.ar      1 ZX9901      0.0000 
      3 CAF        -0.7970   26.2960   33.7240 C.ar      1 ZX9901      0.0000 
      4 CAH        -2.1790   26.1370   33.6820 C.ar      1 ZX9901      0.0000 
      5 CAJ        -2.8770   26.3640   32.5010 C.ar      1 ZX9901      0.0000 
      6 CAS        -2.1680   26.7500   31.3690 C.ar      1 ZX9901      0.0000 
      7 CAZ        -2.8270   26.9350   30.0040 C.3       1 ZX9901      0.0000 
      8 CAX        -4.3360   26.7210   29.8560 C.3       1 ZX9901      0.0000 
      9 CAM        -5.2810   27.9160   29.9550 C.3       1 ZX9901      0.0000 
     10 CAK        -6.5460   27.1640   29.5330 C.3       1 ZX9901      0.0000 
     11 CAL        -6.5070   25.9090   30.4130 C.3       1 ZX9901      0.0000 
     12 CAN        -5.0230   25.6560   30.7130 C.3       1 ZX9901      0.0000 
     13 CAR        -2.1160   26.0010   29.0270 C.2       1 ZX9901      0.0000 
     14 OAB        -1.8340   24.8440   29.3400 O.2       1 ZX9901      0.0000 
     15 NAP        -1.8200   26.5850   27.8730 N.am      1 ZX9901      0.0000 
     16 CAO        -1.1450   25.8900   26.7740 C.3       1 ZX9901      0.0000 
     17 CAY        -1.0710   26.9010   25.6320 C.3       1 ZX9901      0.0000 
     18 NAQ         0.3310   27.3050   25.4450 N.4       1 ZX9901      0.0000 
     19 CAT         0.3860   28.3770   24.4390 C.3       1 ZX9901      0.0000 
     20 CAA         1.8290   28.8570   24.2830 C.3       1 ZX9901      0.0000 
     21 CAU        -0.1850   27.8990   23.0990 C.3       1 ZX9901      0.0000 
     22 OAC         0.6130   26.8290   22.5830 O.3       1 ZX9901      0.0000 
     23 CAV        -1.6210   27.4020   23.2690 C.3       1 ZX9901      0.0000 
     24 OAD        -2.1020   26.8640   22.0360 O.3       1 ZX9901      0.0000 
     25 CAW        -1.6280   26.3060   24.3340 C.3       1 ZX9901      0.0000 
     26 OAE        -2.9670   25.8350   24.5180 O.3       1 ZX9901      0.0000 
     27 H          -0.2790   27.2047   30.5652 H         1 ZX9901      0.0000 
     28 H           0.9245   26.8020   32.6289 H         1 ZX9901      0.0000 
     29 H          -0.2906   26.1217   34.6096 H         1 ZX9901      0.0000 
     30 H          -2.6873   25.8494   34.5312 H         1 ZX9901      0.0000 
     31 H          -3.8895   26.2495   32.4659 H         1 ZX9901      0.0000 
     32 H          -2.5884   27.9591   29.6456 H         1 ZX9901      0.0000 
     33 H          -4.5173   26.3347   28.7732 H         1 ZX9901      0.0000 
     34 H          -5.0366   28.6227   29.2426 H         1 ZX9901      0.0000 
     35 H          -5.3645   28.2230   30.9375 H         1 ZX9901      0.0000 
     36 H          -6.4776   26.8892   28.5159 H         1 ZX9901      0.0000 
     37 H          -7.4001   27.7385   29.7679 H         1 ZX9901      0.0000 
     38 H          -6.9094   25.0807   29.8749 H         1 ZX9901      0.0000 
     39 H          -7.0298   26.0932   31.3242 H         1 ZX9901      0.0000 
     40 H          -4.8305   25.8359   31.7324 H         1 ZX9901      0.0000 
     41 H          -4.7513   24.6954   30.3785 H         1 ZX9901      0.0000 
     42 H          -2.0567   27.5905   27.6824 H         1 ZX9901      0.0000 
     43 H          -1.7120   25.0382   26.4448 H         1 ZX9901      0.0000 
     44 H          -0.1454   25.6053   27.0483 H         1 ZX9901      0.0000 
     45 H          -1.6678   27.7597   25.8995 H         1 ZX9901      0.0000 
     46 H          -0.2107   29.2226   24.7765 H         1 ZX9901      0.0000 
     47 H          -0.1978   28.7353   22.4185 H         1 ZX9901      0.0000 
     48 H          -2.2230   28.2138   23.6167 H         1 ZX9901      0.0000 
     49 H          -0.9677   25.5249   24.0104 H         1 ZX9901      0.0000 
     50 H           2.1979   29.2101   25.1428 H         1 ZX9901      0.0000 
     51 H           2.4354   28.1199   23.9846 H         1 ZX9901      0.0000 
     52 H           1.9054   29.5908   23.6079 H         1 ZX9901      0.0000 
     53 H           1.4344   27.2700   22.2213 H         1 ZX9901      0.0000 
     54 H          -2.2647   27.6597   21.4525 H         1 ZX9901      0.0000 
     55 H          -3.1177   25.8634   25.5062 H         1 ZX9901      0.0000 
@<TRIPOS>BOND
     1    2    1 ar   
     2    6    1 ar   
     3   27    1 1    
     4    3    2 ar   
     5   28    2 1    
     6    4    3 ar   
     7   29    3 1    
     8    5    4 ar   
     9   30    4 1    
    10    6    5 ar   
    11   31    5 1    
    12    7    6 1    
    13    8    7 1    
    14   13    7 1    
    15   32    7 1    
    16    9    8 1    
    17   12    8 1    
    18   33    8 1    
    19   10    9 1    
    20   34    9 1    
    21   35    9 1    
    22   11   10 1    
    23   36   10 1    
    24   37   10 1    
    25   12   11 1    
    26   38   11 1    
    27   39   11 1    
    28   40   12 1    
    29   41   12 1    
    30   14   13 2    
    31   15   13 am   
    32   16   15 1    
    33   42   15 1    
    34   17   16 1    
    35   43   16 1    
    36   44   16 1    
    37   18   17 1    
    38   25   17 1    
    39   45   17 1    
    40   19   18 1    
    41   20   19 1    
    42   21   19 1    
    43   46   19 1    
    44   50   20 1    
    45   51   20 1    
    46   52   20 1    
    47   22   21 1    
    48   23   21 1    
    49   47   21 1    
    50   53   22 1    
    51   24   23 1    
    52   25   23 1    
    53   48   23 1    
    54   54   24 1    
    55   26   25 1    
    56   49   25 1    
    57   55   26 1    
@<TRIPOS>SUBSTRUCTURE
     1 ZX9901      1 GROUP   
@<TRIPOS>SET

