#    Name: 3htx_SAH_2_INTS_M
#    Modification time : Tue Mar 25 14:57:23 2014

@<TRIPOS>MOLECULE
3htx_SAH_2_INTS_M
   56     0     9     0     0
SMALL
NO_CHARGES


@<TRIPOS>ATOM
      1 O         -95.1285   16.3760   15.2390 O.2       1 ALC1        0.0000 
      2 O         -94.1870   15.7950   15.9470 O.2       7 ALL1        0.0000 
      3 O         -96.0700   16.9570   14.5310 O.2       4 ALP1        0.0000 
      4 O         -94.4390   14.5645   15.3535 O.2       1 ALC1        0.0000 
      5 O         -94.6910   13.3340   14.7600 O.2       4 ALP1        0.0000 
      6 CA        -94.8530   18.7780   14.9815 C.3       3 GLC5        0.0000 
      7 CA        -93.0850   17.8130   15.0250 C.3       9 GLL5        0.0000 
      8 CA        -96.6210   19.7430   14.9380 C.3       6 GLP5        0.0000 
      9 CA        -94.2120   16.9575   13.2985 C.3       3 GLC5        0.0000 
     10 CA        -95.3390   16.1020   11.5720 C.3       6 GLP5        0.0000 
     11 CA        -93.5250   20.3825   10.3085 C.3       3 GLC5        0.0000 
     12 CA        -92.4510   18.7900   11.4780 C.3       9 GLL5        0.0000 
     13 CA        -94.5990   21.9750    9.1390 C.3       6 GLP5        0.0000 
     14 CA        -91.7560   15.8745   11.1060 C.3       3 GLC5        0.0000 
     15 CA        -91.3640   17.9400   10.8610 C.3       9 GLL5        0.0000 
     16 CA        -92.1480   13.8090   11.3510 C.3       6 GLP5        0.0000 
     17 O         -88.3155   16.8955   10.0730 O.2       1 ALC1        0.0000 
     18 O         -88.9440   18.0660   11.0370 O.2       7 ALL1        0.0000 
     19 O         -87.6870   15.7250    9.1090 O.2       4 ALP1        0.0000 
     20 O         -89.0265   16.5010   10.7980 O.2       1 ALC1        0.0000 
     21 O         -89.1090   14.9360   10.5590 O.2       4 ALP1        0.0000 
     22 CA        -87.8560   18.2705    8.8730 C.3       3 GLC5        0.0000 
     23 CA        -90.0620   18.5500    8.9070 C.3       9 GLL5        0.0000 
     24 CA        -85.6500   17.9910    8.8390 C.3       6 GLP5        0.0000 
     25 O         -88.2325   17.0610    8.7175 O.2       1 ALC1        0.0000 
     26 O         -88.7780   18.3970    8.3260 O.2       7 ALL1        0.0000 
     27 CA        -93.0980   16.8240    8.8940 C.3       3 GLC5        0.0000 
     28 CA        -90.9530   17.3470    8.6530 C.3       9 GLL5        0.0000 
     29 CA        -95.2430   16.3010    9.1350 C.3       6 GLP5        0.0000 
     30 CA        -94.7335   16.6825    5.6120 C.3       3 GLC5        0.0000 
     31 CA        -92.4910   16.6910    5.4430 C.3       9 GLL5        0.0000 
     32 CA        -96.9760   16.6740    5.7810 C.3       6 GLP5        0.0000 
     33 CA        -92.0395   13.9540    3.5710 C.3       3 GLC5        0.0000 
     34 CA        -92.7570   15.6980    4.4440 C.3       9 GLL5        0.0000 
     35 CA        -91.3220   12.2100    2.6980 C.3       6 GLP5        0.0000 
     36 O         -93.1580   14.6680    2.2750 O.2       1 ALC1        0.0000 
     37 O         -93.4300   15.9510    3.3090 O.2       7 ALL1        0.0000 
     38 O         -92.8860   13.3850    1.2410 O.2       4 ALP1        0.0000 
     39 N         -92.7465   13.1155    4.4105 N.am      2 SEC2        0.0000 
     40 N         -92.2710   14.4180    4.6570 N.am      8 SEL2        0.0000 
     41 N         -93.2220   11.8130    4.1640 N.am      5 SEP2        0.0000 
     42 CA        -89.9285   13.4470    7.0110 C.3       3 GLC5        0.0000 
     43 CA        -91.5820   14.1490    5.8090 C.3       9 GLL5        0.0000 
     44 CA        -88.2750   12.7450    8.2130 C.3       6 GLP5        0.0000 
     45 CA        -90.1385   15.0975    5.3415 C.3       3 GLC5        0.0000 
     46 CA        -88.6950   16.0460    4.8740 C.3       6 GLP5        0.0000 
     47 CA        -91.4520   13.1795    4.2535 C.3       3 GLC5        0.0000 
     48 CA        -93.3300   13.5995    5.8825 C.3       3 GLC5        0.0000 
     49 CA        -95.0780   13.0500    5.9560 C.3       6 GLP5        0.0000 
     50 CA        -93.5090   16.2775    7.8540 C.3       3 GLC5        0.0000 
     51 CA        -91.7750   16.2540    6.5730 C.3       9 GLL5        0.0000 
     52 CA        -93.6232   17.2335   11.3707 C.3       3 GLC5        0.0000 
     53 CA        -89.4057   17.6647    7.1270 C.3       3 GLC5        0.0000 
     54 CA        -88.3040   17.3810    5.4740 C.3       6 GLP5        0.0000 
     55 CA        -93.8510   14.6223    5.4497 C.3       3 GLC5        0.0000 
     56 CA        -90.4472   16.1351    5.3161 C.3       3 GLC5        0.0000 
@<TRIPOS>BOND
@<TRIPOS>SUBSTRUCTURE
     1 ALC1        1 GROUP        1 X    ALC  0     ROOT ALC X 1
     2 SEC2       39 GROUP        1 X    SEC  0     **** SEC X 2
     3 GLC5        6 GROUP        1 X    GLC  0     **** GLC X 6
     4 ALP1        3 GROUP        1 Y    ALP  0     ROOT ALP Y 8
     5 SEP2       41 GROUP        1 Y    SEP  0     **** SEP Y 9
     6 GLP5        8 GROUP        1 Y    GLP  0     **** GLP Y 13
     7 ALL1        2 GROUP        1 Z    ALL  0     ROOT ALL Z 15
     8 SEL2       40 GROUP        1 Z    SEL  0     **** SEL Z 16
     9 GLL5        7 GROUP        1 Z    GLL  0     **** GLL Z 20
@<TRIPOS>SET

