#    Name: 3htx_SAH_2_ligand
#    Modification time : Tue Mar 25 14:57:23 2014

@<TRIPOS>MOLECULE
3htx_SAH_2_ligand
   46    48     1     0     0
SMALL
NO_CHARGES


@<TRIPOS>ATOM
      1 N         -94.1870   15.7950   15.9470 N.4       1 SAH951      0.0000 
      2 CA        -92.9260   16.5810   15.9290 C.3       1 SAH951      0.0000 
      3 CB        -93.0850   17.8130   15.0250 C.3       1 SAH951      0.0000 
      4 CG        -91.8820   18.0670   14.1230 C.3       1 SAH951      0.0000 
      5 SD        -92.0550   19.5210   13.0660 S.3       1 SAH951      0.0000 
      6 C         -92.5420   17.0220   17.3650 C.2       1 SAH951      0.0000 
      7 O         -91.3700   16.7410   17.7650 O.co2     1 SAH951      0.0000 
      8 OXT       -93.4080   17.6490   18.0720 O.co2     1 SAH951      0.0000 
      9 C5'       -92.4510   18.7900   11.4780 C.3       1 SAH951      0.0000 
     10 C4'       -91.3640   17.9400   10.8610 C.3       1 SAH951      0.0000 
     11 O4'       -91.9340   17.4560    9.6260 O.3       1 SAH951      0.0000 
     12 C3'       -90.0850   18.6740   10.4310 C.3       1 SAH951      0.0000 
     13 O3'       -88.9440   18.0660   11.0370 O.3       1 SAH951      0.0000 
     14 C2'       -90.0620   18.5500    8.9070 C.3       1 SAH951      0.0000 
     15 O2'       -88.7780   18.3970    8.3260 O.3       1 SAH951      0.0000 
     16 C1'       -90.9530   17.3470    8.6530 C.3       1 SAH951      0.0000 
     17 N9        -91.6430   17.3480    7.3700 N.pl3     1 SAH951      0.0000 
     18 C8        -92.2970   18.3890    6.7130 C.2       1 SAH951      0.0000 
     19 N7        -92.8230   18.0410    5.5580 N.2       1 SAH951      0.0000 
     20 C5        -92.4910   16.6910    5.4430 C.ar      1 SAH951      0.0000 
     21 C6        -92.7570   15.6980    4.4440 C.ar      1 SAH951      0.0000 
     22 N6        -93.4300   15.9510    3.3090 N.pl3     1 SAH951      0.0000 
     23 N1        -92.2710   14.4180    4.6570 N.ar      1 SAH951      0.0000 
     24 C2        -91.5820   14.1490    5.8090 C.ar      1 SAH951      0.0000 
     25 N3        -91.2780   14.9970    6.8150 N.ar      1 SAH951      0.0000 
     26 C4        -91.7750   16.2540    6.5730 C.ar      1 SAH951      0.0000 
     27 H         -92.1204   15.9772   15.5399 H         1 SAH951      0.0000 
     28 H         -93.2543   18.6962   15.6585 H         1 SAH951      0.0000 
     29 H         -93.9819   17.6804   14.4021 H         1 SAH951      0.0000 
     30 H         -91.7104   17.2786   13.4066 H         1 SAH951      0.0000 
     31 H         -90.9765   18.2832   14.6684 H         1 SAH951      0.0000 
     32 H         -92.7092   19.6615   10.8771 H         1 SAH951      0.0000 
     33 H         -93.3610   18.2325   11.6975 H         1 SAH951      0.0000 
     34 H         -91.1206   17.1245   11.4870 H         1 SAH951      0.0000 
     35 H         -90.2019   19.7019   10.6831 H         1 SAH951      0.0000 
     36 H         -90.6032   19.4142    8.5167 H         1 SAH951      0.0000 
     37 H         -90.3793   16.4595    8.7907 H         1 SAH951      0.0000 
     38 H         -92.3402   19.3023    7.1161 H         1 SAH951      0.0000 
     39 H         -93.7601   16.8877    3.1927 H         1 SAH951      0.0000 
     40 H         -93.5407   15.1799    2.6819 H         1 SAH951      0.0000 
     41 H         -91.2374   13.1158    5.9224 H         1 SAH951      0.0000 
     42 H         -94.0485   14.8629   15.6121 H         1 SAH951      0.0000 
     43 H         -94.5659   15.7217   16.8696 H         1 SAH951      0.0000 
     44 H         -94.8921   16.2110   15.3727 H         1 SAH951      0.0000 
     45 H         -89.0571   17.0856   10.8758 H         1 SAH951      0.0000 
     46 H         -88.4859   17.4758    8.5829 H         1 SAH951      0.0000 
@<TRIPOS>BOND
     1    2    1 1    
     2   42    1 1    
     3   43    1 1    
     4   44    1 1    
     5    3    2 1    
     6    6    2 1    
     7   27    2 1    
     8    4    3 1    
     9   28    3 1    
    10   29    3 1    
    11    5    4 1    
    12   30    4 1    
    13   31    4 1    
    14    9    5 1    
    15    7    6 ar   
    16    8    6 ar   
    17   10    9 1    
    18   32    9 1    
    19   33    9 1    
    20   11   10 1    
    21   12   10 1    
    22   34   10 1    
    23   16   11 1    
    24   13   12 1    
    25   14   12 1    
    26   35   12 1    
    27   45   13 1    
    28   15   14 1    
    29   16   14 1    
    30   36   14 1    
    31   46   15 1    
    32   17   16 1    
    33   37   16 1    
    34   18   17 1    
    35   26   17 1    
    36   19   18 2    
    37   38   18 1    
    38   20   19 1    
    39   21   20 ar   
    40   26   20 ar   
    41   22   21 1    
    42   23   21 ar   
    43   39   22 1    
    44   40   22 1    
    45   24   23 ar   
    46   25   24 ar   
    47   41   24 1    
    48   26   25 ar   
@<TRIPOS>SUBSTRUCTURE
     1 SAH951      1 GROUP   
@<TRIPOS>SET

