#    Name: 2qiq_CYV_1_INTS_M
#    Modification time : Mon Mar 24 22:13:29 2014

@<TRIPOS>MOLECULE
2qiq_CYV_1_INTS_M
   88     0     9     0     0
SMALL
NO_CHARGES


@<TRIPOS>ATOM
      1 O          20.3170  -33.8565   18.4760 O.2       1 ALC1        0.0000 
      2 O          19.0770  -33.9100   19.6380 O.2       7 ALL1        0.0000 
      3 O          21.5570  -33.8030   17.3140 O.2       4 ALP1        0.0000 
      4 CA         16.0505  -34.3105   19.6555 C.3       3 GLC5        0.0000 
      5 CA         18.1370  -35.0250   19.7280 C.3       9 GLL5        0.0000 
      6 CA         13.9640  -33.5960   19.5830 C.3       6 GLP5        0.0000 
      7 CA         17.0030  -33.1970   19.4615 C.3       3 GLC5        0.0000 
      8 CA         15.8690  -31.3690   19.1950 C.3       6 GLP5        0.0000 
      9 CA         16.6210  -36.5320   17.1035 C.3       3 GLC5        0.0000 
     10 CA         17.8800  -35.4860   18.2910 C.3       9 GLL5        0.0000 
     11 CA         15.3620  -37.5780   15.9160 C.3       6 GLP5        0.0000 
     12 CA         16.2340  -34.8990   17.4180 C.3       3 GLC5        0.0000 
     13 CA         14.5880  -34.3120   16.5450 C.3       6 GLP5        0.0000 
     14 CA         18.0905  -35.0775   16.4930 C.3       3 GLC5        0.0000 
     15 CA         18.3010  -34.6690   14.6950 C.3       6 GLP5        0.0000 
     16 N          18.7055  -36.5390   16.2515 N.am      2 SEC2        0.0000 
     17 N          19.0710  -36.0030   17.6730 N.am      8 SEL2        0.0000 
     18 N          18.3400  -37.0750   14.8300 N.am      5 SEP2        0.0000 
     19 O          16.3730  -36.2700   21.1240 O.2       1 ALC1        0.0000 
     20 O          17.7910  -36.7150   21.3880 O.2       7 ALL1        0.0000 
     21 O          14.9550  -35.8250   20.8600 O.2       4 ALP1        0.0000 
     22 CA         19.9380  -38.6910   21.3545 C.3       3 GLC5        0.0000 
     23 CA         18.0960  -37.8280   22.2820 C.3       9 GLL5        0.0000 
     24 CA         21.7800  -39.5540   20.4270 C.3       6 GLP5        0.0000 
     25 N          14.7455  -38.5585   21.3970 N.am      2 SEC2        0.0000 
     26 N          16.1320  -39.0630   21.8200 N.am      8 SEL2        0.0000 
     27 N          13.3590  -38.0540   20.9740 N.am      5 SEP2        0.0000 
     28 CA         19.9640  -39.9090   20.8860 C.3       3 GLC5        0.0000 
     29 CA         18.1480  -40.2640   21.3450 C.3       9 GLL5        0.0000 
     30 CA         17.8595  -44.7690   20.6475 C.3       3 GLC5        0.0000 
     31 CA         18.2420  -42.7650   21.0270 C.3       9 GLL5        0.0000 
     32 CA         17.4770  -46.7730   20.2680 C.3       6 GLP5        0.0000 
     33 CA         20.0265  -44.9630   18.2475 C.3       3 GLC5        0.0000 
     34 CA         21.0060  -43.0590   18.3010 C.3       9 GLL5        0.0000 
     35 CA         19.0470  -46.8670   18.1940 C.3       6 GLP5        0.0000 
     36 CA         21.3655  -41.9065   16.8435 C.3       3 GLC5        0.0000 
     37 CA         21.7250  -40.7540   15.3860 C.3       6 GLP5        0.0000 
     38 CA         19.8730  -45.6240   19.3395 C.3       3 GLC5        0.0000 
     39 CA         20.6990  -44.3810   20.4850 C.3       9 GLL5        0.0000 
     40 CA         22.0730  -46.0275   20.0400 C.3       3 GLC5        0.0000 
     41 CA         23.4470  -47.6740   19.5950 C.3       6 GLP5        0.0000 
     42 CA         22.6725  -44.0515   21.1215 C.3       3 GLC5        0.0000 
     43 CA         24.6460  -43.7220   21.7580 C.3       6 GLP5        0.0000 
     44 O          14.8335  -42.4565   21.1780 O.2       1 ALC1        0.0000 
     45 O          15.3830  -42.2300   22.6310 O.2       7 ALL1        0.0000 
     46 O          14.2840  -42.6830   19.7250 O.2       4 ALP1        0.0000 
     47 CA         18.2040  -48.3070   25.3845 C.3       3 GLC5        0.0000 
     48 CA         17.1900  -46.8370   26.3780 C.3       9 GLL5        0.0000 
     49 CA         19.2180  -49.7770   24.3910 C.3       6 GLP5        0.0000 
     50 CA         14.3585  -46.5435   27.8970 C.3       3 GLC5        0.0000 
     51 CA         16.3140  -46.9610   27.6120 C.3       9 GLL5        0.0000 
     52 CA         12.4030  -46.1260   28.1820 C.3       6 GLP5        0.0000 
     53 N          12.5805  -46.1375   24.4780 N.am      2 SEC2        0.0000 
     54 N          14.1970  -46.4520   25.0390 N.am      8 SEL2        0.0000 
     55 N          10.9640  -45.8230   23.9170 N.am      5 SEP2        0.0000 
     56 CA         13.3350  -43.0400   22.8990 C.3       3 GLC5        0.0000 
     57 CA         13.4090  -41.5740   23.7740 C.3       9 GLL5        0.0000 
     58 CA         13.2610  -44.5060   22.0240 C.3       6 GLP5        0.0000 
     59 CA         11.5170  -41.9820   22.7845 C.3       3 GLC5        0.0000 
     60 CA          9.6250  -42.3900   21.7950 C.3       6 GLP5        0.0000 
     61 CA         13.4950  -40.8030   21.7160 C.3       3 GLC5        0.0000 
     62 CA         13.5810  -40.0320   19.6580 C.3       6 GLP5        0.0000 
     63 CA         12.9830  -38.4525   23.7700 C.3       3 GLC5        0.0000 
     64 CA         13.2750  -40.2770   24.7040 C.3       9 GLL5        0.0000 
     65 CA         12.6910  -36.6280   22.8360 C.3       6 GLP5        0.0000 
     66 CA         12.7345  -37.7470   24.7200 C.3       3 GLC5        0.0000 
     67 CA         12.7780  -38.8660   26.6040 C.3       9 GLL5        0.0000 
     68 O          11.3195  -37.3140   25.3265 O.2       1 ALC1        0.0000 
     69 O          11.8830  -38.5380   25.5150 O.2       7 ALL1        0.0000 
     70 O          10.7560  -36.0900   25.1380 O.2       4 ALP1        0.0000 
     71 N          10.6975  -40.2745   22.7175 N.am      2 SEC2        0.0000 
     72 N          11.3090  -39.4520   23.6110 N.am      8 SEL2        0.0000 
     73 N          10.0860  -41.0970   21.8240 N.am      5 SEP2        0.0000 
     74 CA         16.2197  -40.2275   20.0455 C.3       3 GLC5        0.0000 
     75 CA         17.3370  -41.5680   21.3190 C.3       9 GLL5        0.0000 
     76 CA         14.6970  -39.5390   18.7590 C.3       6 GLP5        0.0000 
     77 CA         18.7580  -44.6928   19.3395 C.3       3 GLC5        0.0000 
     78 CA         19.0970  -42.5740   19.7880 C.3       9 GLL5        0.0000 
     79 CA         17.8630  -46.4450   19.0120 C.3       6 GLP5        0.0000 
     80 CA         21.0548  -41.2769   19.7055 C.3       3 GLC5        0.0000 
     81 CA         20.2090  -43.3070   19.5460 C.3       9 GLL5        0.0000 
     82 CA         14.1821  -44.2416   23.0493 C.3       3 GLC5        0.0000 
     83 CA         14.6700  -42.4200   23.9000 C.3       9 GLL5        0.0000 
     84 CA         11.4420  -40.1095   27.7620 C.3       3 GLC5        0.0000 
     85 CA         13.2600  -40.3100   26.2340 C.3       9 GLL5        0.0000 
     86 CA          9.8650  -40.6310   29.1050 C.3       6 GLP5        0.0000 
     87 CA         13.0960  -41.0535   27.7940 C.3       3 GLC5        0.0000 
     88 CA         13.1730  -42.5190   29.1690 C.3       6 GLP5        0.0000 
@<TRIPOS>BOND
@<TRIPOS>SUBSTRUCTURE
     1 ALC1        1 GROUP        1 X    ALC  0     ROOT ALC X 1
     2 SEC2       16 GROUP        1 X    SEC  0     **** SEC X 2
     3 GLC5        4 GROUP        1 X    GLC  0     **** GLC X 6
     4 ALP1        3 GROUP        1 Y    ALP  0     ROOT ALP Y 8
     5 SEP2       18 GROUP        1 Y    SEP  0     **** SEP Y 9
     6 GLP5        6 GROUP        1 Y    GLP  0     **** GLP Y 13
     7 ALL1        2 GROUP        1 Z    ALL  0     ROOT ALL Z 15
     8 SEL2       17 GROUP        1 Z    SEL  0     **** SEL Z 16
     9 GLL5        5 GROUP        1 Z    GLL  0     **** GLL Z 20
@<TRIPOS>SET

