#    Name: 2qiq_CYV_1_ligand
#    Modification time : Mon Mar 24 22:13:30 2014

@<TRIPOS>MOLECULE
2qiq_CYV_1_ligand
   99    99     1     0     0
SMALL
NO_CHARGES


@<TRIPOS>ATOM
      1 O43        18.5550  -32.9900   21.6270 O.2       1 CYV302      0.0000 
      2 C42        19.2210  -32.9880   20.5980 C.2       1 CYV302      0.0000 
      3 O44        20.2040  -31.9160   20.3990 O.3       1 CYV302      0.0000 
      4 C46        21.5380  -31.9020   20.9580 C.3       1 CYV302      0.0000 
      5 C49        22.2930  -30.7170   20.3570 C.3       1 CYV302      0.0000 
      6 C48        21.4720  -31.7160   22.4770 C.3       1 CYV302      0.0000 
      7 C47        22.2980  -33.1850   20.6050 C.3       1 CYV302      0.0000 
      8 N41        19.0770  -33.9100   19.6380 N.am      1 CYV302      0.0000 
      9 C39        18.1370  -35.0250   19.7280 C.3       1 CYV302      0.0000 
     10 C40        17.8800  -35.4860   18.2910 C.3       1 CYV302      0.0000 
     11 O45        19.0710  -36.0030   17.6730 O.3       1 CYV302      0.0000 
     12 C37        18.6780  -36.1640   20.5560 C.2       1 CYV302      0.0000 
     13 O38        19.8470  -36.5310   20.4560 O.2       1 CYV302      0.0000 
     14 N36        17.7910  -36.7150   21.3880 N.am      1 CYV302      0.0000 
     15 C32        18.0960  -37.8280   22.2820 C.3       1 CYV302      0.0000 
     16 C33        17.7140  -37.3400   23.6930 C.3       1 CYV302      0.0000 
     17 C35        17.6110  -38.4600   24.7250 C.3       1 CYV302      0.0000 
     18 C34        18.6990  -36.2860   24.2000 C.3       1 CYV302      0.0000 
     19 C30        17.3540  -39.0570   21.8210 C.2       1 CYV302      0.0000 
     20 O31        16.1320  -39.0630   21.8200 O.2       1 CYV302      0.0000 
     21 C29        18.1480  -40.2640   21.3450 C.3       1 CYV302      0.0000 
     22 C22        17.3370  -41.5680   21.3190 C.3       1 CYV302      0.0000 
     23 C23        18.2420  -42.7650   21.0270 C.3       1 CYV302      0.0000 
     24 C24        19.0970  -42.5740   19.7880 C.2       1 CYV302      0.0000 
     25 C25        20.2090  -43.3070   19.5460 C.2       1 CYV302      0.0000 
     26 C26        21.0060  -43.0590   18.3010 C.3       1 CYV302      0.0000 
     27 C27        20.6990  -44.3810   20.4850 C.3       1 CYV302      0.0000 
     28 C21        16.6400  -41.7690   22.6430 C.2       1 CYV302      0.0000 
     29 O28        17.2210  -41.5070   23.6910 O.2       1 CYV302      0.0000 
     30 N20        15.3830  -42.2300   22.6310 N.am      1 CYV302      0.0000 
     31 C12        14.6700  -42.4200   23.9000 C.3       1 CYV302      0.0000 
     32 C5         14.4150  -43.9070   24.1280 C.3       1 CYV302      0.0000 
     33 C6         15.6640  -44.7910   24.1350 C.3       1 CYV302      0.0000 
     34 C7         15.3520  -46.1180   24.7990 C.2       1 CYV302      0.0000 
     35 O11        16.4340  -47.0280   25.1740 O.3       1 CYV302      0.0000 
     36 C9         17.1900  -46.8370   26.3780 C.3       1 CYV302      0.0000 
     37 C10        16.3140  -46.9610   27.6120 C.3       1 CYV302      0.0000 
     38 O8         14.1970  -46.4520   25.0390 O.2       1 CYV302      0.0000 
     39 C19        13.4090  -41.5740   23.7740 C.3       1 CYV302      0.0000 
     40 C13        13.2750  -40.2770   24.7040 C.3       1 CYV302      0.0000 
     41 C14        13.2600  -40.3100   26.2340 C.3       1 CYV302      0.0000 
     42 C15        12.7780  -38.8660   26.6040 C.3       1 CYV302      0.0000 
     43 N16        11.8830  -38.5380   25.5150 N.am      1 CYV302      0.0000 
     44 C17        12.0490  -39.3830   24.5700 C.2       1 CYV302      0.0000 
     45 O18        11.3090  -39.4520   23.6110 O.2       1 CYV302      0.0000 
     46 H          19.6459  -33.8741   18.7553 H         1 CYV302      0.0000 
     47 H          17.1994  -34.6902   20.1341 H         1 CYV302      0.0000 
     48 H          17.4786  -34.6244   17.7305 H         1 CYV302      0.0000 
     49 H          17.0812  -36.2468   18.3220 H         1 CYV302      0.0000 
     50 H          16.7984  -36.3615   21.4401 H         1 CYV302      0.0000 
     51 H          19.1586  -38.0097   22.2690 H         1 CYV302      0.0000 
     52 H          16.7293  -36.8535   23.6275 H         1 CYV302      0.0000 
     53 H          19.0212  -40.4055   22.0013 H         1 CYV302      0.0000 
     54 H          18.5327  -40.0684   20.3316 H         1 CYV302      0.0000 
     55 H          16.5963  -41.4961   20.5385 H         1 CYV302      0.0000 
     56 H          17.6169  -43.6605   20.9022 H         1 CYV302      0.0000 
     57 H          18.8940  -42.9371   21.8951 H         1 CYV302      0.0000 
     58 H          18.7597  -41.8370   19.1433 H         1 CYV302      0.0000 
     59 H          14.8734  -42.4645   21.7764 H         1 CYV302      0.0000 
     60 H          15.2694  -42.0254   24.7012 H         1 CYV302      0.0000 
     61 H          13.7238  -44.2759   23.3442 H         1 CYV302      0.0000 
     62 H          13.8842  -44.0353   25.0924 H         1 CYV302      0.0000 
     63 H          16.4542  -44.2856   24.6817 H         1 CYV302      0.0000 
     64 H          15.9851  -44.9608   23.1119 H         1 CYV302      0.0000 
     65 H          17.6654  -45.8411   26.3983 H         1 CYV302      0.0000 
     66 H          18.0022  -47.5796   26.4626 H         1 CYV302      0.0000 
     67 H          12.5126  -42.2049   23.9745 H         1 CYV302      0.0000 
     68 H          13.2947  -41.2257   22.7217 H         1 CYV302      0.0000 
     69 H          14.1339  -39.5678   24.4557 H         1 CYV302      0.0000 
     70 H          14.2329  -40.4505   26.6070 H         1 CYV302      0.0000 
     71 H          12.5502  -41.0049   26.5785 H         1 CYV302      0.0000 
     72 H          13.6345  -38.2379   26.6301 H         1 CYV302      0.0000 
     73 H          12.2770  -38.9239   27.5392 H         1 CYV302      0.0000 
     74 H          11.2882  -37.7777   25.5846 H         1 CYV302      0.0000 
     75 H          23.2259  -30.6527   20.7113 H         1 CYV302      0.0000 
     76 H          22.3616  -30.7865   19.3618 H         1 CYV302      0.0000 
     77 H          21.8419  -29.8478   20.5597 H         1 CYV302      0.0000 
     78 H          22.3828  -31.7036   22.8896 H         1 CYV302      0.0000 
     79 H          21.0253  -30.8569   22.7269 H         1 CYV302      0.0000 
     80 H          20.9598  -32.4522   22.9194 H         1 CYV302      0.0000 
     81 H          23.2219  -33.1866   20.9877 H         1 CYV302      0.0000 
     82 H          21.8345  -33.9993   20.9545 H         1 CYV302      0.0000 
     83 H          22.3902  -33.3019   19.6161 H         1 CYV302      0.0000 
     84 H          18.4760  -38.9511   24.8277 H         1 CYV302      0.0000 
     85 H          17.3632  -38.1107   25.6287 H         1 CYV302      0.0000 
     86 H          16.9186  -39.1357   24.4719 H         1 CYV302      0.0000 
     87 H          19.6312  -36.6440   24.2534 H         1 CYV302      0.0000 
     88 H          18.7265  -35.4851   23.6018 H         1 CYV302      0.0000 
     89 H          18.4571  -35.9609   25.1142 H         1 CYV302      0.0000 
     90 H          21.3520  -42.1216   18.2621 H         1 CYV302      0.0000 
     91 H          21.7980  -43.6665   18.2398 H         1 CYV302      0.0000 
     92 H          20.4605  -43.2046   17.4756 H         1 CYV302      0.0000 
     93 H          21.5339  -44.8162   20.1481 H         1 CYV302      0.0000 
     94 H          20.9049  -44.0152   21.3926 H         1 CYV302      0.0000 
     95 H          20.0201  -45.1049   20.6078 H         1 CYV302      0.0000 
     96 H          16.8365  -46.8245   28.4536 H         1 CYV302      0.0000 
     97 H          15.5757  -46.2865   27.6127 H         1 CYV302      0.0000 
     98 H          15.8870  -47.8630   27.6752 H         1 CYV302      0.0000 
     99 H          19.6509  -36.2956   18.4334 H         1 CYV302      0.0000 
@<TRIPOS>BOND
     1    2    1 2    
     2    3    2 1    
     3    8    2 am   
     4    4    3 1    
     5    5    4 1    
     6    6    4 1    
     7    7    4 1    
     8   75    5 1    
     9   76    5 1    
    10   77    5 1    
    11   78    6 1    
    12   79    6 1    
    13   80    6 1    
    14   81    7 1    
    15   82    7 1    
    16   83    7 1    
    17    9    8 1    
    18   46    8 1    
    19   10    9 1    
    20   12    9 1    
    21   47    9 1    
    22   11   10 1    
    23   48   10 1    
    24   49   10 1    
    25   99   11 1    
    26   13   12 2    
    27   14   12 am   
    28   15   14 1    
    29   50   14 1    
    30   16   15 1    
    31   19   15 1    
    32   51   15 1    
    33   17   16 1    
    34   18   16 1    
    35   52   16 1    
    36   84   17 1    
    37   85   17 1    
    38   86   17 1    
    39   87   18 1    
    40   88   18 1    
    41   89   18 1    
    42   20   19 2    
    43   21   19 1    
    44   22   21 1    
    45   53   21 1    
    46   54   21 1    
    47   23   22 1    
    48   28   22 1    
    49   55   22 1    
    50   24   23 1    
    51   56   23 1    
    52   57   23 1    
    53   25   24 2    
    54   58   24 1    
    55   26   25 1    
    56   27   25 1    
    57   90   26 1    
    58   91   26 1    
    59   92   26 1    
    60   93   27 1    
    61   94   27 1    
    62   95   27 1    
    63   29   28 2    
    64   30   28 am   
    65   31   30 1    
    66   59   30 1    
    67   32   31 1    
    68   39   31 1    
    69   60   31 1    
    70   33   32 1    
    71   61   32 1    
    72   62   32 1    
    73   34   33 1    
    74   63   33 1    
    75   64   33 1    
    76   35   34 1    
    77   38   34 2    
    78   36   35 1    
    79   37   36 1    
    80   65   36 1    
    81   66   36 1    
    82   96   37 1    
    83   97   37 1    
    84   98   37 1    
    85   40   39 1    
    86   67   39 1    
    87   68   39 1    
    88   41   40 1    
    89   44   40 1    
    90   69   40 1    
    91   42   41 1    
    92   70   41 1    
    93   71   41 1    
    94   43   42 1    
    95   72   42 1    
    96   73   42 1    
    97   44   43 am   
    98   74   43 1    
    99   45   44 2    
@<TRIPOS>SUBSTRUCTURE
     1 CYV302      1 GROUP   
@<TRIPOS>SET

