#    Name: 2vww_7X2_1_INTS_M
#    Modification time : Tue Mar 25 03:12:19 2014

@<TRIPOS>MOLECULE
2vww_7X2_1_INTS_M
   81     0     9     0     0
SMALL
NO_CHARGES


@<TRIPOS>ATOM
      1 CA         16.0880   10.5135   12.7595 C.3       3 GLC5        0.0000 
      2 CA         15.6950   11.7760   11.0600 C.3       9 GLL5        0.0000 
      3 CA         16.4810    9.2510   14.4590 C.3       6 GLP5        0.0000 
      4 O          15.3175    7.2210   11.1800 O.2       1 ALC1        0.0000 
      5 O          13.9670    7.1030   11.6000 O.2       7 ALL1        0.0000 
      6 O          16.6680    7.3390   10.7600 O.2       4 ALP1        0.0000 
      7 CA         12.9940    5.3175   13.7055 C.3       3 GLC5        0.0000 
      8 CA         13.3060    5.9200   11.8610 C.3       9 GLL5        0.0000 
      9 CA         12.6820    4.7150   15.5500 C.3       6 GLP5        0.0000 
     10 CA         14.9695    5.2170   10.9475 C.3       3 GLC5        0.0000 
     11 CA         16.6330    4.5140   10.0340 C.3       6 GLP5        0.0000 
     12 CA         12.9400    4.5115   10.4585 C.3       3 GLC5        0.0000 
     13 CA         12.5740    3.1030    9.0560 C.3       6 GLP5        0.0000 
     14 N          15.5410    4.8780   12.3630 N.am      2 SEC2        0.0000 
     15 N          14.0650    4.9040   12.2790 N.am      8 SEL2        0.0000 
     16 N          17.0170    4.8520   12.4470 N.am      5 SEP2        0.0000 
     17 CA         15.3030    3.9900   13.6965 C.3       3 GLC5        0.0000 
     18 CA         13.5580    3.7250   12.5960 C.3       9 GLL5        0.0000 
     19 CA         17.0480    4.2550   14.7970 C.3       6 GLP5        0.0000 
     20 CA         15.0090    3.3485   11.4025 C.3       3 GLC5        0.0000 
     21 CA         16.4600    2.9720   10.2090 C.3       6 GLP5        0.0000 
     22 CA         10.0810    5.9560   13.1560 C.3       3 GLC5        0.0000 
     23 CA         11.4000    4.6260   12.0030 C.3       9 GLL5        0.0000 
     24 CA          8.7620    7.2860   14.3090 C.3       6 GLP5        0.0000 
     25 CA          9.0015    5.1125   13.9520 C.3       3 GLC5        0.0000 
     26 CA          9.2410    2.9390   13.5950 C.3       9 GLL5        0.0000 
     27 CA         10.9615    3.8270   14.5725 C.3       3 GLC5        0.0000 
     28 CA         11.1770    3.6420   15.6480 C.3       3 GLC5        0.0000 
     29 CA          9.6720    2.5690   15.7460 C.3       9 GLL5        0.0000 
     30 CA          9.7370    3.6840   17.4500 C.3       3 GLC5        0.0000 
     31 CA          9.8020    4.7990   19.1540 C.3       6 GLP5        0.0000 
     32 CA          7.7890    3.3255   15.6140 C.3       3 GLC5        0.0000 
     33 CA          5.9060    4.0820   15.4820 C.3       6 GLP5        0.0000 
     34 CA         10.5185    0.8160   15.4510 C.3       3 GLC5        0.0000 
     35 CA         11.3650   -0.9370   15.1560 C.3       6 GLP5        0.0000 
     36 CA          8.1860   -1.1075   13.5455 C.3       3 GLC5        0.0000 
     37 CA          8.0000    0.9390   13.0140 C.3       9 GLL5        0.0000 
     38 CA          8.3720   -3.1540   14.0770 C.3       6 GLP5        0.0000 
     39 CA         10.6125    1.3140   11.3895 C.3       3 GLC5        0.0000 
     40 CA          8.7480    2.4680   11.2820 C.3       9 GLL5        0.0000 
     41 CA         12.4770    0.1600   11.4970 C.3       6 GLP5        0.0000 
     42 CA          9.6280    1.4405    8.5745 C.3       3 GLC5        0.0000 
     43 CA          8.8730    2.9070    9.6130 C.3       9 GLL5        0.0000 
     44 CA         10.3830   -0.0260    7.5360 C.3       6 GLP5        0.0000 
     45 CA         12.3685    6.6520    8.9480 C.3       3 GLC5        0.0000 
     46 CA         12.2190    8.2220   10.4170 C.3       9 GLL5        0.0000 
     47 CA         12.5180    5.0820    7.4790 C.3       6 GLP5        0.0000 
     48 CA         12.6400    8.5995    7.8395 C.3       3 GLC5        0.0000 
     49 CA         10.4990    8.5130    8.0780 C.3       9 GLL5        0.0000 
     50 CA         14.7810    8.6860    7.6010 C.3       6 GLP5        0.0000 
     51 CA         10.8760    8.3210    6.1815 C.3       3 GLC5        0.0000 
     52 CA         11.2530    8.1290    4.2850 C.3       6 GLP5        0.0000 
     53 CA         11.5085    6.7975    7.7785 C.3       3 GLC5        0.0000 
     54 CA          9.0785   12.1970   11.3830 C.3       3 GLC5        0.0000 
     55 CA         10.8320   12.0750    9.9840 C.3       9 GLL5        0.0000 
     56 CA          7.3250   12.3190   12.7820 C.3       6 GLP5        0.0000 
     57 CA         13.2265   10.0852   12.4032 C.3       3 GLC5        0.0000 
     58 CA         13.7440   10.5860   10.4780 C.3       9 GLL5        0.0000 
     59 CA         12.4610   10.1650   14.0450 C.3       6 GLP5        0.0000 
     60 CA         14.3865    9.3457    9.1813 C.3       3 GLC5        0.0000 
     61 CA         14.2400    9.4250   11.0450 C.3       9 GLL5        0.0000 
     62 CA         12.6495    9.2027   12.3830 C.3       3 GLC5        0.0000 
     63 CA         13.4570    8.2590   11.0250 C.3       9 GLL5        0.0000 
     64 CA         13.8095    8.4633    9.1610 C.3       3 GLC5        0.0000 
     65 CA         12.6803    1.8998   12.0105 C.3       3 GLC5        0.0000 
     66 CA         12.4119    4.4239   13.9068 C.3       3 GLC5        0.0000 
     67 CA         12.3579    3.6179   10.6597 C.3       3 GLC5        0.0000 
     68 CA         12.2090    3.5540   12.4520 C.3       9 GLL5        0.0000 
     69 CA          7.3530    3.2890   12.9965 C.3       3 GLC5        0.0000 
     70 CA          9.3310    3.3050   12.2410 C.3       9 GLL5        0.0000 
     71 CA          5.4200    3.4560   13.0750 C.3       6 GLP5        0.0000 
     72 CA          6.8550    2.4045   13.2852 C.3       3 GLC5        0.0000 
     73 CA          8.5800    1.7670   13.9770 C.3       9 GLL5        0.0000 
     74 CA          9.8275    0.2080   14.3258 C.3       3 GLC5        0.0000 
     75 CA          6.9245    2.6667   12.2717 C.3       3 GLC5        0.0000 
     76 CA          8.1100    1.2870   11.6550 C.3       9 GLL5        0.0000 
     77 CA         10.6922    2.8952    9.7517 C.3       3 GLC5        0.0000 
     78 CA         12.2812   10.0612   11.9503 C.3       3 GLC5        0.0000 
     79 CA         11.7210    9.3660    9.8370 C.3       9 GLL5        0.0000 
     80 CA         13.4413    9.3217    8.7282 C.3       3 GLC5        0.0000 
     81 CA         12.4820   10.5490    9.8740 C.3       9 GLL5        0.0000 
@<TRIPOS>BOND
@<TRIPOS>SUBSTRUCTURE
     1 ALC1        4 GROUP        1 X    ALC  0     ROOT ALC X 1
     2 SEC2       14 GROUP        1 X    SEC  0     **** SEC X 2
     3 GLC5        1 GROUP        1 X    GLC  0     **** GLC X 6
     4 ALP1        6 GROUP        1 Y    ALP  0     ROOT ALP Y 8
     5 SEP2       16 GROUP        1 Y    SEP  0     **** SEP Y 9
     6 GLP5        3 GROUP        1 Y    GLP  0     **** GLP Y 13
     7 ALL1        5 GROUP        1 Z    ALL  0     ROOT ALL Z 15
     8 SEL2       15 GROUP        1 Z    SEL  0     **** SEL Z 16
     9 GLL5        2 GROUP        1 Z    GLL  0     **** GLL Z 20
@<TRIPOS>SET

