#    Name: 2vww_7X2_1_ligand
#    Modification time : Tue Mar 25 03:12:19 2014

@<TRIPOS>MOLECULE
2vww_7X2_1_ligand
   49    52     1     0     0
SMALL
NO_CHARGES


@<TRIPOS>ATOM
      1 C1         15.6950   11.7760   11.0600 C.3       1 7X21888     0.0000 
      2 O2         14.4160   11.7710   10.4300 O.3       1 7X21888     0.0000 
      3 C3         13.7440   10.5860   10.4780 C.ar      1 7X21888     0.0000 
      4 C4         14.2400    9.4250   11.0450 C.ar      1 7X21888     0.0000 
      5 C5         13.4570    8.2590   11.0250 C.ar      1 7X21888     0.0000 
      6 N6         13.9670    7.1030   11.6000 N.pl3     1 7X21888     0.0000 
      7 C7         13.3060    5.9200   11.8610 C.ar      1 7X21888     0.0000 
      8 N8         14.0650    4.9040   12.2790 N.ar      1 7X21888     0.0000 
      9 C9         13.5580    3.7250   12.5960 C.ar      1 7X21888     0.0000 
     10 C10        12.2090    3.5540   12.4520 C.ar      1 7X21888     0.0000 
     11 C11        11.4000    4.6260   12.0030 C.ar      1 7X21888     0.0000 
     12 N12        10.0150    4.4780   11.8490 N.pl3     1 7X21888     0.0000 
     13 C13         9.3310    3.3050   12.2410 C.ar      1 7X21888     0.0000 
     14 C14         9.2410    2.9390   13.5950 C.ar      1 7X21888     0.0000 
     15 O15         9.7160    3.5710   14.7100 O.3       1 7X21888     0.0000 
     16 C16         9.6720    2.5690   15.7460 C.3       1 7X21888     0.0000 
     17 O17         8.6240    1.6570   15.3490 O.3       1 7X21888     0.0000 
     18 C18         8.5800    1.7670   13.9770 C.ar      1 7X21888     0.0000 
     19 C19         8.0000    0.9390   13.0140 C.ar      1 7X21888     0.0000 
     20 C20         8.1100    1.2870   11.6550 C.ar      1 7X21888     0.0000 
     21 C21         8.7480    2.4680   11.2820 C.ar      1 7X21888     0.0000 
     22 CL1         8.8730    2.9070    9.6130 Cl        1 7X21888     0.0000 
     23 N23        11.9860    5.7990   11.7290 N.ar      1 7X21888     0.0000 
     24 C24        12.2190    8.2220   10.4170 C.ar      1 7X21888     0.0000 
     25 C25        11.7210    9.3660    9.8370 C.ar      1 7X21888     0.0000 
     26 O26        10.4800    9.3140    9.2510 O.3       1 7X21888     0.0000 
     27 C27        10.4990    8.5130    8.0780 C.3       1 7X21888     0.0000 
     28 C28        12.4820   10.5490    9.8740 C.ar      1 7X21888     0.0000 
     29 O29        12.0330   11.7060    9.3100 O.3       1 7X21888     0.0000 
     30 C30        10.8320   12.0750    9.9840 C.3       1 7X21888     0.0000 
     31 H          15.1670    9.4066   11.4769 H         1 7X21888     0.0000 
     32 H          15.0179    7.1368   11.8782 H         1 7X21888     0.0000 
     33 H          14.1392    2.9500   12.9406 H         1 7X21888     0.0000 
     34 H          11.7600    2.6527   12.6648 H         1 7X21888     0.0000 
     35 H           9.4663    5.2563   11.4319 H         1 7X21888     0.0000 
     36 H           9.4384    3.0213   16.7046 H         1 7X21888     0.0000 
     37 H          10.6221    2.0487   15.8142 H         1 7X21888     0.0000 
     38 H           7.5027    0.0929   13.2865 H         1 7X21888     0.0000 
     39 H           7.7164    0.6638   10.9399 H         1 7X21888     0.0000 
     40 H          11.6768    7.3498   10.3985 H         1 7X21888     0.0000 
     41 H          16.3138   11.1062   10.6496 H         1 7X21888     0.0000 
     42 H          16.1404   12.6685   10.9891 H         1 7X21888     0.0000 
     43 H          15.6303   11.5573   12.0336 H         1 7X21888     0.0000 
     44 H          11.1368    8.8694    7.3952 H         1 7X21888     0.0000 
     45 H          10.7758    7.5725    8.2750 H         1 7X21888     0.0000 
     46 H           9.5993    8.4689    7.6438 H         1 7X21888     0.0000 
     47 H          10.9837   12.2171   10.9622 H         1 7X21888     0.0000 
     48 H          10.4479   12.9238    9.6206 H         1 7X21888     0.0000 
     49 H          10.1258   11.3725    9.8959 H         1 7X21888     0.0000 
@<TRIPOS>BOND
     1    2    1 1    
     2   41    1 1    
     3   42    1 1    
     4   43    1 1    
     5    3    2 1    
     6    4    3 ar   
     7   28    3 ar   
     8    5    4 ar   
     9   31    4 1    
    10    6    5 1    
    11   24    5 ar   
    12    7    6 1    
    13   32    6 1    
    14    8    7 ar   
    15   23    7 ar   
    16    9    8 ar   
    17   10    9 ar   
    18   33    9 1    
    19   11   10 ar   
    20   34   10 1    
    21   12   11 1    
    22   23   11 ar   
    23   13   12 1    
    24   35   12 1    
    25   14   13 ar   
    26   21   13 ar   
    27   15   14 1    
    28   18   14 ar   
    29   16   15 1    
    30   17   16 1    
    31   36   16 1    
    32   37   16 1    
    33   18   17 1    
    34   19   18 ar   
    35   20   19 ar   
    36   38   19 1    
    37   21   20 ar   
    38   39   20 1    
    39   22   21 1    
    40   25   24 ar   
    41   40   24 1    
    42   26   25 1    
    43   28   25 ar   
    44   27   26 1    
    45   44   27 1    
    46   45   27 1    
    47   46   27 1    
    48   29   28 1    
    49   30   29 1    
    50   47   30 1    
    51   48   30 1    
    52   49   30 1    
@<TRIPOS>SUBSTRUCTURE
     1 7X21888     1 GROUP   
@<TRIPOS>SET

