#    Name: 2D1J_1_CAVITY_N1_6.mol2
#    Modification time : Tue Mar 11 08:02:22 2014

@<TRIPOS>MOLECULE
2D1J_1_CAVITY_N1_6.mol2
   77     0     4     0     0
SMALL
NO_CHARGES


@<TRIPOS>ATOM
      1 N           0.8101   10.6001   25.8495 N.2       2 ALA2        0.0000 
      2 CA          1.5617    9.3892   26.3172 C.3       3 GLY6        0.0000 
      3 DU          1.9817    9.1047   24.9056 H         4 CUB7        0.0000 
      4 CA          2.7333    7.8938   25.3732 C.3       3 GLY6        0.0000 
      5 O           3.9049    6.3984   24.4292 O.2       2 ALA2        0.0000 
      6 N           2.7900   10.2275   26.5137 N.2       2 ALA2        0.0000 
      7 CA          3.5416    9.0165   26.9813 C.3       3 GLY6        0.0000 
      8 O           3.2100    9.9430   25.1021 O.2       2 ALA2        0.0000 
      9 CA          3.9616    8.7320   25.5697 C.3       3 GLY6        0.0000 
     10 O           2.8783   10.8694   23.2228 O.2       2 ALA2        0.0000 
     11 O           3.6300    9.6585   23.6904 O.2       2 ALA2        0.0000 
     12 DU          4.3816    8.4476   24.1581 H         4 CUB7        0.0000 
     13 O           5.1332    7.2366   24.6257 O.2       2 ALA2        0.0000 
     14 DU          4.0499    9.3740   22.2788 H         4 CUB7        0.0000 
     15 DU          4.8016    8.1631   22.7465 H         4 CUB7        0.0000 
     16 N           5.5532    6.9521   23.2141 N.2       2 ALA2        0.0000 
     17 DU          5.2215    7.8786   21.3348 H         4 CUB7        0.0000 
     18 N           5.9732    6.6677   21.8025 N.2       2 ALA2        0.0000 
     19 CA          4.4383   10.7813   25.2986 C.3       3 GLY6        0.0000 
     20 CA          5.1899    9.5703   25.7662 C.3       3 GLY6        0.0000 
     21 CA          4.8582   10.4968   23.8869 C.3       3 GLY6        0.0000 
     22 N           5.6099    9.2858   24.3546 N.2       2 ALA2        0.0000 
     23 N           6.3615    8.0749   24.8222 N.2       2 ALA2        0.0000 
     24 CA          5.2782   10.2123   22.4753 C.3       3 GLY6        0.0000 
     25 DU          6.0298    9.0014   22.9430 H         4 CUB7        0.0000 
     26 N           6.7815    7.7904   23.4106 N.2       2 ALA2        0.0000 
     27 DU          5.6982    9.9278   21.0637 H         4 CUB7        0.0000 
     28 DU          6.4498    8.7169   21.5313 H         4 CUB7        0.0000 
     29 N           7.2014    7.5059   21.9990 N.2       2 ALA2        0.0000 
     30 OG          6.8698    8.4324   20.1197 O.2       1 SER1        0.0000 
     31 OG          7.6214    7.2215   20.5874 O.2       1 SER1        0.0000 
     32 O           6.8382   10.1241   24.5511 O.2       2 ALA2        0.0000 
     33 N           7.5898    8.9132   25.0187 N.2       2 ALA2        0.0000 
     34 N           8.3414    7.7022   25.4864 N.2       2 ALA2        0.0000 
     35 CA          6.5065   11.0506   22.6718 C.3       3 GLY6        0.0000 
     36 DU          7.2581    9.8396   23.1395 H         4 CUB7        0.0000 
     37 N           8.0098    8.6287   23.6071 N.2       2 ALA2        0.0000 
     38 CA          6.1749   11.9770   20.7925 C.3       3 GLY6        0.0000 
     39 CA          6.9265   10.7661   21.2602 C.3       3 GLY6        0.0000 
     40 DU          7.6781    9.5551   21.7278 H         4 CUB7        0.0000 
     41 CA          8.4297    8.3442   22.1955 C.3       3 GLY6        0.0000 
     42 DU          6.5949   11.6925   19.3809 H         4 CUB7        0.0000 
     43 OG          7.3465   10.4816   19.8485 O.2       1 SER1        0.0000 
     44 OG          8.0981    9.2707   20.3162 O.2       1 SER1        0.0000 
     45 OG          8.8497    8.0597   20.7839 O.2       1 SER1        0.0000 
     46 OG          7.7665   10.1971   18.4369 O.2       1 SER1        0.0000 
     47 CA          9.1497    8.8250   27.0945 C.3       3 GLY6        0.0000 
     48 N           9.9013    7.6141   27.5622 N.2       2 ALA2        0.0000 
     49 O           8.8181    9.7514   25.2152 O.2       2 ALA2        0.0000 
     50 O           9.5697    8.5405   25.6829 O.2       2 ALA2        0.0000 
     51 O          10.3213    7.3296   26.1505 O.2       2 ALA2        0.0000 
     52 CA          7.7348   11.8888   22.8683 C.3       3 GLY6        0.0000 
     53 CA          8.4864   10.6779   23.3360 C.3       3 GLY6        0.0000 
     54 OG          9.2380    9.4670   23.8036 O.2       1 SER1        0.0000 
     55 O           9.9897    8.2560   24.2713 O.2       2 ALA2        0.0000 
     56 N           5.8999   15.2372   20.0537 N.2       2 ALA2        0.0000 
     57 CA          6.6515   14.0262   20.5214 C.3       3 GLY6        0.0000 
     58 CA          7.4032   12.8153   20.9890 C.3       3 GLY6        0.0000 
     59 OG          8.1548   11.6044   21.4567 O.2       1 SER1        0.0000 
     60 OG          8.9064   10.3934   21.9243 O.2       1 SER1        0.0000 
     61 N           9.6580    9.1825   22.3920 N.2       2 ALA2        0.0000 
     62 CA          7.0715   13.7417   19.1097 C.3       3 GLY6        0.0000 
     63 CA          7.8231   12.5308   19.5774 C.3       3 GLY6        0.0000 
     64 N           8.5748   11.3199   20.0450 N.2       2 ALA2        0.0000 
     65 N           9.3264   10.1089   20.5127 N.2       2 ALA2        0.0000 
     66 N          11.1296    8.4523   27.7587 N.2       2 ALA2        0.0000 
     67 N          10.0463   10.5897   25.4117 N.2       2 ALA2        0.0000 
     68 O          10.7980    9.3788   25.8794 O.2       2 ALA2        0.0000 
     69 N          11.5496    8.1679   26.3470 N.2       2 ALA2        0.0000 
     70 N          12.3012    6.9569   26.8147 N.2       2 ALA2        0.0000 
     71 OG         10.4663   10.3052   24.0001 O.2       1 SER1        0.0000 
     72 CA         11.2179    9.0943   24.4678 C.3       3 GLY6        0.0000 
     73 CA          7.8798   14.8645   20.7179 C.3       3 GLY6        0.0000 
     74 OG          8.6314   13.6536   21.1855 O.2       1 SER1        0.0000 
     75 CA         12.0262   10.2171   26.0759 C.3       3 GLY6        0.0000 
     76 CA         12.7779    9.0061   26.5435 C.3       3 GLY6        0.0000 
     77 CA         13.1978    8.7216   25.1319 C.3       3 GLY6        0.0000 
@<TRIPOS>BOND
@<TRIPOS>SUBSTRUCTURE
     1 SER1       30 GROUP   
     2 ALA2        1 GROUP   
     3 GLY6        2 GROUP   
     4 CUB7        3 GROUP   
@<TRIPOS>SET

