#    Name: 2d1j_D01_1_INTS_M
#    Modification time : Tue Mar 25 01:29:23 2014

@<TRIPOS>MOLECULE
2d1j_D01_1_INTS_M
   51     0     6     0     0
SMALL
NO_CHARGES


@<TRIPOS>ATOM
      1 O           7.4745    7.6070   26.3800 O.2       1 ALC1        0.0000 
      2 O           8.2470    8.5820   25.6760 O.2       5 ALL1        0.0000 
      3 O           6.7020    6.6320   27.0840 O.2       3 ALP1        0.0000 
      4 CA          7.8030    8.9150   27.1940 C.3       2 GLC5        0.0000 
      5 CA          9.5410    8.2860   26.0940 C.3       6 GLL5        0.0000 
      6 CA          6.0650    9.5440   28.2940 C.3       4 GLP5        0.0000 
      7 CA          8.2855    7.4120   28.4880 C.3       2 GLC5        0.0000 
      8 CA         10.0120    7.6160   27.1780 C.3       6 GLL5        0.0000 
      9 CA          6.5590    7.2080   29.7980 C.3       4 GLP5        0.0000 
     10 CA         13.4430    9.2665   27.7675 C.3       2 GLC5        0.0000 
     11 CA         13.9890    7.8150   26.6430 C.3       6 GLL5        0.0000 
     12 CA         12.8970   10.7180   28.8920 C.3       4 GLP5        0.0000 
     13 CA         13.8680    6.1660   27.3870 C.3       2 GLC5        0.0000 
     14 CA         13.7470    4.5170   28.1310 C.3       4 GLP5        0.0000 
     15 CA         15.4930    7.8125   27.4935 C.3       2 GLC5        0.0000 
     16 CA         16.9970    7.8100   28.3440 C.3       4 GLP5        0.0000 
     17 CA          8.5170   10.3950   26.3310 C.3       2 GLC5        0.0000 
     18 CA          8.3500    9.2720   24.5400 C.3       6 GLL5        0.0000 
     19 CA          8.6840   11.5180   28.1220 C.3       4 GLP5        0.0000 
     20 CA          7.8490   11.3305   24.8045 C.3       2 GLC5        0.0000 
     21 CA          7.3480   13.3890   25.0690 C.3       4 GLP5        0.0000 
     22 CA          7.2075    9.4080   26.4170 C.3       2 GLC5        0.0000 
     23 CA          9.4235    4.5460   21.2800 C.3       2 GLC5        0.0000 
     24 CA          7.6180    3.3270   21.1720 C.3       6 GLL5        0.0000 
     25 CA         11.2290    5.7650   21.3880 C.3       4 GLP5        0.0000 
     26 CA          7.2695    1.8875   22.6825 C.3       2 GLC5        0.0000 
     27 CA          6.9210    0.4480   24.1930 C.3       4 GLP5        0.0000 
     28 CA         10.7807    6.1630   25.9932 C.3       2 GLC5        0.0000 
     29 CA         12.2800    8.0110   26.3910 C.3       6 GLL5        0.0000 
     30 CA          9.7210    4.5900   25.1290 C.3       4 GLP5        0.0000 
     31 CA         12.7937    6.1265   27.4943 C.3       2 GLC5        0.0000 
     32 CA         11.4010    7.4610   27.3240 C.3       6 GLL5        0.0000 
     33 CA         11.8600    7.4860   24.2233 C.3       2 GLC5        0.0000 
     34 CA         11.6780    6.6020   22.5990 C.3       4 GLP5        0.0000 
     35 CA         12.3596    9.4752   27.4864 C.3       2 GLC5        0.0000 
     36 CA         11.8040    8.7290   25.3040 C.3       6 GLL5        0.0000 
     37 CA         13.5056    9.7505   25.6887 C.3       2 GLC5        0.0000 
     38 CA         14.5420   11.1800   25.4670 C.3       4 GLP5        0.0000 
     39 CA          9.3979    9.9612   27.0032 C.3       2 GLC5        0.0000 
     40 CA         10.4470    8.8580   25.1330 C.3       6 GLL5        0.0000 
     41 CA          9.9164    6.4973   25.5068 C.3       2 GLC5        0.0000 
     42 CA         10.7465    7.8185   23.7299 C.3       2 GLC5        0.0000 
     43 CA          9.5005    0.0315   19.0900 C.3       2 GLC5        0.0000 
     44 CA          9.2070    2.0300   19.1900 C.3       6 GLL5        0.0000 
     45 CA          9.7160   -1.8040   19.6520 C.3       4 GLP5        0.0000 
     46 CA         10.2568    1.6277   15.8913 C.3       2 GLC5        0.0000 
     47 CA          9.3630    1.7040   17.8660 C.3       6 GLL5        0.0000 
     48 CA         11.6440    1.3530   14.3460 C.3       4 GLP5        0.0000 
     49 CA          4.8020    6.2547   25.2172 C.3       2 GLC5        0.0000 
     50 CA          4.6110    6.5290   22.9800 C.3       6 GLL5        0.0000 
     51 CA          4.5050    5.5930   27.0010 C.3       4 GLP5        0.0000 
@<TRIPOS>BOND
@<TRIPOS>SUBSTRUCTURE
     1 ALC1        1 GROUP        1 X    ALC  0     ROOT ALC X 1
     2 GLC5        4 GROUP        1 X    GLC  0     **** GLC X 6
     3 ALP1        3 GROUP        1 Y    ALP  0     ROOT ALP Y 8
     4 GLP5        6 GROUP        1 Y    GLP  0     **** GLP Y 13
     5 ALL1        2 GROUP        1 Z    ALL  0     ROOT ALL Z 15
     6 GLL5        5 GROUP        1 Z    GLL  0     **** GLL Z 20
@<TRIPOS>SET

