#    Name: 2d1j_D01_1_ligand
#    Modification time : Tue Mar 25 01:29:23 2014

@<TRIPOS>MOLECULE
2d1j_D01_1_ligand
   48    52     1     0     0
SMALL
NO_CHARGES


@<TRIPOS>ATOM
      1 N1          8.2470    8.5820   25.6760 N.pl3     1 D01700      0.0000 
      2 C1          9.5410    8.2860   26.0940 C.ar      1 D01700      0.0000 
      3 C2         10.0120    7.6160   27.1780 C.ar      1 D01700      0.0000 
      4 C3         11.4010    7.4610   27.3240 C.ar      1 D01700      0.0000 
      5 C4         12.2800    8.0110   26.3910 C.ar      1 D01700      0.0000 
      6 CL1        13.9890    7.8150   26.6430 Cl        1 D01700      0.0000 
      7 C5         11.8040    8.7290   25.3040 C.ar      1 D01700      0.0000 
      8 C6         10.4470    8.8580   25.1330 C.ar      1 D01700      0.0000 
      9 C7          9.6360    9.4980   24.1080 C.2       1 D01700      0.0000 
     10 C8          8.3500    9.2720   24.5400 C.2       1 D01700      0.0000 
     11 S1          6.8820    9.7460   23.8680 S.o2      1 D01700      0.0000 
     12 O1          5.9950    9.9990   24.9990 O.2       1 D01700      0.0000 
     13 O2          7.1380   10.7140   22.8350 O.2       1 D01700      0.0000 
     14 N2          6.2390    8.3480   23.0880 N.pl3     1 D01700      0.0000 
     15 C9          7.0550    7.7340   22.0520 C.3       1 D01700      0.0000 
     16 C10         6.1450    7.0090   21.0690 C.3       1 D01700      0.0000 
     17 N3          5.2690    6.0580   21.7550 N.am      1 D01700      0.0000 
     18 C11         5.3870    4.7010   21.6380 C.2       1 D01700      0.0000 
     19 O3          4.8440    4.0000   22.4930 O.2       1 D01700      0.0000 
     20 C12         6.1580    4.0610   20.6700 C.2       1 D01700      0.0000 
     21 C13         6.0140    3.8910   19.2790 C.2       1 D01700      0.0000 
     22 C14         7.1000    3.1630   18.7000 C.ar      1 D01700      0.0000 
     23 C15         8.0830    2.7740   19.6600 C.ar      1 D01700      0.0000 
     24 S2          7.6180    3.3270   21.1720 S.3       1 D01700      0.0000 
     25 C16         9.2070    2.0300   19.1900 C.ar      1 D01700      0.0000 
     26 C17         9.3630    1.7040   17.8660 C.ar      1 D01700      0.0000 
     27 C18         8.3760    2.1010   17.0070 C.ar      1 D01700      0.0000 
     28 N4          7.3140    2.7610   17.4000 N.pl3     1 D01700      0.0000 
     29 O4          6.4530    3.0630   16.4670 O.2       1 D01700      0.0000 
     30 C19         4.6110    6.5290   22.9800 C.3       1 D01700      0.0000 
     31 C20         5.5870    7.3040   23.8870 C.3       1 D01700      0.0000 
     32 H           7.4564    8.3236   26.1404 H         1 D01700      0.0000 
     33 H           9.3863    7.2245   27.8852 H         1 D01700      0.0000 
     34 H          11.7691    6.9354   28.1294 H         1 D01700      0.0000 
     35 H          12.4599    9.1548   24.6415 H         1 D01700      0.0000 
     36 H           9.9520    9.9305   23.3769 H         1 D01700      0.0000 
     37 H           7.7493    7.0088   22.4766 H         1 D01700      0.0000 
     38 H           7.6246    8.4845   21.5037 H         1 D01700      0.0000 
     39 H           6.7756    6.4930   20.3317 H         1 D01700      0.0000 
     40 H           5.5533    7.7607   20.5282 H         1 D01700      0.0000 
     41 H           5.2681    4.2251   18.7631 H         1 D01700      0.0000 
     42 H           9.9170    1.7366   19.8911 H         1 D01700      0.0000 
     43 H          10.1762    1.1907   17.5411 H         1 D01700      0.0000 
     44 H           8.4977    1.8515   15.9785 H         1 D01700      0.0000 
     45 H           4.2118    5.6852   23.5575 H         1 D01700      0.0000 
     46 H           3.7719    7.1950   22.7407 H         1 D01700      0.0000 
     47 H           5.0192    7.7343   24.7054 H         1 D01700      0.0000 
     48 H           6.3136    6.6011   24.2809 H         1 D01700      0.0000 
@<TRIPOS>BOND
     1    2    1 1    
     2   10    1 1    
     3   32    1 1    
     4    3    2 ar   
     5    8    2 ar   
     6    4    3 ar   
     7   33    3 1    
     8    5    4 ar   
     9   34    4 1    
    10    6    5 1    
    11    7    5 ar   
    12    8    7 ar   
    13   35    7 1    
    14    9    8 1    
    15   10    9 2    
    16   36    9 1    
    17   11   10 1    
    18   12   11 2    
    19   13   11 2    
    20   14   11 1    
    21   15   14 1    
    22   31   14 1    
    23   16   15 1    
    24   37   15 1    
    25   38   15 1    
    26   17   16 1    
    27   39   16 1    
    28   40   16 1    
    29   18   17 am   
    30   30   17 1    
    31   19   18 2    
    32   20   18 1    
    33   21   20 2    
    34   24   20 1    
    35   22   21 1    
    36   41   21 1    
    37   23   22 ar   
    38   28   22 ar   
    39   24   23 1    
    40   25   23 ar   
    41   26   25 ar   
    42   42   25 1    
    43   27   26 ar   
    44   43   26 1    
    45   28   27 ar   
    46   44   27 1    
    47   29   28 1    
    48   31   30 1    
    49   45   30 1    
    50   46   30 1    
    51   47   31 1    
    52   48   31 1    
@<TRIPOS>SUBSTRUCTURE
     1 D01700      1 GROUP   
@<TRIPOS>SET

