#    Name: 2J4D_1_CAVITY_N1_ALL.mol2
#    Modification time : Mon Mar 10 20:58:01 2014

@<TRIPOS>MOLECULE
2J4D_1_CAVITY_N1_ALL.mol2
   61     0     6     0     0
SMALL
NO_CHARGES


@<TRIPOS>ATOM
      1 CA          4.3914   28.0474  -29.7968 C.3       6 GLY6        0.0000 
      2 NZ          5.3193   30.1633  -28.6085 N.2       4 LYS4        0.0000 
      3 NZ          5.7417   28.7530  -28.3207 N.2       4 LYS4        0.0000 
      4 CA          5.4058   29.8887  -30.0806 C.3       6 GLY6        0.0000 
      5 CA          5.8281   28.4785  -29.7928 C.3       6 GLY6        0.0000 
      6 OG          6.2505   27.0683  -29.5051 O.2       1 SER1        0.0000 
      7 CA          4.2251   33.8450  -32.4161 C.3       6 GLY6        0.0000 
      8 CA          5.4922   29.6142  -31.5527 C.3       6 GLY6        0.0000 
      9 CA          5.9145   28.2040  -31.2650 C.3       6 GLY6        0.0000 
     10 CZ          5.8378   28.5161  -37.4413 C.ar      5 PHE5        0.0000 
     11 CA          5.9880   33.1027  -23.0038 C.3       6 GLY6        0.0000 
     12 OD1         6.0744   32.8282  -24.4759 O.3       3 ASP3        0.0000 
     13 OD1         6.6696   30.8689  -27.1324 O.3       3 ASP3        0.0000 
     14 OG          7.0920   29.4586  -26.8446 O.2       1 SER1        0.0000 
     15 NZ          6.7561   30.5944  -28.6045 N.2       4 LYS4        0.0000 
     16 CZ          7.1784   29.1841  -28.3168 C.ar      5 PHE5        0.0000 
     17 NZ          6.8425   30.3198  -30.0767 N.2       4 LYS4        0.0000 
     18 CZ          7.2648   28.9096  -29.7889 C.ar      5 PHE5        0.0000 
     19 CA          5.6618   34.2761  -32.4121 C.3       6 GLY6        0.0000 
     20 NZ          6.0842   32.8658  -32.1244 N.2       4 LYS4        0.0000 
     21 CA          6.5065   31.4556  -31.8366 C.3       6 GLY6        0.0000 
     22 CZ          6.9289   30.0453  -31.5488 C.ar      5 PHE5        0.0000 
     23 CZ          7.3512   28.6351  -31.2610 C.ar      5 PHE5        0.0000 
     24 N           5.7482   34.0015  -33.8843 N.2       2 ALA2        0.0000 
     25 N           6.1706   32.5913  -33.5965 N.2       2 ALA2        0.0000 
     26 CA          6.5930   31.1810  -33.3087 C.3       6 GLY6        0.0000 
     27 CA          7.0153   29.7708  -33.0209 C.3       6 GLY6        0.0000 
     28 N           6.2570   32.3168  -35.0686 N.2       2 ALA2        0.0000 
     29 N           6.6794   30.9065  -34.7808 N.2       2 ALA2        0.0000 
     30 N           7.1017   29.4963  -34.4931 N.2       2 ALA2        0.0000 
     31 N           6.7658   30.6320  -36.2530 N.2       2 ALA2        0.0000 
     32 CZ          7.1881   29.2217  -35.9652 C.ar      5 PHE5        0.0000 
     33 N           7.2746   28.9472  -37.4373 N.2       2 ALA2        0.0000 
     34 NZ          7.0024   34.9440  -23.2876 N.2       4 LYS4        0.0000 
     35 NZ          7.4247   33.5338  -22.9998 N.2       4 LYS4        0.0000 
     36 NZ          7.0888   34.6695  -24.7598 N.2       4 LYS4        0.0000 
     37 NZ          7.5112   33.2593  -24.4720 N.2       4 LYS4        0.0000 
     38 OG          8.0199   31.5745  -25.6563 O.2       1 SER1        0.0000 
     39 NZ          8.1063   31.3000  -27.1285 N.2       4 LYS4        0.0000 
     40 OG          8.5287   29.8897  -26.8407 O.2       1 SER1        0.0000 
     41 CA          7.7704   32.4357  -28.8884 C.3       6 GLY6        0.0000 
     42 CZ          8.1928   31.0255  -28.6006 C.ar      5 PHE5        0.0000 
     43 CA          7.8568   32.1612  -30.3605 C.3       6 GLY6        0.0000 
     44 CZ          8.2792   30.7509  -30.0727 C.ar      5 PHE5        0.0000 
     45 OG          7.0985   34.7071  -32.4082 O.2       1 SER1        0.0000 
     46 OG          7.5209   33.2969  -32.1204 O.2       1 SER1        0.0000 
     47 CA          7.9432   31.8866  -31.8326 C.3       6 GLY6        0.0000 
     48 CZ          8.3656   30.4764  -31.5448 C.ar      5 PHE5        0.0000 
     49 OG          6.7626   35.8429  -34.1681 O.2       1 SER1        0.0000 
     50 OG          7.1850   34.4326  -33.8803 O.2       1 SER1        0.0000 
     51 OG          7.6073   33.0224  -33.5925 O.2       1 SER1        0.0000 
     52 N           8.0297   31.6121  -33.3048 N.2       2 ALA2        0.0000 
     53 CZ          8.4520   30.2019  -33.0170 C.ar      5 PHE5        0.0000 
     54 NZ          7.6937   32.7478  -35.0647 N.2       4 LYS4        0.0000 
     55 N           8.1161   31.3376  -34.7769 N.2       2 ALA2        0.0000 
     56 CZ          8.5384   29.9273  -34.4891 C.ar      5 PHE5        0.0000 
     57 NZ          7.7801   32.4733  -36.5368 N.2       4 LYS4        0.0000 
     58 O           8.2025   31.0631  -36.2490 O.2       2 ALA2        0.0000 
     59 N           8.6249   29.6528  -35.9612 N.2       2 ALA2        0.0000 
     60 N           8.2889   30.7885  -37.7211 N.2       2 ALA2        0.0000 
     61 O           9.6392   31.4942  -36.2451 O.2       2 ALA2        0.0000 
@<TRIPOS>BOND
@<TRIPOS>SUBSTRUCTURE
     1 SER1        6 GROUP   
     2 ALA2       24 GROUP   
     3 ASP3       12 GROUP   
     4 LYS4        2 GROUP   
     5 PHE5       10 GROUP   
     6 GLY6        1 GROUP   
@<TRIPOS>SET

