#    Name: 2j4d_MHF_1_INTS_M
#    Modification time : Tue Mar 25 19:14:13 2014

@<TRIPOS>MOLECULE
2j4d_MHF_1_INTS_M
   79     0    12     0     0
SMALL
NO_CHARGES


@<TRIPOS>ATOM
      1 O           7.4445   29.7340  -25.0900 O.2       1 ALC1        0.0000 
      2 O           7.3960   30.8700  -25.7850 O.2       9 ALL1        0.0000 
      3 O           7.4930   28.5980  -24.3950 O.2       5 ALP1        0.0000 
      4 O           9.1440   33.3235  -24.0060 O.2       1 ALC1        0.0000 
      5 O           8.4490   32.2910  -24.2200 O.2       9 ALL1        0.0000 
      6 O           9.8390   34.3560  -23.7920 O.2       5 ALP1        0.0000 
      7 N           9.5100   33.7530  -26.1900 N.am      2 SEC2        0.0000 
      8 N           8.8370   32.6120  -26.5040 N.am     10 SEL2        0.0000 
      9 N          10.1830   34.8940  -25.8760 N.am      6 SEP2        0.0000 
     10 N           9.3410   34.3155  -29.1715 N.am      2 SEC2        0.0000 
     11 N           9.1830   32.9440  -28.7140 N.am     10 SEL2        0.0000 
     12 N           9.4990   35.6870  -29.6290 N.am      6 SEP2        0.0000 
     13 CA          7.1540   33.0340  -28.6695 C.3       4 GLC5        0.0000 
     14 CA          7.7500   31.2180  -28.1380 C.3      12 GLL5        0.0000 
     15 CA          6.5580   34.8500  -29.2010 C.3       8 GLP5        0.0000 
     16 CA          6.6255   27.0660  -28.0725 C.3       4 GLC5        0.0000 
     17 CA          6.3080   28.7780  -28.7520 C.3      12 GLL5        0.0000 
     18 CA          6.9430   25.3540  -27.3930 C.3       8 GLP5        0.0000 
     19 O           5.3820   28.4370  -26.6085 O.2       1 ALC1        0.0000 
     20 O           6.2930   29.4170  -27.3950 O.2       9 ALL1        0.0000 
     21 O           4.4710   27.4570  -25.8220 O.2       5 ALP1        0.0000 
     22 O           5.3195   29.4070  -26.0925 O.2       1 ALC1        0.0000 
     23 O           4.3460   29.3970  -24.7900 O.2       5 ALP1        0.0000 
     24 CA          8.9655   30.0185  -25.9105 C.3       4 GLC5        0.0000 
     25 CA          7.1400   30.4940  -27.0930 C.3      12 GLL5        0.0000 
     26 CA         10.7910   29.5430  -24.7280 C.3       8 GLP5        0.0000 
     27 CA          4.7995   29.6335  -32.0365 C.3       4 GLC5        0.0000 
     28 CA          6.3830   29.5420  -31.2620 C.3      12 GLL5        0.0000 
     29 CA          3.2160   29.7250  -32.8110 C.3       8 GLP5        0.0000 
     30 CA          8.0945   28.6075  -31.3240 C.3       4 GLC5        0.0000 
     31 CA          9.8060   27.6730  -31.3860 C.3       8 GLP5        0.0000 
     32 CA          9.3025   32.8120  -31.3915 C.3       4 GLC5        0.0000 
     33 CA          7.9040   31.2820  -30.7710 C.3      12 GLL5        0.0000 
     34 CA         10.7010   34.3420  -32.0120 C.3       8 GLP5        0.0000 
     35 CA          7.2310   33.0660  -29.9860 C.3       4 GLC5        0.0000 
     36 CA          9.4505   30.4845  -30.7330 C.3       4 GLC5        0.0000 
     37 CA         10.9970   29.6870  -30.6950 C.3       8 GLP5        0.0000 
     38 CA          8.6515   28.2415  -36.3665 C.3       4 GLC5        0.0000 
     39 CA          7.7610   29.7970  -35.3770 C.3      12 GLL5        0.0000 
     40 CA          9.5420   26.6860  -37.3560 C.3       8 GLP5        0.0000 
     41 N           9.1380   29.1625  -37.9190 N.am      2 SEC2        0.0000 
     42 N           8.2570   30.4300  -38.0370 N.am     10 SEL2        0.0000 
     43 N          10.0190   27.8950  -37.8010 N.am      6 SEP2        0.0000 
     44 O           9.2125   33.7250  -36.9885 O.2       1 ALC1        0.0000 
     45 O           8.9070   32.5330  -37.6760 O.2       9 ALL1        0.0000 
     46 O           9.5180   34.9170  -36.3010 O.2       5 ALP1        0.0000 
     47 CA         10.4435   35.2790  -38.6540 C.3       4 GLC5        0.0000 
     48 CA          8.9820   34.2110  -39.4720 C.3      12 GLL5        0.0000 
     49 CA         11.9050   36.3470  -37.8360 C.3       8 GLP5        0.0000 
     50 CA          9.1545   35.8035  -38.1145 C.3       4 GLC5        0.0000 
     51 CA          7.6020   34.7530  -39.2000 C.3      12 GLL5        0.0000 
     52 CA         10.7070   36.8540  -37.0290 C.3       8 GLP5        0.0000 
     53 NZ         12.3850   32.6380  -39.8850 N.4       3 LYC4        0.0000 
     54 NZ         11.3960   32.1130  -38.5220 N.4      11 LYL4        0.0000 
     55 NZ         13.3740   33.1630  -41.2480 N.4       7 LYP4        0.0000 
     56 N          11.5775   32.4240  -37.1400 N.am      2 SEC2        0.0000 
     57 N          11.3960   32.1130  -38.5220 N.am     10 SEL2        0.0000 
     58 N          11.7590   32.7350  -35.7580 N.am      6 SEP2        0.0000 
     59 NZ         12.1280   32.6545  -40.9520 N.4       3 LYC4        0.0000 
     60 NZ         10.8820   32.1460  -40.6560 N.4      11 LYL4        0.0000 
     61 N          12.1280   32.6545  -40.9520 N.am      2 SEC2        0.0000 
     62 N          10.8820   32.1460  -40.6560 N.am     10 SEL2        0.0000 
     63 N          13.3740   33.1630  -41.2480 N.am      6 SEP2        0.0000 
     64 CA          4.5408   29.3017  -30.3570 C.3       4 GLC5        0.0000 
     65 CA          6.2490   29.9430  -29.7660 C.3      12 GLL5        0.0000 
     66 CA          2.8030   29.2430  -31.4550 C.3       8 GLP5        0.0000 
     67 CA          7.9897   28.3292  -29.6550 C.3       4 GLC5        0.0000 
     68 CA          9.7010   27.2980  -30.0510 C.3       8 GLP5        0.0000 
     69 CA          5.6773   30.4650  -33.3798 C.3       4 GLC5        0.0000 
     70 CA          7.5730   29.5040  -34.0270 C.3      12 GLL5        0.0000 
     71 CA          3.6530   30.9370  -33.2310 C.3       8 GLP5        0.0000 
     72 CA          8.4757   28.4416  -33.1685 C.3       4 GLC5        0.0000 
     73 CA          7.8300   30.4820  -33.0300 C.3      12 GLL5        0.0000 
     74 CA          9.2030   26.8170  -32.4710 C.3       8 GLP5        0.0000 
     75 CA          9.5340   33.1442  -33.0717 C.3       4 GLC5        0.0000 
     76 CA          8.2730   31.7990  -33.4490 C.3      12 GLL5        0.0000 
     77 CA         10.1483   30.8113  -35.3173 C.3       4 GLC5        0.0000 
     78 CA          8.4610   32.0940  -34.8140 C.3      12 GLL5        0.0000 
     79 CA         12.0710   30.3550  -35.4360 C.3       8 GLP5        0.0000 
@<TRIPOS>BOND
@<TRIPOS>SUBSTRUCTURE
     1 ALC1        1 GROUP        1 X    ALC  0     ROOT ALC X 1
     2 SEC2        7 GROUP        1 X    SEC  0     **** SEC X 2
     3 LYC4       53 GROUP        1 X    LYC  0     **** LYC X 4
     4 GLC5       13 GROUP        1 X    GLC  0     **** GLC X 6
     5 ALP1        3 GROUP        1 Y    ALP  0     ROOT ALP Y 8
     6 SEP2        9 GROUP        1 Y    SEP  0     **** SEP Y 9
     7 LYP4       55 GROUP        1 Y    LYP  0     **** LYP Y 11
     8 GLP5       15 GROUP        1 Y    GLP  0     **** GLP Y 13
     9 ALL1        2 GROUP        1 Z    ALL  0     ROOT ALL Z 15
    10 SEL2        8 GROUP        1 Z    SEL  0     **** SEL Z 16
    11 LYL4       54 GROUP        1 Z    LYL  0     **** LYL Z 18
    12 GLL5       14 GROUP        1 Z    GLL  0     **** GLL Z 20
@<TRIPOS>SET

