#    Name: 2j4d_MHF_1_ligand
#    Modification time : Tue Mar 25 19:14:14 2014

@<TRIPOS>MOLECULE
2j4d_MHF_1_ligand
   55    58     1     0     0
SMALL
NO_CHARGES


@<TRIPOS>ATOM
      1 N1          7.3960   30.8700  -25.7850 N.pl3     1 MHF1499     0.0000 
      2 C2          8.2330   31.9290  -25.5170 C.2       1 MHF1499     0.0000 
      3 NA2         8.4490   32.2910  -24.2200 N.pl3     1 MHF1499     0.0000 
      4 N3          8.8370   32.6120  -26.5040 N.2       1 MHF1499     0.0000 
      5 C4          8.6260   32.2970  -27.8180 C.2       1 MHF1499     0.0000 
      6 O4          9.1830   32.9440  -28.7140 O.2       1 MHF1499     0.0000 
      7 C4A         7.7500   31.2180  -28.1380 C.2       1 MHF1499     0.0000 
      8 N5          7.4240   30.8310  -29.4630 N.pl3     1 MHF1499     0.0000 
      9 C6          6.2490   29.9430  -29.7660 C.3       1 MHF1499     0.0000 
     10 C7          6.3080   28.7780  -28.7520 C.3       1 MHF1499     0.0000 
     11 N8          6.2930   29.4170  -27.3950 N.pl3     1 MHF1499     0.0000 
     12 C8A         7.1400   30.4940  -27.0930 C.2       1 MHF1499     0.0000 
     13 C9          6.3830   29.5420  -31.2620 C.3       1 MHF1499     0.0000 
     14 N10         7.7020   30.1100  -31.6340 N.4       1 MHF1499     0.0000 
     15 C11         7.9040   31.2820  -30.7710 C.3       1 MHF1499     0.0000 
     16 C12         8.2190   31.0850  -35.7890 C.ar      1 MHF1499     0.0000 
     17 C13         7.7610   29.7970  -35.3770 C.ar      1 MHF1499     0.0000 
     18 C14         7.5730   29.5040  -34.0270 C.ar      1 MHF1499     0.0000 
     19 C15         7.8300   30.4820  -33.0300 C.ar      1 MHF1499     0.0000 
     20 C16         8.2730   31.7990  -33.4490 C.ar      1 MHF1499     0.0000 
     21 C17         8.4610   32.0940  -34.8140 C.ar      1 MHF1499     0.0000 
     22 C           8.4570   31.3360  -37.2360 C.2       1 MHF1499     0.0000 
     23 O           8.2570   30.4300  -38.0370 O.2       1 MHF1499     0.0000 
     24 N           8.9070   32.5330  -37.6760 N.am      1 MHF1499     0.0000 
     25 CA          9.1600   32.7390  -39.1020 C.3       1 MHF1499     0.0000 
     26 CB          8.9820   34.2110  -39.4720 C.3       1 MHF1499     0.0000 
     27 CG          7.6020   34.7530  -39.2000 C.3       1 MHF1499     0.0000 
     28 CD          6.5290   33.9810  -39.9350 C.2       1 MHF1499     0.0000 
     29 OE1         6.4680   34.0940  -41.1780 O.co2     1 MHF1499     0.0000 
     30 OE2         5.7610   33.2470  -39.2720 O.co2     1 MHF1499     0.0000 
     31 CT         10.5840   32.2980  -39.4530 C.2       1 MHF1499     0.0000 
     32 O1         11.3960   32.1130  -38.5220 O.co2     1 MHF1499     0.0000 
     33 O2         10.8820   32.1460  -40.6560 O.co2     1 MHF1499     0.0000 
     34 H           6.9540   30.3498  -25.0082 H         1 MHF1499     0.0000 
     35 H           7.7040   32.1017  -23.5804 H         1 MHF1499     0.0000 
     36 H           9.3334   32.7140  -24.0226 H         1 MHF1499     0.0000 
     37 H           5.3557   30.5027  -29.6251 H         1 MHF1499     0.0000 
     38 H           7.2167   28.2350  -28.9033 H         1 MHF1499     0.0000 
     39 H           5.4464   28.1593  -28.8872 H         1 MHF1499     0.0000 
     40 H           5.6445   29.0338  -26.7125 H         1 MHF1499     0.0000 
     41 H           5.5980   30.0003  -31.8042 H         1 MHF1499     0.0000 
     42 H           6.3846   28.4856  -31.3277 H         1 MHF1499     0.0000 
     43 H           8.4733   29.3737  -31.3684 H         1 MHF1499     0.0000 
     44 H           8.9459   31.5349  -30.7232 H         1 MHF1499     0.0000 
     45 H           7.3179   32.1095  -31.1225 H         1 MHF1499     0.0000 
     46 H           7.5717   29.0873  -36.0954 H         1 MHF1499     0.0000 
     47 H           7.2452   28.5734  -33.7387 H         1 MHF1499     0.0000 
     48 H           8.4451   32.5059  -32.7339 H         1 MHF1499     0.0000 
     49 H           8.7668   33.0176  -35.1069 H         1 MHF1499     0.0000 
     50 H           9.0855   33.3242  -37.0518 H         1 MHF1499     0.0000 
     51 H           8.4736   32.1556  -39.6970 H         1 MHF1499     0.0000 
     52 H           9.2201   34.3354  -40.5443 H         1 MHF1499     0.0000 
     53 H           9.7267   34.8067  -38.9130 H         1 MHF1499     0.0000 
     54 H           7.5588   35.8080  -39.5036 H         1 MHF1499     0.0000 
     55 H           7.4007   34.7113  -38.1207 H         1 MHF1499     0.0000 
@<TRIPOS>BOND
     1    2    1 1    
     2   12    1 1    
     3   34    1 1    
     4    3    2 1    
     5    4    2 2    
     6   35    3 1    
     7   36    3 1    
     8    5    4 1    
     9    6    5 2    
    10    7    5 1    
    11    8    7 1    
    12   12    7 2    
    13    9    8 1    
    14   15    8 1    
    15   10    9 1    
    16   13    9 1    
    17   37    9 1    
    18   11   10 1    
    19   38   10 1    
    20   39   10 1    
    21   12   11 1    
    22   40   11 1    
    23   14   13 1    
    24   41   13 1    
    25   42   13 1    
    26   15   14 1    
    27   19   14 1    
    28   43   14 1    
    29   44   15 1    
    30   45   15 1    
    31   17   16 ar   
    32   21   16 ar   
    33   22   16 1    
    34   18   17 ar   
    35   46   17 1    
    36   19   18 ar   
    37   47   18 1    
    38   20   19 ar   
    39   21   20 ar   
    40   48   20 1    
    41   49   21 1    
    42   23   22 2    
    43   24   22 am   
    44   25   24 1    
    45   50   24 1    
    46   26   25 1    
    47   31   25 1    
    48   51   25 1    
    49   27   26 1    
    50   52   26 1    
    51   53   26 1    
    52   28   27 1    
    53   54   27 1    
    54   55   27 1    
    55   29   28 ar   
    56   30   28 ar   
    57   32   31 ar   
    58   33   31 ar   
@<TRIPOS>SUBSTRUCTURE
     1 MHF1499     1 GROUP   
@<TRIPOS>SET

