#    Name: 1nhw_TCC_2_INTS_M
#    Modification time : Mon Mar 24 18:17:56 2014

@<TRIPOS>MOLECULE
1nhw_TCC_2_INTS_M
   57     0     9     0     0
SMALL
NO_CHARGES


@<TRIPOS>ATOM
      1 CA          9.6530  102.8935   22.1535 C.3       3 GLC5        0.0000 
      2 CA          9.9290  102.8220   23.9750 C.3       9 GLL5        0.0000 
      3 CA          9.3770  102.9650   20.3320 C.3       6 GLP5        0.0000 
      4 CA         11.3550  103.8380   23.0070 C.3       3 GLC5        0.0000 
      5 CA         12.7810  104.8540   22.0390 C.3       6 GLP5        0.0000 
      6 CA          9.5295  101.1525   22.8910 C.3       3 GLC5        0.0000 
      7 CA          9.1300   99.4830   21.8070 C.3       6 GLP5        0.0000 
      8 CA         11.2525  104.8125   24.1900 C.3       3 GLC5        0.0000 
      9 CA          9.3640  103.8280   24.8110 C.3       9 GLL5        0.0000 
     10 CA         13.1410  105.7970   23.5690 C.3       6 GLP5        0.0000 
     11 CA          9.2295  106.3110   22.9555 C.3       3 GLC5        0.0000 
     12 CA          8.4340  105.1090   24.0830 C.3       9 GLL5        0.0000 
     13 CA         10.0250  107.5130   21.8280 C.3       6 GLP5        0.0000 
     14 CA          8.3865  104.5850   22.0990 C.3       3 GLC5        0.0000 
     15 CA          8.3390  104.0610   20.1150 C.3       6 GLP5        0.0000 
     16 CA          9.5355  105.7885   26.2585 C.3       3 GLC5        0.0000 
     17 CA          9.5560  103.7830   26.2530 C.3       9 GLL5        0.0000 
     18 CA          9.5150  107.7940   26.2640 C.3       6 GLP5        0.0000 
     19 CA         11.6790  103.9695   28.2940 C.3       3 GLC5        0.0000 
     20 CA         10.5260  102.6870   28.5980 C.3       9 GLL5        0.0000 
     21 CA         12.8320  105.2520   27.9900 C.3       6 GLP5        0.0000 
     22 CA          9.0020  101.9605   28.3745 C.3       3 GLC5        0.0000 
     23 CA          7.4780  101.2340   28.1510 C.3       6 GLP5        0.0000 
     24 CA         12.2060  102.5330   29.4220 C.3       3 GLC5        0.0000 
     25 CA         13.8860  102.3790   30.2460 C.3       6 GLP5        0.0000 
     26 CA          9.8570   97.7710   25.7600 C.3       3 GLC5        0.0000 
     27 CA         11.5530   98.2710   25.6680 C.3       9 GLL5        0.0000 
     28 CA          8.1610   97.2710   25.8520 C.3       6 GLP5        0.0000 
     29 CA         10.4880   96.6270   25.7635 C.3       3 GLC5        0.0000 
     30 CA         12.2040   97.1800   24.9590 C.3       9 GLL5        0.0000 
     31 CA          8.7720   96.0740   26.5680 C.3       6 GLP5        0.0000 
     32 CA         11.4020   95.3070   24.9955 C.3       3 GLC5        0.0000 
     33 CA         10.6000   93.4340   25.0320 C.3       6 GLP5        0.0000 
     34 CA         16.3060   98.8040   24.8700 C.3       3 GLC5        0.0000 
     35 CA         14.3280   98.5110   24.8910 C.3       9 GLL5        0.0000 
     36 CA         18.2840   99.0970   24.8490 C.3       6 GLP5        0.0000 
     37 N          14.6295  101.4360   26.9790 N.am      2 SEC2        0.0000 
     38 N          14.4050  100.7450   25.8810 N.am      8 SEL2        0.0000 
     39 N          14.8540  102.1270   28.0770 N.am      5 SEP2        0.0000 
     40 O          14.9730  101.2140   24.8590 O.2       1 ALC1        0.0000 
     41 O          14.4050  100.7450   25.8810 O.2       7 ALL1        0.0000 
     42 O          15.5410  101.6830   23.8370 O.2       4 ALP1        0.0000 
     43 CA         10.6040  100.3890   23.3750 C.3       3 GLC5        0.0000 
     44 CA         10.6910  101.7490   24.5450 C.3       9 GLL5        0.0000 
     45 CA         10.5170   99.0290   22.2050 C.3       6 GLP5        0.0000 
     46 CA          9.2070  106.1312   25.3555 C.3       3 GLC5        0.0000 
     47 CA         11.3852  104.2492   27.2680 C.3       3 GLC5        0.0000 
     48 CA         12.3245  103.1202   24.9355 C.3       3 GLC5        0.0000 
     49 CA         10.9010  101.6720   25.9990 C.3       9 GLL5        0.0000 
     50 CA         13.8530  104.5300   24.5990 C.3       6 GLP5        0.0000 
     51 CA          8.9489  101.8466   27.2117 C.3       3 GLC5        0.0000 
     52 CA         11.2200   98.9553   24.0168 C.3       3 GLC5        0.0000 
     53 CA         12.2930   99.4920   25.9890 C.3       9 GLL5        0.0000 
     54 CA         13.6120  100.4945   27.4653 C.3       3 GLC5        0.0000 
     55 CA         14.2400  101.4400   29.1370 C.3       6 GLP5        0.0000 
     56 CA         11.7075   98.1347   23.4853 C.3       3 GLC5        0.0000 
     57 CA         13.5920   97.3010   24.5720 C.3       9 GLL5        0.0000 
@<TRIPOS>BOND
@<TRIPOS>SUBSTRUCTURE
     1 ALC1       40 GROUP        1 X    ALC  0     ROOT ALC X 1
     2 SEC2       37 GROUP        1 X    SEC  0     **** SEC X 2
     3 GLC5        1 GROUP        1 X    GLC  0     **** GLC X 6
     4 ALP1       42 GROUP        1 Y    ALP  0     ROOT ALP Y 8
     5 SEP2       39 GROUP        1 Y    SEP  0     **** SEP Y 9
     6 GLP5        3 GROUP        1 Y    GLP  0     **** GLP Y 13
     7 ALL1       41 GROUP        1 Z    ALL  0     ROOT ALL Z 15
     8 SEL2       38 GROUP        1 Z    SEL  0     **** SEL Z 16
     9 GLL5        2 GROUP        1 Z    GLL  0     **** GLL Z 20
@<TRIPOS>SET

