#    Name: 1nhw_TCC_2_ligand
#    Modification time : Mon Mar 24 18:17:56 2014

@<TRIPOS>MOLECULE
1nhw_TCC_2_ligand
   25    26     1     0     0
SMALL
NO_CHARGES


@<TRIPOS>ATOM
      1 C12         9.9290  102.8220   23.9750 C.ar      1 TCC700      0.0000 
      2 C11         9.3640  103.8280   24.8110 C.ar      1 TCC700      0.0000 
      3 CL2         8.4340  105.1090   24.0830 Cl        1 TCC700      0.0000 
      4 C10         9.5560  103.7830   26.2530 C.ar      1 TCC700      0.0000 
      5 C9         10.3210  102.7100   26.8390 C.ar      1 TCC700      0.0000 
      6 CL1        10.5260  102.6870   28.5980 Cl        1 TCC700      0.0000 
      7 C8         10.9010  101.6720   25.9990 C.ar      1 TCC700      0.0000 
      8 N1         11.6640  100.6050   26.7020 N.pl3     1 TCC700      0.0000 
      9 C4         12.2930   99.4920   25.9890 C.ar      1 TCC700      0.0000 
     10 C5         11.5530   98.2710   25.6680 C.ar      1 TCC700      0.0000 
     11 C6         12.2040   97.1800   24.9590 C.ar      1 TCC700      0.0000 
     12 C1         13.5920   97.3010   24.5720 C.ar      1 TCC700      0.0000 
     13 C2         14.3280   98.5110   24.8910 C.ar      1 TCC700      0.0000 
     14 C3         13.6750   99.6060   25.5980 C.ar      1 TCC700      0.0000 
     15 O1         14.4050  100.7450   25.8810 O.3       1 TCC700      0.0000 
     16 C7         10.6910  101.7490   24.5450 C.ar      1 TCC700      0.0000 
     17 H           9.7933  102.8614   22.9668 H         1 TCC700      0.0000 
     18 H           9.1542  104.5005   26.8338 H         1 TCC700      0.0000 
     19 H          11.7457  100.6602   27.7148 H         1 TCC700      0.0000 
     20 H          10.5858   98.1888   25.9415 H         1 TCC700      0.0000 
     21 H          11.6861   96.3446   24.7402 H         1 TCC700      0.0000 
     22 H          14.0496   96.5487   24.0820 H         1 TCC700      0.0000 
     23 H          15.2975   98.5972   24.6229 H         1 TCC700      0.0000 
     24 H          11.0938  101.0318   23.9563 H         1 TCC700      0.0000 
     25 H          15.1339  100.7618   25.1966 H         1 TCC700      0.0000 
@<TRIPOS>BOND
     1    2    1 ar   
     2   16    1 ar   
     3   17    1 1    
     4    3    2 1    
     5    4    2 ar   
     6    5    4 ar   
     7   18    4 1    
     8    6    5 1    
     9    7    5 ar   
    10    8    7 1    
    11   16    7 ar   
    12    9    8 1    
    13   19    8 1    
    14   10    9 ar   
    15   14    9 ar   
    16   11   10 ar   
    17   20   10 1    
    18   12   11 ar   
    19   21   11 1    
    20   13   12 ar   
    21   22   12 1    
    22   14   13 ar   
    23   23   13 1    
    24   15   14 1    
    25   25   15 1    
    26   24   16 1    
@<TRIPOS>SUBSTRUCTURE
     1 TCC700      1 GROUP   
@<TRIPOS>SET

