#    Name: 4gqs_0XV_1_INTS_M
#    Modification time : Mon Mar 24 23:31:46 2014

@<TRIPOS>MOLECULE
4gqs_0XV_1_INTS_M
   44     0     3     0     0
SMALL
NO_CHARGES


@<TRIPOS>ATOM
      1 CA        -80.2400   19.5190  -39.8245 C.3       1 GLC5        0.0000 
      2 CA        -79.2720   19.3530  -41.2090 C.3       3 GLL5        0.0000 
      3 CA        -81.2080   19.6850  -38.4400 C.3       2 GLP5        0.0000 
      4 CA        -76.5585   20.4790  -41.7180 C.3       1 GLC5        0.0000 
      5 CA        -78.7470   20.4510  -42.1300 C.3       3 GLL5        0.0000 
      6 CA        -74.3700   20.5070  -41.3060 C.3       2 GLP5        0.0000 
      7 CA        -75.7155   24.3425  -45.8900 C.3       1 GLC5        0.0000 
      8 CA        -76.1970   23.6100  -44.3430 C.3       3 GLL5        0.0000 
      9 CA        -75.2340   25.0750  -47.4370 C.3       2 GLP5        0.0000 
     10 CA        -81.7720   20.9945  -45.4265 C.3       1 GLC5        0.0000 
     11 CA        -81.9400   22.1070  -43.4920 C.3       3 GLL5        0.0000 
     12 CA        -81.6040   19.8820  -47.3610 C.3       2 GLP5        0.0000 
     13 CA        -82.9300   20.3680  -45.3785 C.3       1 GLC5        0.0000 
     14 CA        -83.2640   21.8660  -43.9550 C.3       3 GLL5        0.0000 
     15 CA        -82.5960   18.8700  -46.8020 C.3       2 GLP5        0.0000 
     16 CA        -85.7955   20.7535  -44.0590 C.3       1 GLC5        0.0000 
     17 CA        -85.6720   22.5900  -44.3590 C.3       3 GLL5        0.0000 
     18 CA        -85.9190   18.9170  -43.7590 C.3       2 GLP5        0.0000 
     19 CA        -86.0205   22.8085  -42.5950 C.3       1 GLC5        0.0000 
     20 CA        -86.3690   23.0270  -40.8310 C.3       2 GLP5        0.0000 
     21 CA        -86.5295   21.7185  -46.0370 C.3       1 GLC5        0.0000 
     22 CA        -87.3870   20.8470  -47.7150 C.3       2 GLP5        0.0000 
     23 CA        -81.8960   27.2665  -41.3690 C.3       1 GLC5        0.0000 
     24 CA        -82.2450   25.7400  -42.2050 C.3       3 GLL5        0.0000 
     25 CA        -81.5470   28.7930  -40.5330 C.3       2 GLP5        0.0000 
     26 CA        -77.9085   20.2675  -44.1775 C.3       1 GLC5        0.0000 
     27 CA        -79.3970   21.1510  -43.1520 C.3       3 GLL5        0.0000 
     28 CA        -76.7450   19.7340  -45.7140 C.3       2 GLP5        0.0000 
     29 CA        -76.7200   20.9990  -44.4270 C.3       1 GLC5        0.0000 
     30 CA        -77.2650   21.8730  -42.9780 C.3       3 GLL5        0.0000 
     31 CA        -75.5325   21.3855  -42.2230 C.3       1 GLC5        0.0000 
     32 CA        -74.6540   23.8788  -42.6817 C.3       1 GLC5        0.0000 
     33 CA        -76.1250   22.6550  -43.3020 C.3       3 GLL5        0.0000 
     34 CA        -73.1470   24.6250  -41.5410 C.3       2 GLP5        0.0000 
     35 CA        -76.7733   21.7157  -45.2078 C.3       1 GLC5        0.0000 
     36 CA        -77.4060   23.7850  -45.0600 C.3       3 GLL5        0.0000 
     37 CA        -77.1337   23.8525  -46.5600 C.3       1 GLC5        0.0000 
     38 CA        -76.2910   24.3080  -48.2190 C.3       2 GLP5        0.0000 
     39 CA        -78.2676   25.1146  -44.9604 C.3       1 GLC5        0.0000 
     40 CA        -78.8610   26.8760  -45.1990 C.3       2 GLP5        0.0000 
     41 CA        -77.6273   21.1315  -44.9660 C.3       1 GLC5        0.0000 
     42 CA        -78.5470   23.0090  -44.7420 C.3       3 GLL5        0.0000 
     43 CA        -84.5318   21.1040  -42.7105 C.3       1 GLC5        0.0000 
     44 CA        -85.3050   19.8360  -41.5180 C.3       2 GLP5        0.0000 
@<TRIPOS>BOND
@<TRIPOS>SUBSTRUCTURE
     1 GLC5        1 GROUP        1 X    GLC  0     ROOT GLC X 6
     2 GLP5        3 GROUP        1 Y    GLP  0     ROOT GLP Y 13
     3 GLL5        2 GROUP        1 Z    GLL  0     ROOT GLL Z 20
@<TRIPOS>SET

