#    Name: 4gqs_0XV_1_ligand
#    Modification time : Mon Mar 24 23:31:46 2014

@<TRIPOS>MOLECULE
4gqs_0XV_1_ligand
   37    39     1     0     0
SMALL
NO_CHARGES


@<TRIPOS>ATOM
      1 CAV       -79.2720   19.3530  -41.2090 C.3       1 0XV502      0.0000 
      2 CAI       -78.7470   20.4510  -42.1300 C.2       1 0XV502      0.0000 
      3 OAH       -77.4600   20.9030  -42.0410 O.3       1 0XV502      0.0000 
      4 CAB       -77.2650   21.8730  -42.9780 C.ar      1 0XV502      0.0000 
      5 CAC       -76.1250   22.6550  -43.3020 C.ar      1 0XV502      0.0000 
      6 CAD       -76.1970   23.6100  -44.3430 C.ar      1 0XV502      0.0000 
      7 CAE       -77.4060   23.7850  -45.0600 C.ar      1 0XV502      0.0000 
      8 CAF       -78.5470   23.0090  -44.7420 C.ar      1 0XV502      0.0000 
      9 CAA       -78.4720   22.0490  -43.6940 C.ar      1 0XV502      0.0000 
     10 CAG       -79.3970   21.1510  -43.1520 C.2       1 0XV502      0.0000 
     11 CAJ       -80.8670   20.9810  -43.6200 C.2       1 0XV502      0.0000 
     12 OAK       -81.2010   19.9010  -44.1090 O.2       1 0XV502      0.0000 
     13 CAL       -81.9400   22.1070  -43.4920 C.ar      1 0XV502      0.0000 
     14 CAM       -83.2640   21.8660  -43.9550 C.ar      1 0XV502      0.0000 
     15 CAN       -84.2530   22.8780  -43.8510 C.ar      1 0XV502      0.0000 
     16 CAO       -85.6720   22.5900  -44.3590 C.3       1 0XV502      0.0000 
     17 CAP       -83.9390   24.1470  -43.2830 C.ar      1 0XV502      0.0000 
     18 OAW       -84.9000   25.1140  -43.1890 O.3       1 0XV502      0.0000 
     19 CAQ       -82.6160   24.3860  -42.8210 C.ar      1 0XV502      0.0000 
     20 CAT       -82.2450   25.7400  -42.2050 C.3       1 0XV502      0.0000 
     21 CAU       -81.6270   23.3780  -42.9230 C.ar      1 0XV502      0.0000 
     22 H         -75.2572   22.5266  -42.7838 H         1 0XV502      0.0000 
     23 H         -75.3796   24.1725  -44.5778 H         1 0XV502      0.0000 
     24 H         -77.4550   24.4763  -45.8121 H         1 0XV502      0.0000 
     25 H         -79.4135   23.1341  -45.2558 H         1 0XV502      0.0000 
     26 H         -83.5009   20.9617  -44.3629 H         1 0XV502      0.0000 
     27 H         -80.6780   23.5574  -42.5873 H         1 0XV502      0.0000 
     28 H         -78.7506   18.5053  -41.3069 H         1 0XV502      0.0000 
     29 H         -79.2204   19.6194  -40.2465 H         1 0XV502      0.0000 
     30 H         -80.2283   19.1327  -41.4013 H         1 0XV502      0.0000 
     31 H         -85.6790   22.3641  -45.3331 H         1 0XV502      0.0000 
     32 H         -86.0901   21.8202  -43.8766 H         1 0XV502      0.0000 
     33 H         -86.2772   23.3765  -44.2361 H         1 0XV502      0.0000 
     34 H         -81.2847   25.7713  -41.9278 H         1 0XV502      0.0000 
     35 H         -82.3892   26.4924  -42.8477 H         1 0XV502      0.0000 
     36 H         -82.7915   25.9403  -41.3919 H         1 0XV502      0.0000 
     37 H         -84.4202   25.9235  -42.8507 H         1 0XV502      0.0000 
@<TRIPOS>BOND
     1    2    1 1    
     2   28    1 1    
     3   29    1 1    
     4   30    1 1    
     5    3    2 1    
     6   10    2 2    
     7    4    3 1    
     8    5    4 ar   
     9    9    4 ar   
    10    6    5 ar   
    11   22    5 1    
    12    7    6 ar   
    13   23    6 1    
    14    8    7 ar   
    15   24    7 1    
    16    9    8 ar   
    17   25    8 1    
    18   10    9 1    
    19   11   10 1    
    20   12   11 2    
    21   13   11 1    
    22   14   13 ar   
    23   21   13 ar   
    24   15   14 ar   
    25   26   14 1    
    26   16   15 1    
    27   17   15 ar   
    28   31   16 1    
    29   32   16 1    
    30   33   16 1    
    31   18   17 1    
    32   19   17 ar   
    33   37   18 1    
    34   20   19 1    
    35   21   19 ar   
    36   34   20 1    
    37   35   20 1    
    38   36   20 1    
    39   27   21 1    
@<TRIPOS>SUBSTRUCTURE
     1 0XV502      1 GROUP   
@<TRIPOS>SET

