#    Name: 4fe2_ADP_8_INTS_M
#    Modification time : Mon Mar 24 19:25:48 2014

@<TRIPOS>MOLECULE
4fe2_ADP_8_INTS_M
   62     0    15     0     0
SMALL
NO_CHARGES


@<TRIPOS>ATOM
      1 Zn         -3.4965   16.9975   25.4285 Zn        4 ZIC7        0.0000 
      2 Zn         -3.5110   17.1410   24.5790 Zn       14 ZIL7        0.0000 
      3 Zn         -3.4820   16.8540   26.2780 Zn        9 ZIP7        0.0000 
      4 N          -5.6400   19.2865   22.8765 N.am      2 SEC2        0.0000 
      5 N          -4.4840   18.2800   22.6040 N.am     12 SEL2        0.0000 
      6 N          -6.7960   20.2930   23.1490 N.am      7 SEP2        0.0000 
      7 N          -6.4500   20.2980   25.5845 N.am      2 SEC2        0.0000 
      8 N          -5.0760   20.4830   25.5690 N.am     12 SEL2        0.0000 
      9 N          -7.8240   20.1130   25.6000 N.am      7 SEP2        0.0000 
     10 N          -5.9020   21.2760   26.3895 N.am      2 SEC2        0.0000 
     11 N          -6.7280   22.0690   27.2100 N.am      7 SEP2        0.0000 
     12 NZ         -3.3285   19.2730   28.1165 N.4       3 LYC4        0.0000 
     13 NZ         -3.4540   18.9380   26.6710 N.4      13 LYL4        0.0000 
     14 NZ         -3.2030   19.6080   29.5620 N.4       8 LYP4        0.0000 
     15 Zn         -3.4680   17.8960   26.4745 Zn        4 ZIC7        0.0000 
     16 Zn         -3.4540   18.9380   26.6710 Zn       14 ZIL7        0.0000 
     17 N          -3.3285   19.2730   28.1165 N.am      2 SEC2        0.0000 
     18 N          -3.4540   18.9380   26.6710 N.am     12 SEL2        0.0000 
     19 N          -3.2030   19.6080   29.5620 N.am      7 SEP2        0.0000 
     20 CA         -3.8025   22.2235   24.0030 C.3       5 GLC5        0.0000 
     21 CA         -2.1930   22.1780   25.2050 C.3      15 GLL5        0.0000 
     22 CA         -5.4120   22.2690   22.8010 C.3      10 GLP5        0.0000 
     23 CA         -1.1505   21.8230   23.2980 C.3       5 GLC5        0.0000 
     24 CA         -0.1490   20.6250   24.8470 C.3      15 GLL5        0.0000 
     25 CA         -2.1520   23.0210   21.7490 C.3      10 GLP5        0.0000 
     26 O           2.2540   18.4635   26.1635 O.2       1 ALC1        0.0000 
     27 O           2.1840   19.7520   25.5490 O.2      11 ALL1        0.0000 
     28 O           2.3240   17.1750   26.7780 O.2       6 ALP1        0.0000 
     29 N           2.4720   20.7720   30.4935 N.am      2 SEC2        0.0000 
     30 N           2.3590   22.0380   29.5010 N.am     12 SEL2        0.0000 
     31 N           2.5850   19.5060   31.4860 N.am      7 SEP2        0.0000 
     32 CA          4.2240   21.5275   28.1145 C.3       5 GLC5        0.0000 
     33 CA          3.1770   22.9990   29.0460 C.3      15 GLL5        0.0000 
     34 CA          5.2710   20.0560   27.1830 C.3      10 GLP5        0.0000 
     35 O           5.2890   24.7750   31.7125 O.2       1 ALC1        0.0000 
     36 O           4.5100   23.8980   30.9670 O.2      11 ALL1        0.0000 
     37 O           6.0680   25.6520   32.4580 O.2       6 ALP1        0.0000 
     38 N           6.3055   25.0845   29.0705 N.am      2 SEC2        0.0000 
     39 N           4.8120   24.7550   28.7800 N.am     12 SEL2        0.0000 
     40 N           7.7990   25.4140   29.3610 N.am      7 SEP2        0.0000 
     41 CA          2.9675   25.7660   27.0310 C.3       5 GLC5        0.0000 
     42 CA          4.5370   24.8540   27.4820 C.3      15 GLL5        0.0000 
     43 CA          1.3980   26.6780   26.5800 C.3      10 GLP5        0.0000 
     44 CA          5.9100   23.6125   28.3880 C.3       5 GLC5        0.0000 
     45 CA          7.2830   22.3710   29.2940 C.3      10 GLP5        0.0000 
     46 CA          2.1580   24.9035   27.0870 C.3       5 GLC5        0.0000 
     47 CA          2.9180   23.1290   27.5940 C.3      15 GLL5        0.0000 
     48 CA          4.1295   21.9210   26.7070 C.3       5 GLC5        0.0000 
     49 CA          5.3410   20.7130   25.8200 C.3      10 GLP5        0.0000 
     50 CA         -1.6250   23.1750   23.7270 C.3       5 GLC5        0.0000 
     51 CA         -0.6870   22.0560   24.9810 C.3      15 GLL5        0.0000 
     52 CA         -1.8100   24.2330   22.3610 C.3      10 GLP5        0.0000 
     53 CA         -1.3075   23.9470   26.2740 C.3       5 GLC5        0.0000 
     54 CA         -1.1750   25.7770   27.4550 C.3      10 GLP5        0.0000 
     55 CA          3.2527   20.9905   25.8835 C.3       5 GLC5        0.0000 
     56 CA          1.3330   22.0050   26.0400 C.3      15 GLL5        0.0000 
     57 CA          3.4668   23.0517   31.3758 C.3       5 GLC5        0.0000 
     58 CA          3.2440   22.6480   33.4170 C.3      10 GLP5        0.0000 
     59 CA          5.4863   22.9132   29.3143 C.3       5 GLC5        0.0000 
     60 CA          4.2020   23.9120   29.6230 C.3      15 GLL5        0.0000 
     61 CA          4.5198   21.8187   30.5023 C.3       5 GLC5        0.0000 
     62 CA          5.3500   20.1820   31.6700 C.3      10 GLP5        0.0000 
@<TRIPOS>BOND
@<TRIPOS>SUBSTRUCTURE
     1 ALC1       26 GROUP        1 X    ALC  0     ROOT ALC X 1
     2 SEC2        4 GROUP        1 X    SEC  0     **** SEC X 2
     3 LYC4       12 GROUP        1 X    LYC  0     **** LYC X 4
     4 ZIC7        1 GROUP        1 X    ZIC  0     **** ZIC X 5
     5 GLC5       20 GROUP        1 X    GLC  0     **** GLC X 6
     6 ALP1       28 GROUP        1 Y    ALP  0     ROOT ALP Y 8
     7 SEP2        6 GROUP        1 Y    SEP  0     **** SEP Y 9
     8 LYP4       14 GROUP        1 Y    LYP  0     **** LYP Y 11
     9 ZIP7        3 GROUP        1 Y    ZIP  0     **** ZIP Y 12
    10 GLP5       22 GROUP        1 Y    GLP  0     **** GLP Y 13
    11 ALL1       27 GROUP        1 Z    ALL  0     ROOT ALL Z 15
    12 SEL2        5 GROUP        1 Z    SEL  0     **** SEL Z 16
    13 LYL4       13 GROUP        1 Z    LYL  0     **** LYL Z 18
    14 ZIL7        2 GROUP        1 Z    ZIL  0     **** ZIL Z 19
    15 GLL5       21 GROUP        1 Z    GLL  0     **** GLL Z 20
@<TRIPOS>SET

