#    Name: 4fe2_ADP_8_ligand
#    Modification time : Mon Mar 24 19:25:48 2014

@<TRIPOS>MOLECULE
4fe2_ADP_8_ligand
   39    41     1     0     0
SMALL
NO_CHARGES


@<TRIPOS>ATOM
      1 PB         -3.2640   18.1650   23.4860 P.3       1 ADP302      0.0000 
      2 O1B        -3.5110   17.1410   24.5790 O.co2     1 ADP302      0.0000 
      3 O2B        -4.4840   18.2800   22.6040 O.co2     1 ADP302      0.0000 
      4 O3B        -1.9090   18.0390   22.8180 O.co2     1 ADP302      0.0000 
      5 PA         -3.6490   20.0080   25.6570 P.3       1 ADP302      0.0000 
      6 O1A        -5.0760   20.4830   25.5690 O.co2     1 ADP302      0.0000 
      7 O2A        -3.4540   18.9380   26.6710 O.co2     1 ADP302      0.0000 
      8 O3A        -3.1010   19.6540   24.1830 O.3       1 ADP302      0.0000 
      9 O5'        -2.6280   21.1620   26.1160 O.3       1 ADP302      0.0000 
     10 C5'        -2.1930   22.1780   25.2050 C.3       1 ADP302      0.0000 
     11 C4'        -0.6870   22.0560   24.9810 C.3       1 ADP302      0.0000 
     12 O4'         0.0450   22.6820   26.0320 O.3       1 ADP302      0.0000 
     13 C3'        -0.1490   20.6250   24.8470 C.3       1 ADP302      0.0000 
     14 O3'         0.3620   20.6910   23.5360 O.3       1 ADP302      0.0000 
     15 C2'         0.9960   20.5310   25.8540 C.3       1 ADP302      0.0000 
     16 O2'         2.1840   19.7520   25.5490 O.3       1 ADP302      0.0000 
     17 C1'         1.3330   22.0050   26.0400 C.3       1 ADP302      0.0000 
     18 N9          1.9610   22.2280   27.3340 N.pl3     1 ADP302      0.0000 
     19 C8          1.6180   21.5720   28.4620 C.2       1 ADP302      0.0000 
     20 N7          2.3590   22.0380   29.5010 N.2       1 ADP302      0.0000 
     21 C5          3.1770   22.9990   29.0460 C.ar      1 ADP302      0.0000 
     22 C6          4.2020   23.9120   29.6230 C.ar      1 ADP302      0.0000 
     23 N6          4.5100   23.8980   30.9670 N.pl3     1 ADP302      0.0000 
     24 N1          4.8120   24.7550   28.7800 N.ar      1 ADP302      0.0000 
     25 C2          4.5370   24.8540   27.4820 C.ar      1 ADP302      0.0000 
     26 N3          3.6240   24.0790   26.8780 N.ar      1 ADP302      0.0000 
     27 C4          2.9180   23.1290   27.5940 C.ar      1 ADP302      0.0000 
     28 H          -2.3943   23.1823   25.5927 H         1 ADP302      0.0000 
     29 H          -2.6856   22.0862   24.2312 H         1 ADP302      0.0000 
     30 H          -0.4450   22.5719   24.0293 H         1 ADP302      0.0000 
     31 H          -0.8811   19.9623   25.0087 H         1 ADP302      0.0000 
     32 H           0.5428   20.2301   26.8148 H         1 ADP302      0.0000 
     33 H           1.9310   22.3272   25.2392 H         1 ADP302      0.0000 
     34 H           0.9462   20.8740   28.5268 H         1 ADP302      0.0000 
     35 H           3.9907   23.2557   31.5308 H         1 ADP302      0.0000 
     36 H           5.2258   24.5314   31.2610 H         1 ADP302      0.0000 
     37 H           5.0582   25.5732   26.8974 H         1 ADP302      0.0000 
     38 H           1.3313   20.4615   23.6243 H         1 ADP302      0.0000 
     39 H           2.0552   18.8848   26.0300 H         1 ADP302      0.0000 
@<TRIPOS>BOND
     1    2    1 ar   
     2    3    1 ar   
     3    4    1 ar   
     4    8    1 1    
     5    6    5 ar   
     6    7    5 ar   
     7    8    5 1    
     8    9    5 1    
     9   10    9 1    
    10   11   10 1    
    11   28   10 1    
    12   29   10 1    
    13   12   11 1    
    14   13   11 1    
    15   30   11 1    
    16   17   12 1    
    17   14   13 1    
    18   15   13 1    
    19   31   13 1    
    20   38   14 1    
    21   16   15 1    
    22   17   15 1    
    23   32   15 1    
    24   39   16 1    
    25   18   17 1    
    26   33   17 1    
    27   19   18 1    
    28   27   18 1    
    29   20   19 2    
    30   34   19 1    
    31   21   20 1    
    32   22   21 ar   
    33   27   21 ar   
    34   23   22 1    
    35   24   22 ar   
    36   35   23 1    
    37   36   23 1    
    38   25   24 ar   
    39   26   25 ar   
    40   37   25 1    
    41   27   26 ar   
@<TRIPOS>SUBSTRUCTURE
     1 ADP302      1 GROUP   
@<TRIPOS>SET

