#    Name: 2ZYU_1_CAVITY_N1_ALL.mol2
#    Modification time : Tue Mar 11 06:44:33 2014

@<TRIPOS>MOLECULE
2ZYU_1_CAVITY_N1_ALL.mol2
   83     0     6     0     0
SMALL
NO_CHARGES


@<TRIPOS>ATOM
      1 CA        -28.4217  -29.4002   30.1631 C.3       5 GLY6        0.0000 
      2 CA        -27.2212  -30.1789   29.7131 C.3       5 GLY6        0.0000 
      3 CA        -30.4102  -29.8941   30.7129 C.3       5 GLY6        0.0000 
      4 O         -29.2097  -30.6727   30.2630 O.2       2 ALA2        0.0000 
      5 CA        -28.0091  -31.4514   29.8131 C.3       5 GLY6        0.0000 
      6 CA        -31.6689  -25.6354   29.9855 C.3       5 GLY6        0.0000 
      7 DU        -30.4684  -26.4140   29.5356 H         6 CUB7        0.0000 
      8 DU        -29.2679  -27.1927   29.0856 H         6 CUB7        0.0000 
      9 OD1       -28.0674  -27.9714   28.6357 O.3       3 ASP3        0.0000 
     10 CA        -32.4568  -26.9079   30.0854 C.3       5 GLY6        0.0000 
     11 CA        -31.2563  -27.6865   29.6355 C.3       5 GLY6        0.0000 
     12 O         -30.0558  -28.4652   29.1856 O.2       2 ALA2        0.0000 
     13 CA        -28.8553  -29.2439   28.7356 C.3       5 GLY6        0.0000 
     14 CA        -27.6548  -30.0225   28.2857 C.3       5 GLY6        0.0000 
     15 N         -30.1140  -24.9852   28.0082 N.2       2 ALA2        0.0000 
     16 N         -28.9135  -25.7639   27.5583 N.2       2 ALA2        0.0000 
     17 CA        -32.1025  -25.4790   28.5581 C.3       5 GLY6        0.0000 
     18 CA        -30.9020  -26.2577   28.1081 C.3       5 GLY6        0.0000 
     19 OD1       -29.7014  -27.0363   27.6582 O.3       3 ASP3        0.0000 
     20 OD1       -28.5009  -27.8150   27.2083 O.3       3 ASP3        0.0000 
     21 CA        -32.8904  -26.7515   28.6580 C.3       5 GLY6        0.0000 
     22 CA        -31.6899  -27.5302   28.2080 C.3       5 GLY6        0.0000 
     23 O         -30.4893  -28.3088   27.7581 O.2       2 ALA2        0.0000 
     24 CA        -29.2888  -29.0875   27.3082 C.3       5 GLY6        0.0000 
     25 CA        -28.0883  -29.8662   26.8583 C.3       5 GLY6        0.0000 
     26 CZ        -31.3355  -26.1013   26.6807 C.ar      4 PHE5        0.0000 
     27 CZ        -30.1350  -26.8800   26.2308 C.ar      4 PHE5        0.0000 
     28 CZ        -28.9345  -27.6586   25.7808 C.ar      4 PHE5        0.0000 
     29 CZ        -32.1234  -27.3738   26.7806 C.ar      4 PHE5        0.0000 
     30 CZ        -30.9229  -28.1525   26.3307 C.ar      4 PHE5        0.0000 
     31 CZ        -29.7224  -28.9311   25.8807 C.ar      4 PHE5        0.0000 
     32 N         -28.5219  -29.7098   25.4308 N.2       2 ALA2        0.0000 
     33 O         -30.5103  -30.2036   25.9807 O.2       2 ALA2        0.0000 
     34 CZ        -29.7433  -30.8259   24.1033 C.ar      4 PHE5        0.0000 
     35 CZ        -28.5428  -31.6046   23.6534 C.ar      4 PHE5        0.0000 
     36 CA        -27.3423  -32.3833   23.2034 C.3       5 GLY6        0.0000 
     37 O         -24.9413  -33.9406   22.3036 O.2       2 ALA2        0.0000 
     38 CZ        -30.5312  -32.0984   24.2032 C.ar      4 PHE5        0.0000 
     39 CZ        -29.3307  -32.8771   23.7533 C.ar      4 PHE5        0.0000 
     40 CZ        -28.1302  -33.6557   23.3034 C.ar      4 PHE5        0.0000 
     41 O         -25.7292  -35.2131   22.4035 O.2       2 ALA2        0.0000 
     42 CA        -30.1186  -34.1496   23.8532 C.3       5 GLY6        0.0000 
     43 CZ        -28.9763  -31.4482   22.2259 C.ar      4 PHE5        0.0000 
     44 OG        -27.7758  -32.2269   21.7760 O.2       1 SER1        0.0000 
     45 OG        -26.5753  -33.0056   21.3261 O.2       1 SER1        0.0000 
     46 O         -25.3748  -33.7842   20.8762 O.2       2 ALA2        0.0000 
     47 OG        -24.1743  -34.5629   20.4262 O.2       1 SER1        0.0000 
     48 CA        -30.9648  -31.9420   22.7758 C.3       5 GLY6        0.0000 
     49 CA        -29.7643  -32.7207   22.3258 C.3       5 GLY6        0.0000 
     50 CA        -28.5637  -33.4994   21.8759 C.3       5 GLY6        0.0000 
     51 DU        -27.3632  -34.2780   21.4260 H         6 CUB7        0.0000 
     52 N         -26.1627  -35.0567   20.9761 N.2       2 ALA2        0.0000 
     53 N         -24.9622  -35.8354   20.5261 N.2       2 ALA2        0.0000 
     54 CA        -30.5522  -33.9932   22.4257 C.3       5 GLY6        0.0000 
     55 CA        -29.3517  -34.7719   21.9758 C.3       5 GLY6        0.0000 
     56 CA        -28.1511  -35.5505   21.5259 C.3       5 GLY6        0.0000 
     57 CZ        -29.4099  -31.2918   20.7985 C.ar      4 PHE5        0.0000 
     58 CZ        -28.2094  -32.0705   20.3486 C.ar      4 PHE5        0.0000 
     59 CZ        -27.0089  -32.8492   19.8986 C.ar      4 PHE5        0.0000 
     60 O         -25.8083  -33.6279   19.4487 O.2       2 ALA2        0.0000 
     61 CA        -30.1978  -32.5643   20.8984 C.3       5 GLY6        0.0000 
     62 DU        -28.9973  -33.3430   20.4485 H         6 CUB7        0.0000 
     63 DU        -27.7968  -34.1217   19.9985 H         6 CUB7        0.0000 
     64 DU        -26.5963  -34.9004   19.5486 H         6 CUB7        0.0000 
     65 OG        -25.3957  -35.6790   19.0987 O.2       1 SER1        0.0000 
     66 O         -30.9857  -33.8368   20.9983 O.2       2 ALA2        0.0000 
     67 CA        -29.7852  -34.6155   20.5484 C.3       5 GLY6        0.0000 
     68 CZ        -28.5847  -35.3942   20.0985 C.ar      4 PHE5        0.0000 
     69 N         -27.3842  -36.1728   19.6485 N.2       2 ALA2        0.0000 
     70 N         -26.1837  -36.9515   19.1986 N.2       2 ALA2        0.0000 
     71 O         -27.4424  -32.6928   18.4712 O.2       2 ALA2        0.0000 
     72 N         -26.2419  -33.4715   18.0213 N.2       2 ALA2        0.0000 
     73 CA        -29.4308  -33.1866   19.0210 C.3       5 GLY6        0.0000 
     74 O         -28.2303  -33.9653   18.5711 O.2       2 ALA2        0.0000 
     75 CA        -27.0298  -34.7440   18.1212 C.3       5 GLY6        0.0000 
     76 CA        -30.2187  -34.4591   19.1209 C.3       5 GLY6        0.0000 
     77 CZ        -29.0182  -35.2378   18.6710 C.ar      4 PHE5        0.0000 
     78 CZ        -27.8177  -36.0165   18.2211 C.ar      4 PHE5        0.0000 
     79 O         -28.6639  -33.8089   17.1437 O.2       2 ALA2        0.0000 
     80 CA        -27.4633  -34.5876   16.6937 C.3       5 GLY6        0.0000 
     81 OG        -29.4518  -35.0814   17.2436 O.2       1 SER1        0.0000 
     82 OD1       -28.2513  -35.8601   16.7937 O.3       3 ASP3        0.0000 
     83 O         -28.6848  -35.7037   15.3662 O.2       2 ALA2        0.0000 
@<TRIPOS>BOND
@<TRIPOS>SUBSTRUCTURE
     1 SER1       44 GROUP   
     2 ALA2        4 GROUP   
     3 ASP3        9 GROUP   
     4 PHE5       26 GROUP   
     5 GLY6        1 GROUP   
     6 CUB7        7 GROUP   
@<TRIPOS>SET

