#    Name: 2zyu_PPS_1_INTS_M
#    Modification time : Tue Mar 25 11:19:13 2014

@<TRIPOS>MOLECULE
2zyu_PPS_1_INTS_M
   99     0    12     0     0
SMALL
NO_CHARGES


@<TRIPOS>ATOM
      1 NZ        -31.5040  -37.5605   13.7310 N.4       3 LYC4        0.0000 
      2 NZ        -30.4900  -36.5910   14.4870 N.4      11 LYL4        0.0000 
      3 NZ        -32.5180  -38.5300   12.9750 N.4       7 LYP4        0.0000 
      4 N         -31.5040  -37.5605   13.7310 N.am      2 SEC2        0.0000 
      5 N         -30.4900  -36.5910   14.4870 N.am     10 SEL2        0.0000 
      6 N         -32.5180  -38.5300   12.9750 N.am      6 SEP2        0.0000 
      7 N         -27.3300  -35.3610   13.3640 N.am      2 SEC2        0.0000 
      8 N         -28.4050  -36.2310   13.2260 N.am     10 SEL2        0.0000 
      9 N         -26.2550  -34.4910   13.5020 N.am      6 SEP2        0.0000 
     10 NZ        -27.4790  -38.2415   15.3980 N.4       3 LYC4        0.0000 
     11 NZ        -28.7090  -38.2490   14.4680 N.4      11 LYL4        0.0000 
     12 NZ        -26.2490  -38.2340   16.3280 N.4       7 LYP4        0.0000 
     13 N         -27.4790  -38.2415   15.3980 N.am      2 SEC2        0.0000 
     14 N         -28.7090  -38.2490   14.4680 N.am     10 SEL2        0.0000 
     15 N         -26.2490  -38.2340   16.3280 N.am      6 SEP2        0.0000 
     16 N         -27.3180  -37.2370   16.0650 N.am      2 SEC2        0.0000 
     17 N         -28.3870  -36.2400   15.8020 N.am     10 SEL2        0.0000 
     18 N         -31.3775  -34.5080   17.2250 N.am      2 SEC2        0.0000 
     19 N         -30.0570  -35.0060   17.3410 N.am     10 SEL2        0.0000 
     20 N         -32.6980  -34.0100   17.1090 N.am      6 SEP2        0.0000 
     21 N         -31.1080  -35.8230   17.5450 N.am      2 SEC2        0.0000 
     22 N         -32.1590  -36.6400   17.7490 N.am      6 SEP2        0.0000 
     23 N         -28.7775  -32.4960   15.6770 N.am      2 SEC2        0.0000 
     24 N         -28.9160  -33.8740   15.2330 N.am     10 SEL2        0.0000 
     25 N         -28.6390  -31.1180   16.1210 N.am      6 SEP2        0.0000 
     26 N         -29.9820  -33.0115   15.4745 N.am      2 SEC2        0.0000 
     27 N         -31.0480  -32.1490   15.7160 N.am      6 SEP2        0.0000 
     28 N         -29.8390  -33.6795   14.3340 N.am      2 SEC2        0.0000 
     29 N         -30.7620  -33.4850   13.4350 N.am      6 SEP2        0.0000 
     30 CA        -26.2450  -36.3140   17.2715 C.3       4 GLC5        0.0000 
     31 CA        -27.3810  -35.3320   18.4100 C.3      12 GLL5        0.0000 
     32 CA        -25.1090  -37.2960   16.1330 C.3       8 GLP5        0.0000 
     33 CA        -28.5990  -36.8615   18.7455 C.3       4 GLC5        0.0000 
     34 CA        -29.8170  -38.3910   19.0810 C.3       8 GLP5        0.0000 
     35 CA        -26.0895  -34.2640   16.9980 C.3       4 GLC5        0.0000 
     36 CA        -26.5420  -34.3450   19.1850 C.3      12 GLL5        0.0000 
     37 CA        -25.6370  -34.1830   14.8110 C.3       8 GLP5        0.0000 
     38 CA        -27.1355  -31.4940   20.7390 C.3       4 GLC5        0.0000 
     39 CA        -27.2660  -33.4590   21.1890 C.3      12 GLL5        0.0000 
     40 CA        -27.0050  -29.5290   20.2890 C.3       8 GLP5        0.0000 
     41 CA        -26.9885  -32.3060   23.7055 C.3       4 GLC5        0.0000 
     42 CA        -28.7900  -32.3030   22.7110 C.3      12 GLL5        0.0000 
     43 CA        -25.1870  -32.3090   24.7000 C.3       8 GLP5        0.0000 
     44 N         -26.9225  -30.6790   22.7385 N.am      2 SEC2        0.0000 
     45 N         -28.0620  -31.2640   23.1940 N.am     10 SEL2        0.0000 
     46 N         -25.7830  -30.0940   22.2830 N.am      6 SEP2        0.0000 
     47 CA        -27.5470  -28.6745   24.3815 C.3       4 GLC5        0.0000 
     48 CA        -28.5760  -30.4160   24.0990 C.3      12 GLL5        0.0000 
     49 CA        -26.5180  -26.9330   24.6640 C.3       8 GLP5        0.0000 
     50 CA        -28.8575  -31.2525   25.8460 C.3       4 GLC5        0.0000 
     51 CA        -29.1390  -32.0890   27.5930 C.3       8 GLP5        0.0000 
     52 CA        -26.8815  -31.3625   24.3995 C.3       4 GLC5        0.0000 
     53 CA        -30.6305  -32.0160   25.9510 C.3       4 GLC5        0.0000 
     54 CA        -30.6660  -31.5280   24.1340 C.3      12 GLL5        0.0000 
     55 CA        -30.5950  -32.5040   27.7680 C.3       8 GLP5        0.0000 
     56 CA        -32.6230  -32.4575   24.1695 C.3       4 GLC5        0.0000 
     57 CA        -34.5800  -33.3870   24.2050 C.3       8 GLP5        0.0000 
     58 O         -33.0520  -31.0125   25.1885 O.2       1 ALC1        0.0000 
     59 O         -31.9250  -31.6350   24.6010 O.2       9 ALL1        0.0000 
     60 O         -34.1790  -30.3900   25.7760 O.2       5 ALP1        0.0000 
     61 CA        -30.1210  -34.6205   23.3085 C.3       4 GLC5        0.0000 
     62 CA        -30.1700  -32.4940   23.1480 C.3      12 GLL5        0.0000 
     63 CA        -30.0720  -36.7470   23.4690 C.3       8 GLP5        0.0000 
     64 CA        -27.0500  -34.8990   23.6525 C.3       4 GLC5        0.0000 
     65 CA        -26.7420  -34.8670   21.4400 C.3      12 GLL5        0.0000 
     66 CA        -27.3580  -34.9310   25.8650 C.3       8 GLP5        0.0000 
     67 CA        -28.4070  -35.8070   22.4545 C.3       4 GLC5        0.0000 
     68 N         -25.5725  -36.4490   23.3575 N.am      2 SEC2        0.0000 
     69 N         -26.1290  -35.0390   22.7240 N.am     10 SEL2        0.0000 
     70 N         -25.0160  -37.8590   23.9910 N.am      6 SEP2        0.0000 
     71 N         -24.2970  -33.0035   19.5015 N.am      2 SEC2        0.0000 
     72 N         -24.6810  -34.1110   20.5020 N.am     10 SEL2        0.0000 
     73 N         -23.9130  -31.8960   18.5010 N.am      6 SEP2        0.0000 
     74 NZ        -21.7715  -36.4030   20.9805 N.4       3 LYC4        0.0000 
     75 NZ        -22.9180  -35.8890   20.4340 N.4      11 LYL4        0.0000 
     76 NZ        -19.6370  -36.0780   21.8060 N.4       7 LYP4        0.0000 
     77 N         -22.9450  -35.6930   19.1415 N.am      2 SEC2        0.0000 
     78 N         -22.9180  -35.8890   20.4340 N.am     10 SEL2        0.0000 
     79 N         -22.9720  -35.4970   17.8490 N.am      6 SEP2        0.0000 
     80 N         -21.7715  -36.4030   20.9805 N.am      2 SEC2        0.0000 
     81 N         -20.6250  -36.9170   21.5270 N.am      6 SEP2        0.0000 
     82 N         -23.4000  -35.3665   23.8285 N.am      2 SEC2        0.0000 
     83 N         -23.7050  -34.8560   22.6030 N.am     10 SEL2        0.0000 
     84 N         -23.0950  -35.8770   25.0540 N.am      6 SEP2        0.0000 
     85 N         -23.9600  -34.1195   23.7235 N.am      2 SEC2        0.0000 
     86 N         -24.2150  -33.3830   24.8440 N.am      6 SEP2        0.0000 
     87 NZ        -22.6900  -32.1605   20.6600 N.4       3 LYC4        0.0000 
     88 NZ        -22.3730  -33.4610   20.9900 N.4      11 LYL4        0.0000 
     89 NZ        -23.4600  -30.7980   19.0920 N.4       7 LYP4        0.0000 
     90 NZ        -21.0465  -34.1375   21.2085 N.4       3 LYC4        0.0000 
     91 N         -23.1430  -32.6785   19.7455 N.am      2 SEC2        0.0000 
     92 N         -22.3730  -33.4610   20.9900 N.am     10 SEL2        0.0000 
     93 N         -22.6900  -32.1605   20.6600 N.am      2 SEC2        0.0000 
     94 N         -23.0070  -30.8600   20.3300 N.am      6 SEP2        0.0000 
     95 N         -21.0465  -34.1375   21.2085 N.am      2 SEC2        0.0000 
     96 N         -19.7200  -34.8140   21.4270 N.am      6 SEP2        0.0000 
     97 CA        -26.0955  -33.2360   23.0072 C.3       4 GLC5        0.0000 
     98 CA        -31.2310  -31.3926   22.0559 C.3       4 GLC5        0.0000 
     99 CA        -32.3890  -30.8220   20.5800 C.3       8 GLP5        0.0000 
@<TRIPOS>BOND
@<TRIPOS>SUBSTRUCTURE
     1 ALC1       58 GROUP        1 X    ALC  0     ROOT ALC X 1
     2 SEC2        4 GROUP        1 X    SEC  0     **** SEC X 2
     3 LYC4        1 GROUP        1 X    LYC  0     **** LYC X 4
     4 GLC5       30 GROUP        1 X    GLC  0     **** GLC X 6
     5 ALP1       60 GROUP        1 Y    ALP  0     ROOT ALP Y 8
     6 SEP2        6 GROUP        1 Y    SEP  0     **** SEP Y 9
     7 LYP4        3 GROUP        1 Y    LYP  0     **** LYP Y 11
     8 GLP5       32 GROUP        1 Y    GLP  0     **** GLP Y 13
     9 ALL1       59 GROUP        1 Z    ALL  0     ROOT ALL Z 15
    10 SEL2        5 GROUP        1 Z    SEL  0     **** SEL Z 16
    11 LYL4        2 GROUP        1 Z    LYL  0     **** LYL Z 18
    12 GLL5       31 GROUP        1 Z    GLL  0     **** GLL Z 20
@<TRIPOS>SET

