#    Name: 2zyu_PPS_1_ligand
#    Modification time : Tue Mar 25 11:19:13 2014

@<TRIPOS>MOLECULE
2zyu_PPS_1_ligand
   42    44     1     0     0
SMALL
NO_CHARGES


@<TRIPOS>ATOM
      1 S2        -29.0280  -36.7950   14.4250 S.o2      1 PPS501      0.0000 
      2 OS1       -30.4900  -36.5910   14.4870 O.co2     1 PPS501      0.0000 
      3 OS2       -28.4050  -36.2310   13.2260 O.co2     1 PPS501      0.0000 
      4 OS3       -28.7090  -38.2490   14.4680 O.co2     1 PPS501      0.0000 
      5 O6P       -28.3870  -36.2400   15.8020 O.3       1 PPS501      0.0000 
      6 P2        -28.9050  -34.8560   16.3840 P.3       1 PPS501      0.0000 
      7 O4P       -30.0570  -35.0060   17.3410 O.co2     1 PPS501      0.0000 
      8 O5P       -28.9160  -33.8740   15.2330 O.co2     1 PPS501      0.0000 
      9 O5'       -27.6750  -34.4890   17.3200 O.3       1 PPS501      0.0000 
     10 C5'       -27.3810  -35.3320   18.4100 C.3       1 PPS501      0.0000 
     11 C4'       -26.5420  -34.3450   19.1850 C.3       1 PPS501      0.0000 
     12 O4'       -27.4230  -33.3910   19.7810 O.3       1 PPS501      0.0000 
     13 C1'       -27.2660  -33.4590   21.1890 C.3       1 PPS501      0.0000 
     14 N9        -28.5560  -33.2810   21.8600 N.pl3     1 PPS501      0.0000 
     15 C4        -28.7900  -32.3030   22.7110 C.ar      1 PPS501      0.0000 
     16 N3        -28.0620  -31.2640   23.1940 N.ar      1 PPS501      0.0000 
     17 C2        -28.5760  -30.4160   24.0990 C.ar      1 PPS501      0.0000 
     18 N1        -29.8400  -30.5210   24.5450 N.ar      1 PPS501      0.0000 
     19 C6        -30.6660  -31.5280   24.1340 C.ar      1 PPS501      0.0000 
     20 N6        -31.9250  -31.6350   24.6010 N.pl3     1 PPS501      0.0000 
     21 C5        -30.1700  -32.4940   23.1480 C.ar      1 PPS501      0.0000 
     22 N7        -30.6500  -33.5770   22.5300 N.2       1 PPS501      0.0000 
     23 C8        -29.6600  -34.0430   21.7290 C.2       1 PPS501      0.0000 
     24 C2'       -26.7420  -34.8670   21.4400 C.3       1 PPS501      0.0000 
     25 O2'       -26.1290  -35.0390   22.7240 O.3       1 PPS501      0.0000 
     26 C3'       -25.7640  -35.0020   20.3030 C.3       1 PPS501      0.0000 
     27 O3'       -24.6810  -34.1110   20.5020 O.3       1 PPS501      0.0000 
     28 P1        -23.3090  -34.6270   21.1570 P.3       1 PPS501      0.0000 
     29 O1P       -22.9180  -35.8890   20.4340 O.co2     1 PPS501      0.0000 
     30 O2P       -23.7050  -34.8560   22.6030 O.co2     1 PPS501      0.0000 
     31 O3P       -22.3730  -33.4610   20.9900 O.co2     1 PPS501      0.0000 
     32 H         -26.7789  -36.1533   18.1440 H         1 PPS501      0.0000 
     33 H         -28.2304  -35.5769   18.9813 H         1 PPS501      0.0000 
     34 H         -25.8570  -33.8604   18.5182 H         1 PPS501      0.0000 
     35 H         -26.5420  -32.7701   21.5380 H         1 PPS501      0.0000 
     36 H         -27.9649  -29.6365   24.4754 H         1 PPS501      0.0000 
     37 H         -32.2144  -30.9324   25.2511 H         1 PPS501      0.0000 
     38 H         -32.4581  -32.4075   24.2559 H         1 PPS501      0.0000 
     39 H         -29.7401  -34.8199   21.1428 H         1 PPS501      0.0000 
     40 H         -27.5507  -35.5452   21.2514 H         1 PPS501      0.0000 
     41 H         -25.5484  -35.9482   20.0813 H         1 PPS501      0.0000 
     42 H         -25.2753  -34.5207   22.6746 H         1 PPS501      0.0000 
@<TRIPOS>BOND
     1    2    1 ar   
     2    3    1 ar   
     3    4    1 ar   
     4    5    1 1    
     5    6    5 1    
     6    7    6 ar   
     7    8    6 ar   
     8    9    6 1    
     9   10    9 1    
    10   11   10 1    
    11   32   10 1    
    12   33   10 1    
    13   12   11 1    
    14   26   11 1    
    15   34   11 1    
    16   13   12 1    
    17   14   13 1    
    18   24   13 1    
    19   35   13 1    
    20   15   14 1    
    21   23   14 1    
    22   16   15 ar   
    23   21   15 ar   
    24   17   16 ar   
    25   18   17 ar   
    26   36   17 1    
    27   19   18 ar   
    28   20   19 1    
    29   21   19 ar   
    30   37   20 1    
    31   38   20 1    
    32   22   21 1    
    33   23   22 2    
    34   39   23 1    
    35   25   24 1    
    36   26   24 1    
    37   40   24 1    
    38   42   25 1    
    39   27   26 1    
    40   41   26 1    
    41   28   27 1    
    42   29   28 ar   
    43   30   28 ar   
    44   31   28 ar   
@<TRIPOS>SUBSTRUCTURE
     1 PPS501      1 GROUP   
@<TRIPOS>SET

