#    Name: 3kr4_BES_4_INTS_M
#    Modification time : Mon Mar 24 20:14:03 2014

@<TRIPOS>MOLECULE
3kr4_BES_4_INTS_M
   44     0    12     0     0
SMALL
NO_CHARGES


@<TRIPOS>ATOM
      1 Zn         73.1595   39.9720   23.8080 Zn        3 ZIC7        0.0000 
      2 Zn         72.8380   41.1130   23.7250 Zn       11 ZIL7        0.0000 
      3 Zn         73.4810   38.8310   23.8910 Zn        7 ZIP7        0.0000 
      4 CA         72.0805   43.1355   19.9825 C.3       4 GLC5        0.0000 
      5 CA         72.6200   42.8130   21.9510 C.3      12 GLL5        0.0000 
      6 CA         71.5410   43.4580   18.0140 C.3       8 GLP5        0.0000 
      7 CA         71.1665   48.4480   23.0415 C.3       4 GLC5        0.0000 
      8 CA         72.1060   46.6300   23.9140 C.3      12 GLL5        0.0000 
      9 CA         70.2270   50.2660   22.1690 C.3       8 GLP5        0.0000 
     10 Zn         74.1010   39.2400   22.9990 Zn        3 ZIC7        0.0000 
     11 Zn         74.7210   39.6490   22.1070 Zn       11 ZIL7        0.0000 
     12 Zn         75.5890   39.5495   22.6020 Zn        3 ZIC7        0.0000 
     13 Zn         76.4570   39.4500   23.0970 Zn        7 ZIP7        0.0000 
     14 N          76.5590   42.5235   23.0415 N.am      2 SEC2        0.0000 
     15 N          76.1140   42.1160   21.6380 N.am     10 SEL2        0.0000 
     16 N          77.0040   42.9310   24.4450 N.am      6 SEP2        0.0000 
     17 O          73.7130   41.2825   19.2810 O.2       1 ALC1        0.0000 
     18 O          75.2280   41.6130   19.5970 O.2       9 ALL1        0.0000 
     19 O          72.1980   40.9520   18.9650 O.2       5 ALP1        0.0000 
     20 CA         78.3605   39.7430   17.1285 C.3       4 GLC5        0.0000 
     21 CA         78.7840   41.8580   17.0140 C.3      12 GLL5        0.0000 
     22 CA         77.9370   37.6280   17.2430 C.3       8 GLP5        0.0000 
     23 CA         78.1230   40.0830   14.5845 C.3       4 GLC5        0.0000 
     24 CA         77.0990   41.8040   15.1000 C.3      12 GLL5        0.0000 
     25 CA         79.1470   38.3620   14.0690 C.3       8 GLP5        0.0000 
     26 CA         75.9930   43.0020   14.0450 C.3       4 GLC5        0.0000 
     27 CA         74.8870   44.2000   12.9900 C.3       8 GLP5        0.0000 
     28 N          73.6360   44.8145   18.8890 N.am      2 SEC2        0.0000 
     29 N          74.8290   44.2370   18.6030 N.am     10 SEL2        0.0000 
     30 N          72.4430   45.3920   19.1750 N.am      6 SEP2        0.0000 
     31 CA         73.3762   44.6058   24.5945 C.3       4 GLC5        0.0000 
     32 CA         73.4740   45.1020   22.6290 C.3      12 GLL5        0.0000 
     33 CA         73.7910   44.5900   26.5480 C.3       8 GLP5        0.0000 
     34 CA         72.7308   45.7103   21.1000 C.3       4 GLC5        0.0000 
     35 CA         72.5000   46.7990   19.5590 C.3       8 GLP5        0.0000 
     36 CA         72.4750   44.8242   25.0842 C.3       4 GLC5        0.0000 
     37 CA         71.2460   44.4340   23.3100 C.3      12 GLL5        0.0000 
     38 CA         72.8570   48.0547   24.2952 C.3       4 GLC5        0.0000 
     39 CA         73.0040   49.6240   25.0020 C.3       8 GLP5        0.0000 
     40 CA         73.2505   45.5378   25.0682 C.3       4 GLC5        0.0000 
     41 CA         72.6050   46.6423   21.5738 C.3       4 GLC5        0.0000 
     42 CA         69.9659   44.7656   22.1186 C.3       4 GLC5        0.0000 
     43 CA         72.4490   44.1410   22.6530 C.3      12 GLL5        0.0000 
     44 CA         68.4720   44.5460   20.7810 C.3       8 GLP5        0.0000 
@<TRIPOS>BOND
@<TRIPOS>SUBSTRUCTURE
     1 ALC1       17 GROUP        1 X    ALC  0     ROOT ALC X 1
     2 SEC2       14 GROUP        1 X    SEC  0     **** SEC X 2
     3 ZIC7        1 GROUP        1 X    ZIC  0     **** ZIC X 5
     4 GLC5        4 GROUP        1 X    GLC  0     **** GLC X 6
     5 ALP1       19 GROUP        1 Y    ALP  0     ROOT ALP Y 8
     6 SEP2       16 GROUP        1 Y    SEP  0     **** SEP Y 9
     7 ZIP7        3 GROUP        1 Y    ZIP  0     **** ZIP Y 12
     8 GLP5        6 GROUP        1 Y    GLP  0     **** GLP Y 13
     9 ALL1       18 GROUP        1 Z    ALL  0     ROOT ALL Z 15
    10 SEL2       15 GROUP        1 Z    SEL  0     **** SEL Z 16
    11 ZIL7        2 GROUP        1 Z    ZIL  0     **** ZIL Z 19
    12 GLL5        5 GROUP        1 Z    GLL  0     **** GLL Z 20
@<TRIPOS>SET

