#    Name: 3kr4_BES_4_ligand
#    Modification time : Mon Mar 24 20:14:03 2014

@<TRIPOS>MOLECULE
3kr4_BES_4_ligand
   43    43     1     0     0
SMALL
NO_CHARGES


@<TRIPOS>ATOM
      1 N2         72.8380   41.1130   23.7250 N.3       1 BES1003     0.0000 
      2 C1         73.5490   41.8290   22.6630 C.3       1 BES1003     0.0000 
      3 C6         72.6200   42.8130   21.9510 C.3       1 BES1003     0.0000 
      4 C7         72.4490   44.1410   22.6530 C.ar      1 BES1003     0.0000 
      5 C8         73.4740   45.1020   22.6290 C.ar      1 BES1003     0.0000 
      6 C12        71.2460   44.4340   23.3100 C.ar      1 BES1003     0.0000 
      7 C9         73.3140   46.3410   23.2630 C.ar      1 BES1003     0.0000 
      8 C11        71.0720   45.6830   23.9310 C.ar      1 BES1003     0.0000 
      9 C10        72.1060   46.6300   23.9140 C.ar      1 BES1003     0.0000 
     10 C2         74.1270   40.8680   21.6070 C.3       1 BES1003     0.0000 
     11 O2         74.7210   39.6490   22.1070 O.3       1 BES1003     0.0000 
     12 C3         75.2500   41.5930   20.9270 C.2       1 BES1003     0.0000 
     13 O3         76.1140   42.1160   21.6380 O.2       1 BES1003     0.0000 
     14 N1         75.2280   41.6130   19.5970 N.am      1 BES1003     0.0000 
     15 C4         76.2780   42.3060   18.8670 C.3       1 BES1003     0.0000 
     16 C13        76.2080   41.7860   17.4410 C.3       1 BES1003     0.0000 
     17 C14        77.3720   42.2480   16.5380 C.3       1 BES1003     0.0000 
     18 C15        78.7840   41.8580   17.0140 C.3       1 BES1003     0.0000 
     19 C16        77.0990   41.8040   15.1000 C.3       1 BES1003     0.0000 
     20 C5         75.9650   43.7860   18.9280 C.2       1 BES1003     0.0000 
     21 O1         76.8920   44.5240   19.3470 O.co2     1 BES1003     0.0000 
     22 O4         74.8290   44.2370   18.6030 O.co2     1 BES1003     0.0000 
     23 H          74.3770   42.3989   23.0731 H         1 BES1003     0.0000 
     24 H          71.6287   42.3353   21.8282 H         1 BES1003     0.0000 
     25 H          73.0092   42.9883   20.9293 H         1 BES1003     0.0000 
     26 H          74.3549   44.8906   22.1377 H         1 BES1003     0.0000 
     27 H          70.4939   43.7404   23.3386 H         1 BES1003     0.0000 
     28 H          74.0690   47.0272   23.2516 H         1 BES1003     0.0000 
     29 H          70.1853   45.9009   24.3977 H         1 BES1003     0.0000 
     30 H          71.9787   47.5351   24.3782 H         1 BES1003     0.0000 
     31 H          73.3776   40.6697   20.8651 H         1 BES1003     0.0000 
     32 H          74.4967   41.1577   19.0365 H         1 BES1003     0.0000 
     33 H          77.2221   42.1080   19.2792 H         1 BES1003     0.0000 
     34 H          75.2601   42.1112   16.9798 H         1 BES1003     0.0000 
     35 H          76.1954   40.6830   17.4547 H         1 BES1003     0.0000 
     36 H          77.3275   43.3699   16.5219 H         1 BES1003     0.0000 
     37 H          72.4784   41.7380   24.4179 H         1 BES1003     0.0000 
     38 H          79.4912   42.1894   16.3895 H         1 BES1003     0.0000 
     39 H          78.9894   42.2364   17.9166 H         1 BES1003     0.0000 
     40 H          78.8928   40.8662   17.0803 H         1 BES1003     0.0000 
     41 H          77.8297   42.0872   14.4788 H         1 BES1003     0.0000 
     42 H          77.0210   40.8097   15.0268 H         1 BES1003     0.0000 
     43 H          76.2475   42.1916   14.7470 H         1 BES1003     0.0000 
@<TRIPOS>BOND
     1    2    1 1    
     2   37    1 1    
     3    3    2 1    
     4   10    2 1    
     5   23    2 1    
     6    4    3 1    
     7   24    3 1    
     8   25    3 1    
     9    5    4 ar   
    10    6    4 ar   
    11    7    5 ar   
    12   26    5 1    
    13    8    6 ar   
    14   27    6 1    
    15    9    7 ar   
    16   28    7 1    
    17    9    8 ar   
    18   29    8 1    
    19   30    9 1    
    20   11   10 1    
    21   12   10 1    
    22   31   10 1    
    23   13   12 2    
    24   14   12 am   
    25   15   14 1    
    26   32   14 1    
    27   16   15 1    
    28   20   15 1    
    29   33   15 1    
    30   17   16 1    
    31   34   16 1    
    32   35   16 1    
    33   18   17 1    
    34   19   17 1    
    35   36   17 1    
    36   38   18 1    
    37   39   18 1    
    38   40   18 1    
    39   41   19 1    
    40   42   19 1    
    41   43   19 1    
    42   21   20 ar   
    43   22   20 ar   
@<TRIPOS>SUBSTRUCTURE
     1 BES1003     1 GROUP   
@<TRIPOS>SET

