#    Name: 1i9g_SAM_1_INTS_M
#    Modification time : Tue Mar 25 06:48:09 2014

@<TRIPOS>MOLECULE
1i9g_SAM_1_INTS_M
   80     0    12     0     0
SMALL
NO_CHARGES


@<TRIPOS>ATOM
      1 OD1        20.8390   -8.4935   17.8720 O.co2     3 ASC3        0.0000 
      2 OD1        21.3670   -8.8210   19.0340 O.co2    11 ASL3        0.0000 
      3 OD1        20.3110   -8.1660   16.7100 O.co2     7 ASP3        0.0000 
      4 O          20.8390   -8.4935   17.8720 O.2       1 ALC1        0.0000 
      5 O          21.3670   -8.8210   19.0340 O.2       9 ALL1        0.0000 
      6 O          20.3110   -8.1660   16.7100 O.2       5 ALP1        0.0000 
      7 O          20.6540   -8.0865   19.9510 O.2       1 ALC1        0.0000 
      8 O          19.9410   -7.3520   20.8680 O.2       5 ALP1        0.0000 
      9 N          24.2275  -10.4150   17.9835 N.am      2 SEC2        0.0000 
     10 N          23.5260  -10.3980   19.3340 N.am     10 SEL2        0.0000 
     11 N          24.9290  -10.4320   16.6330 N.am      6 SEP2        0.0000 
     12 N          24.3330   -9.8070   20.5605 N.am      2 SEC2        0.0000 
     13 N          25.1400   -9.2160   21.7870 N.am      6 SEP2        0.0000 
     14 N          21.5815  -13.2290   20.4835 N.am      2 SEC2        0.0000 
     15 N          22.4240  -12.1420   19.9090 N.am     10 SEL2        0.0000 
     16 N          20.7390  -14.3160   21.0580 N.am      6 SEP2        0.0000 
     17 N          23.5645  -12.0840   21.1570 N.am      2 SEC2        0.0000 
     18 N          24.7050  -12.0260   22.4050 N.am      6 SEP2        0.0000 
     19 CA         17.2645   -9.6735   19.6810 C.3       4 GLC5        0.0000 
     20 CA         18.7870  -10.5290   18.3470 C.3      12 GLL5        0.0000 
     21 CA         15.7420   -8.8180   21.0150 C.3       8 GLP5        0.0000 
     22 CA         18.9000   -8.4115   17.8885 C.3       4 GLC5        0.0000 
     23 CA         19.0130   -6.2940   17.4300 C.3       8 GLP5        0.0000 
     24 CA         18.1965  -13.5935   17.5320 C.3       4 GLC5        0.0000 
     25 CA         17.8110  -11.5710   17.1840 C.3      12 GLL5        0.0000 
     26 CA         18.5820  -15.6160   17.8800 C.3       8 GLP5        0.0000 
     27 CA         15.3110   -9.0650   16.6055 C.3       4 GLC5        0.0000 
     28 CA         16.1370  -10.8400   17.3490 C.3      12 GLL5        0.0000 
     29 CA         14.4850   -7.2900   15.8620 C.3       8 GLP5        0.0000 
     30 N          15.0555  -14.8815   19.3775 N.am      2 SEC2        0.0000 
     31 N          15.3800  -13.6200   19.5290 N.am     10 SEL2        0.0000 
     32 N          14.7310  -16.1430   19.2260 N.am      6 SEP2        0.0000 
     33 O          15.2290  -13.1490   20.7530 O.2       1 ALC1        0.0000 
     34 O          15.3800  -13.6200   19.5290 O.2       9 ALL1        0.0000 
     35 O          15.0780  -12.6780   21.9770 O.2       5 ALP1        0.0000 
     36 N          13.7020  -14.7865   19.2740 N.am      2 SEC2        0.0000 
     37 N          12.6730  -13.4300   19.3220 N.am     10 SEL2        0.0000 
     38 O          12.9515  -13.6570   20.5630 O.2       1 ALC1        0.0000 
     39 O          12.6730  -13.4300   19.3220 O.2       9 ALL1        0.0000 
     40 O          13.2300  -13.8840   21.8040 O.2       5 ALP1        0.0000 
     41 CA         14.5815   -9.9560   20.2300 C.3       4 GLC5        0.0000 
     42 CA         13.4210  -11.0940   19.4450 C.3      12 GLL5        0.0000 
     43 CA          8.5075   -8.2760   22.3685 C.3       4 GLC5        0.0000 
     44 CA          9.7700   -7.9490   20.6560 C.3      12 GLL5        0.0000 
     45 CA          7.2450   -8.6030   24.0810 C.3       8 GLP5        0.0000 
     46 CA          9.2460   -5.8515   20.5610 C.3       4 GLC5        0.0000 
     47 CA          8.7220   -3.7540   20.4660 C.3       8 GLP5        0.0000 
     48 O           7.7160   -6.8475   21.1670 O.2       1 ALC1        0.0000 
     49 O           8.8140   -7.1260   20.1640 O.2       9 ALL1        0.0000 
     50 O           6.6180   -6.5690   22.1700 O.2       5 ALP1        0.0000 
     51 N           9.2790   -7.2745   23.1090 N.am      2 SEC2        0.0000 
     52 N           9.9920   -8.0120   21.9910 N.am     10 SEL2        0.0000 
     53 N           8.5660   -6.5370   24.2270 N.am      6 SEP2        0.0000 
     54 CA         12.3945   -7.1665   22.6895 C.3       4 GLC5        0.0000 
     55 CA         10.9300   -8.8370   22.4790 C.3      12 GLL5        0.0000 
     56 CA         13.8590   -5.4960   22.9000 C.3       8 GLP5        0.0000 
     57 CA         11.6630   -8.1495   24.2815 C.3       4 GLC5        0.0000 
     58 CA         12.3960   -7.4620   26.0840 C.3       8 GLP5        0.0000 
     59 CA         12.0715  -10.2460   23.5545 C.3       4 GLC5        0.0000 
     60 CA         13.2130  -11.6550   24.6300 C.3       8 GLP5        0.0000 
     61 CA          9.8420  -10.3720   22.5755 C.3       4 GLC5        0.0000 
     62 CA          8.7540  -11.9070   22.6720 C.3       8 GLP5        0.0000 
     63 CA          9.0875   -8.7200   23.2800 C.3       4 GLC5        0.0000 
     64 N          11.3765  -10.8620   22.7275 N.am      2 SEC2        0.0000 
     65 N          11.7390   -9.6660   21.8090 N.am     10 SEL2        0.0000 
     66 N          11.0140  -12.0580   23.6460 N.am      6 SEP2        0.0000 
     67 CA         13.6170   -9.1920   20.7375 C.3       4 GLC5        0.0000 
     68 CA         11.4920   -9.5660   20.4600 C.3      12 GLL5        0.0000 
     69 CA         19.6135  -11.9223   19.9345 C.3       4 GLC5        0.0000 
     70 CA         20.2900  -10.9150   18.3690 C.3      12 GLL5        0.0000 
     71 CA         18.5240  -13.2900   20.9550 C.3       8 GLP5        0.0000 
     72 CA         18.4115  -12.1700   19.3603 C.3       4 GLC5        0.0000 
     73 CA         15.8098   -9.9443   19.5010 C.3       4 GLC5        0.0000 
     74 CA         15.6180  -11.3010   18.6250 C.3      12 GLL5        0.0000 
     75 CA         16.8900  -12.6508   19.7495 C.3       4 GLC5        0.0000 
     76 CA          9.8624  -10.6292   20.7824 C.3       4 GLC5        0.0000 
     77 CA         10.5650   -8.7690   19.8230 C.3      12 GLL5        0.0000 
     78 CA          8.8950  -12.2960   21.2150 C.3       8 GLP5        0.0000 
     79 CA         11.6564   -7.2528   20.0169 C.3       4 GLC5        0.0000 
     80 CA         12.4830   -5.5430   19.6840 C.3       8 GLP5        0.0000 
@<TRIPOS>BOND
@<TRIPOS>SUBSTRUCTURE
     1 ALC1        4 GROUP        1 X    ALC  0     ROOT ALC X 1
     2 SEC2        9 GROUP        1 X    SEC  0     **** SEC X 2
     3 ASC3        1 GROUP        1 X    ASC  0     **** ASC X 3
     4 GLC5       19 GROUP        1 X    GLC  0     **** GLC X 6
     5 ALP1        6 GROUP        1 Y    ALP  0     ROOT ALP Y 8
     6 SEP2       11 GROUP        1 Y    SEP  0     **** SEP Y 9
     7 ASP3        3 GROUP        1 Y    ASP  0     **** ASP Y 10
     8 GLP5       21 GROUP        1 Y    GLP  0     **** GLP Y 13
     9 ALL1        5 GROUP        1 Z    ALL  0     ROOT ALL Z 15
    10 SEL2       10 GROUP        1 Z    SEL  0     **** SEL Z 16
    11 ASL3        2 GROUP        1 Z    ASL  0     **** ASL Z 17
    12 GLL5       20 GROUP        1 Z    GLL  0     **** GLL Z 20
@<TRIPOS>SET

