#    Name: 1i9g_SAM_1_ligand
#    Modification time : Tue Mar 25 06:48:09 2014

@<TRIPOS>MOLECULE
1i9g_SAM_1_ligand
   50    52     1     0     0
SMALL
NO_CHARGES


@<TRIPOS>ATOM
      1 N          21.3670   -8.8210   19.0340 N.4       1 SAM301      0.0000 
      2 CA         21.1160  -10.1940   19.4590 C.3       1 SAM301      0.0000 
      3 C          22.4540  -10.9190   19.6770 C.2       1 SAM301      0.0000 
      4 O          23.5260  -10.3980   19.3340 O.co2     1 SAM301      0.0000 
      5 OXT        22.4240  -12.1420   19.9090 O.co2     1 SAM301      0.0000 
      6 CB         20.2900  -10.9150   18.3690 C.3       1 SAM301      0.0000 
      7 CG         18.7870  -10.5290   18.3470 C.3       1 SAM301      0.0000 
      8 SD         17.8110  -11.5710   17.1840 S.3       1 SAM301      0.0000 
      9 CE         18.2180  -10.9710   15.5470 C.3       1 SAM301      0.0000 
     10 C5'        16.1370  -10.8400   17.3490 C.3       1 SAM301      0.0000 
     11 C4'        15.6180  -11.3010   18.6250 C.3       1 SAM301      0.0000 
     12 O4'        14.5690  -10.3180   18.9810 O.3       1 SAM301      0.0000 
     13 C3'        14.8940  -12.7220   18.4630 C.3       1 SAM301      0.0000 
     14 O3'        15.3800  -13.6200   19.5290 O.3       1 SAM301      0.0000 
     15 C2'        13.4190  -12.4090   18.6780 C.3       1 SAM301      0.0000 
     16 O2'        12.6730  -13.4300   19.3220 O.3       1 SAM301      0.0000 
     17 C1'        13.4210  -11.0940   19.4450 C.3       1 SAM301      0.0000 
     18 N9         12.1130  -10.2790   19.4220 N.pl3     1 SAM301      0.0000 
     19 C8         11.5200   -9.8390   18.2430 C.2       1 SAM301      0.0000 
     20 N7         10.5730   -8.9520   18.4180 N.2       1 SAM301      0.0000 
     21 C5         10.5650   -8.7690   19.8230 C.ar      1 SAM301      0.0000 
     22 C6          9.7700   -7.9490   20.6560 C.ar      1 SAM301      0.0000 
     23 N6          8.8140   -7.1260   20.1640 N.pl3     1 SAM301      0.0000 
     24 N1          9.9920   -8.0120   21.9910 N.ar      1 SAM301      0.0000 
     25 C2         10.9300   -8.8370   22.4790 C.ar      1 SAM301      0.0000 
     26 N3         11.7390   -9.6660   21.8090 N.ar      1 SAM301      0.0000 
     27 C4         11.4920   -9.5660   20.4600 C.ar      1 SAM301      0.0000 
     28 H          20.5593  -10.2163   20.3730 H         1 SAM301      0.0000 
     29 H          20.3713  -12.0006   18.5218 H         1 SAM301      0.0000 
     30 H          20.7250  -10.6878   17.3854 H         1 SAM301      0.0000 
     31 H          18.6075   -9.5472   17.9712 H         1 SAM301      0.0000 
     32 H          18.2910  -10.7054   19.2745 H         1 SAM301      0.0000 
     33 H          15.6642  -11.2298   16.4883 H         1 SAM301      0.0000 
     34 H          16.3628   -9.8098   17.2855 H         1 SAM301      0.0000 
     35 H          16.3373  -11.3714   19.3642 H         1 SAM301      0.0000 
     36 H          15.0671  -13.0629   17.5075 H         1 SAM301      0.0000 
     37 H          13.0093  -12.1699   17.6802 H         1 SAM301      0.0000 
     38 H          13.6213  -11.3587   20.5181 H         1 SAM301      0.0000 
     39 H          11.8222  -10.1965   17.3555 H         1 SAM301      0.0000 
     40 H           8.3256   -6.5682   20.8351 H         1 SAM301      0.0000 
     41 H           8.6810   -7.1489   19.1731 H         1 SAM301      0.0000 
     42 H          11.0494   -8.8306   23.5759 H         1 SAM301      0.0000 
     43 H          20.9786   -8.1574   19.6735 H         1 SAM301      0.0000 
     44 H          22.3455   -8.6259   18.9673 H         1 SAM301      0.0000 
     45 H          20.9685   -8.6313   18.1367 H         1 SAM301      0.0000 
     46 H          19.1952  -11.0565   15.3524 H         1 SAM301      0.0000 
     47 H          17.7319  -11.4770   14.8345 H         1 SAM301      0.0000 
     48 H          17.9802  -10.0061   15.4353 H         1 SAM301      0.0000 
     49 H          15.2321  -13.1155   20.3796 H         1 SAM301      0.0000 
     50 H          12.6337  -13.1549   20.2826 H         1 SAM301      0.0000 
@<TRIPOS>BOND
     1    2    1 1    
     2   43    1 1    
     3   44    1 1    
     4   45    1 1    
     5    3    2 1    
     6    6    2 1    
     7   28    2 1    
     8    4    3 ar   
     9    5    3 ar   
    10    7    6 1    
    11   29    6 1    
    12   30    6 1    
    13    8    7 1    
    14   31    7 1    
    15   32    7 1    
    16    9    8 1    
    17   10    8 1    
    18   46    9 1    
    19   47    9 1    
    20   48    9 1    
    21   11   10 1    
    22   33   10 1    
    23   34   10 1    
    24   12   11 1    
    25   13   11 1    
    26   35   11 1    
    27   17   12 1    
    28   14   13 1    
    29   15   13 1    
    30   36   13 1    
    31   49   14 1    
    32   16   15 1    
    33   17   15 1    
    34   37   15 1    
    35   50   16 1    
    36   18   17 1    
    37   38   17 1    
    38   19   18 1    
    39   27   18 1    
    40   20   19 2    
    41   39   19 1    
    42   21   20 1    
    43   22   21 ar   
    44   27   21 ar   
    45   23   22 1    
    46   24   22 ar   
    47   40   23 1    
    48   41   23 1    
    49   25   24 ar   
    50   26   25 ar   
    51   42   25 1    
    52   27   26 ar   
@<TRIPOS>SUBSTRUCTURE
     1 SAM301      1 GROUP   
@<TRIPOS>SET

