#    Name: 2anm_CDO_1_INTS_M
#    Modification time : Mon Mar 24 19:30:33 2014

@<TRIPOS>MOLECULE
2anm_CDO_1_INTS_M
   72     0     9     0     0
SMALL
NO_CHARGES


@<TRIPOS>ATOM
      1 CA         10.5255   20.1545   21.8580 C.3       3 GLC5        0.0000 
      2 CA         12.2240   21.1610   22.4720 C.3       9 GLL5        0.0000 
      3 CA          8.8270   19.1480   21.2440 C.3       6 GLP5        0.0000 
      4 CA         12.9845   25.4215   21.6335 C.3       3 GLC5        0.0000 
      5 CA         13.3600   23.6030   21.7510 C.3       9 GLL5        0.0000 
      6 CA         12.6090   27.2400   21.5160 C.3       6 GLP5        0.0000 
      7 CA         13.0940   21.9275   18.6220 C.3       3 GLC5        0.0000 
      8 CA         14.7580   22.5180   19.9670 C.3       9 GLL5        0.0000 
      9 CA         11.4300   21.3370   17.2770 C.3       6 GLP5        0.0000 
     10 CA         15.0885   24.3675   18.7665 C.3       3 GLC5        0.0000 
     11 CA         15.4190   26.2170   17.5660 C.3       6 GLP5        0.0000 
     12 CA          9.9450   24.1915   23.3275 C.3       3 GLC5        0.0000 
     13 CA         10.8950   22.3980   24.2200 C.3       9 GLL5        0.0000 
     14 CA          8.9950   25.9850   22.4350 C.3       6 GLP5        0.0000 
     15 CA         10.0055   22.3560   22.1665 C.3       3 GLC5        0.0000 
     16 CA          9.1160   22.3140   20.1130 C.3       6 GLP5        0.0000 
     17 CA         11.0650   23.3490   26.1665 C.3       3 GLC5        0.0000 
     18 CA         11.2350   24.3000   28.1130 C.3       6 GLP5        0.0000 
     19 O           9.0625   21.5155   25.1600 O.2       1 ALC1        0.0000 
     20 O          10.1260   21.3390   24.4680 O.2       7 ALL1        0.0000 
     21 O           7.9990   21.6920   25.8520 O.2       4 ALP1        0.0000 
     22 O          10.2795   19.9080   24.1830 O.2       1 ALC1        0.0000 
     23 O          10.4330   18.4770   23.8980 O.2       4 ALP1        0.0000 
     24 O           9.4240   23.6840   25.3680 O.2       1 ALC1        0.0000 
     25 O          10.7800   23.4880   24.9690 O.2       7 ALL1        0.0000 
     26 O           8.0680   23.8800   25.7670 O.2       4 ALP1        0.0000 
     27 O          16.5295   23.6330   21.4500 O.2       1 ALC1        0.0000 
     28 O          16.0820   22.4690   20.5770 O.2       7 ALL1        0.0000 
     29 O          16.9770   24.7970   22.3230 O.2       4 ALP1        0.0000 
     30 CA         17.8455   22.0450   22.9090 C.3       3 GLC5        0.0000 
     31 CA         18.2340   21.3540   21.0660 C.3       9 GLL5        0.0000 
     32 CA         17.4570   22.7360   24.7520 C.3       6 GLP5        0.0000 
     33 N          15.7785   20.8145   24.1965 N.am      2 SEC2        0.0000 
     34 N          16.6820   20.1430   23.1600 N.am      8 SEL2        0.0000 
     35 N          14.8750   21.4860   25.2330 N.am      5 SEP2        0.0000 
     36 N          13.3025   16.0030   24.0525 N.am      2 SEC2        0.0000 
     37 N          14.6840   15.5280   23.5820 N.am      8 SEL2        0.0000 
     38 N          11.9210   16.4780   24.5230 N.am      5 SEP2        0.0000 
     39 N          12.7670   16.4910   23.2735 N.am      2 SEC2        0.0000 
     40 N          13.6130   16.5040   22.0240 N.am      8 SEL2        0.0000 
     41 CA         17.8520   19.6875   26.1960 C.3       3 GLC5        0.0000 
     42 CA         18.4930   18.2530   24.7500 C.3       9 GLL5        0.0000 
     43 CA         17.2110   21.1220   27.6420 C.3       6 GLP5        0.0000 
     44 CA         20.8040   18.3710   27.7920 C.3       3 GLC5        0.0000 
     45 CA         20.1930   19.5140   26.1080 C.3       9 GLL5        0.0000 
     46 CA         21.4150   17.2280   29.4760 C.3       6 GLP5        0.0000 
     47 CA         18.7020   20.3180   26.8750 C.3       3 GLC5        0.0000 
     48 CA         21.3945   21.5960   24.5935 C.3       3 GLC5        0.0000 
     49 CA         21.5740   20.2290   26.0500 C.3       9 GLL5        0.0000 
     50 CA         21.2150   22.9630   23.1370 C.3       6 GLP5        0.0000 
     51 CA         21.3715   20.1820   28.2755 C.3       3 GLC5        0.0000 
     52 CA         21.1690   20.1350   30.5010 C.3       6 GLP5        0.0000 
     53 CA         19.7080   21.2815   26.6900 C.3       3 GLC5        0.0000 
     54 CA         17.8420   22.3340   27.3300 C.3       6 GLP5        0.0000 
     55 CA         14.8220   23.1915   22.9162 C.3       3 GLC5        0.0000 
     56 CA         16.0900   23.3640   24.4230 C.3       6 GLP5        0.0000 
     57 CA         10.8630   21.8986   21.1121 C.3       3 GLC5        0.0000 
     58 CA         13.1690   21.1970   21.4270 C.3       9 GLL5        0.0000 
     59 CA         12.7005   21.4224   24.7794 C.3       3 GLC5        0.0000 
     60 CA         13.9280   20.7610   26.0510 C.3       6 GLP5        0.0000 
     61 CA         18.9965   23.0300   19.3830 C.3       3 GLC5        0.0000 
     62 CA         19.2070   24.6460   18.2480 C.3       6 GLP5        0.0000 
     63 CA         21.8075   19.5422   20.2715 C.3       3 GLC5        0.0000 
     64 CA         20.4280   20.4900   20.4650 C.3       9 GLL5        0.0000 
     65 CA         23.6060   19.1490   19.7550 C.3       6 GLP5        0.0000 
     66 CA         19.3167   19.1247   19.1106 C.3       3 GLC5        0.0000 
     67 CA         19.3380   21.4740   19.9700 C.3       9 GLL5        0.0000 
     68 CA         18.8970   18.0680   17.5570 C.3       6 GLP5        0.0000 
     69 CA         23.3113   20.7867   26.9612 C.3       3 GLC5        0.0000 
     70 CA         22.6870   19.2400   25.6310 C.3       9 GLL5        0.0000 
     71 CA         24.4920   21.8390   28.0820 C.3       6 GLP5        0.0000 
     72 CA         20.3062   21.8189   21.8950 C.3       3 GLC5        0.0000 
@<TRIPOS>BOND
@<TRIPOS>SUBSTRUCTURE
     1 ALC1       19 GROUP        1 X    ALC  0     ROOT ALC X 1
     2 SEC2       33 GROUP        1 X    SEC  0     **** SEC X 2
     3 GLC5        1 GROUP        1 X    GLC  0     **** GLC X 6
     4 ALP1       21 GROUP        1 Y    ALP  0     ROOT ALP Y 8
     5 SEP2       35 GROUP        1 Y    SEP  0     **** SEP Y 9
     6 GLP5        3 GROUP        1 Y    GLP  0     **** GLP Y 13
     7 ALL1       20 GROUP        1 Z    ALL  0     ROOT ALL Z 15
     8 SEL2       34 GROUP        1 Z    SEL  0     **** SEL Z 16
     9 GLL5        2 GROUP        1 Z    GLL  0     **** GLL Z 20
@<TRIPOS>SET

