#    Name: 2anm_CDO_1_ligand
#    Modification time : Mon Mar 24 19:30:33 2014

@<TRIPOS>MOLECULE
2anm_CDO_1_ligand
   64    66     1     0     0
SMALL
NO_CHARGES


@<TRIPOS>ATOM
      1 C1         12.2240   21.1610   22.4720 C.ar      1 CDO1001     0.0000 
      2 C2         11.8780   22.3780   23.1190 C.ar      1 CDO1001     0.0000 
      3 N3         12.4600   23.5390   22.7430 N.ar      1 CDO1001     0.0000 
      4 C4         13.3600   23.6030   21.7510 C.ar      1 CDO1001     0.0000 
      5 C5         13.7480   22.4350   21.0680 C.ar      1 CDO1001     0.0000 
      6 C6         13.1690   21.1970   21.4270 C.ar      1 CDO1001     0.0000 
      7 C7         14.7580   22.5180   19.9670 C.3       1 CDO1001     0.0000 
      8 C8         10.8950   22.3980   24.2200 C.2       1 CDO1001     0.0000 
      9 N9         10.1260   21.3390   24.4680 N.pl3     1 CDO1001     0.0000 
     10 N10        10.7800   23.4880   24.9690 N.pl3     1 CDO1001     0.0000 
     11 N11        16.0820   22.4690   20.5770 N.am      1 CDO1001     0.0000 
     12 C12        16.8770   21.3920   20.4140 C.2       1 CDO1001     0.0000 
     13 C13        18.2340   21.3540   21.0660 C.3       1 CDO1001     0.0000 
     14 O14        16.5080   20.4420   19.7560 O.2       1 CDO1001     0.0000 
     15 C15        19.3380   21.4740   19.9700 C.2       1 CDO1001     0.0000 
     16 C16        20.4280   20.4900   20.4650 C.2       1 CDO1001     0.0000 
     17 C17        19.5900   19.3810   21.1110 C.3       1 CDO1001     0.0000 
     18 N18        18.4210   20.0330   21.7250 N.am      1 CDO1001     0.0000 
     19 C19        17.6310   19.5110   22.7320 C.2       1 CDO1001     0.0000 
     20 C20        17.9190   18.1360   23.3220 C.3       1 CDO1001     0.0000 
     21 O21        16.6820   20.1430   23.1600 O.2       1 CDO1001     0.0000 
     22 N22        16.6680   17.3790   23.3980 N.4       1 CDO1001     0.0000 
     23 C23        15.9240   16.9980   22.1960 C.3       1 CDO1001     0.0000 
     24 C24        14.6610   16.2990   22.6260 C.2       1 CDO1001     0.0000 
     25 O25        14.6840   15.5280   23.5820 O.co2     1 CDO1001     0.0000 
     26 O26        13.6130   16.5040   22.0240 O.co2     1 CDO1001     0.0000 
     27 C27        18.4930   18.2530   24.7500 C.3       1 CDO1001     0.0000 
     28 C28        19.8870   18.8930   24.7340 C.3       1 CDO1001     0.0000 
     29 C29        20.1930   19.5140   26.1080 C.3       1 CDO1001     0.0000 
     30 C30        21.5740   20.2290   26.0500 C.3       1 CDO1001     0.0000 
     31 C31        22.6870   19.2400   25.6310 C.3       1 CDO1001     0.0000 
     32 C32        22.3340   18.5330   24.2990 C.3       1 CDO1001     0.0000 
     33 C33        20.9570   17.8370   24.4050 C.3       1 CDO1001     0.0000 
     34 H          11.7985   20.2909   22.7591 H         1 CDO1001     0.0000 
     35 H          13.7887   24.5015   21.4638 H         1 CDO1001     0.0000 
     36 H          13.4309   20.3472   20.9385 H         1 CDO1001     0.0000 
     37 H          14.6187   23.4486   19.4230 H         1 CDO1001     0.0000 
     38 H          14.6159   21.6819   19.2872 H         1 CDO1001     0.0000 
     39 H           9.4529   21.4457   25.1998 H         1 CDO1001     0.0000 
     40 H          10.2911   20.5327   23.9000 H         1 CDO1001     0.0000 
     41 H          11.6066   23.7807   25.4498 H         1 CDO1001     0.0000 
     42 H           9.8773   23.9179   24.9847 H         1 CDO1001     0.0000 
     43 H          16.3688   23.2903   21.1294 H         1 CDO1001     0.0000 
     44 H          18.3498   22.1392   21.7513 H         1 CDO1001     0.0000 
     45 H          19.3360   21.9597   19.2769 H         1 CDO1001     0.0000 
     46 H          21.2681   20.5571   20.3922 H         1 CDO1001     0.0000 
     47 H          20.1916   18.8840   21.8549 H         1 CDO1001     0.0000 
     48 H          19.2878   18.6867   20.3436 H         1 CDO1001     0.0000 
     49 H          18.6291   17.6267   22.7099 H         1 CDO1001     0.0000 
     50 H          16.5106   16.3217   21.5785 H         1 CDO1001     0.0000 
     51 H          15.6613   17.8766   21.6114 H         1 CDO1001     0.0000 
     52 H          18.5579   17.2594   25.1872 H         1 CDO1001     0.0000 
     53 H          17.8233   18.8636   25.3511 H         1 CDO1001     0.0000 
     54 H          19.9159   19.6618   23.9920 H         1 CDO1001     0.0000 
     55 H          20.2328   18.7381   26.8547 H         1 CDO1001     0.0000 
     56 H          19.4347   20.2390   26.3541 H         1 CDO1001     0.0000 
     57 H          21.8027   20.6302   27.0300 H         1 CDO1001     0.0000 
     58 H          21.5216   21.0350   25.3279 H         1 CDO1001     0.0000 
     59 H          22.8083   18.4913   26.4079 H         1 CDO1001     0.0000 
     60 H          23.6182   19.7845   25.5069 H         1 CDO1001     0.0000 
     61 H          23.0917   17.7911   24.0801 H         1 CDO1001     0.0000 
     62 H          22.3006   19.2689   23.5054 H         1 CDO1001     0.0000 
     63 H          20.7231   17.3704   23.4622 H         1 CDO1001     0.0000 
     64 H          20.9915   17.1030   25.1933 H         1 CDO1001     0.0000 
@<TRIPOS>BOND
     1    2    1 ar   
     2    6    1 ar   
     3   34    1 1    
     4    3    2 ar   
     5    8    2 1    
     6    4    3 ar   
     7    5    4 ar   
     8   35    4 1    
     9    6    5 ar   
    10    7    5 1    
    11   36    6 1    
    12   11    7 1    
    13   37    7 1    
    14   38    7 1    
    15    9    8 2    
    16   10    8 1    
    17   39    9 1    
    18   40    9 1    
    19   41   10 1    
    20   42   10 1    
    21   12   11 am   
    22   43   11 1    
    23   13   12 1    
    24   14   12 2    
    25   15   13 1    
    26   18   13 1    
    27   44   13 1    
    28   16   15 2    
    29   45   15 1    
    30   17   16 1    
    31   46   16 1    
    32   18   17 1    
    33   47   17 1    
    34   48   17 1    
    35   19   18 am   
    36   20   19 1    
    37   21   19 2    
    38   22   20 1    
    39   27   20 1    
    40   49   20 1    
    41   23   22 1    
    42   24   23 1    
    43   50   23 1    
    44   51   23 1    
    45   25   24 ar   
    46   26   24 ar   
    47   28   27 1    
    48   52   27 1    
    49   53   27 1    
    50   29   28 1    
    51   33   28 1    
    52   54   28 1    
    53   30   29 1    
    54   55   29 1    
    55   56   29 1    
    56   31   30 1    
    57   57   30 1    
    58   58   30 1    
    59   32   31 1    
    60   59   31 1    
    61   60   31 1    
    62   33   32 1    
    63   61   32 1    
    64   62   32 1    
    65   63   33 1    
    66   64   33 1    
@<TRIPOS>SUBSTRUCTURE
     1 CDO1001     1 GROUP   
@<TRIPOS>SET

