#    Name: 3f7z_34O_2_INTS_M
#    Modification time : Tue Mar 25 03:19:59 2014

@<TRIPOS>MOLECULE
3f7z_34O_2_INTS_M
   66     0     6     0     0
SMALL
NO_CHARGES


@<TRIPOS>ATOM
      1 CA        -29.4055    5.8580   38.4095 C.3       2 GLC5        0.0000 
      2 CA        -30.5250    7.5860   38.6890 C.3       6 GLL5        0.0000 
      3 CA        -28.2860    4.1300   38.1300 C.3       4 GLP5        0.0000 
      4 CA        -29.5250    6.9360   40.5495 C.3       2 GLC5        0.0000 
      5 CA        -28.5250    6.2860   42.4100 C.3       4 GLP5        0.0000 
      6 CA        -31.5625    6.1545   39.0600 C.3       2 GLC5        0.0000 
      7 CA        -32.6000    4.7230   39.4310 C.3       4 GLP5        0.0000 
      8 CA        -32.3715    8.7480   39.1610 C.3       2 GLC5        0.0000 
      9 CA        -34.2180    9.9100   39.6330 C.3       4 GLP5        0.0000 
     10 CA        -26.0960    7.1400   39.6055 C.3       2 GLC5        0.0000 
     11 CA        -27.2050    8.9230   39.1800 C.3       6 GLL5        0.0000 
     12 CA        -24.9870    5.3570   40.0310 C.3       4 GLP5        0.0000 
     13 CA        -28.3515    9.7130   43.2060 C.3       2 GLC5        0.0000 
     14 CA        -29.0960    9.8050   41.1930 C.3       6 GLL5        0.0000 
     15 CA        -27.6070    9.6210   45.2190 C.3       4 GLP5        0.0000 
     16 CA        -27.2315   12.1550   40.3485 C.3       2 GLC5        0.0000 
     17 CA        -27.7540   10.2030   41.2060 C.3       6 GLL5        0.0000 
     18 CA        -26.7090   14.1070   39.4910 C.3       4 GLP5        0.0000 
     19 CA        -26.6105   11.5695   39.0515 C.3       2 GLC5        0.0000 
     20 CA        -26.8400    9.7650   40.2290 C.3       6 GLL5        0.0000 
     21 CA        -26.3810   13.3740   37.8740 C.3       4 GLP5        0.0000 
     22 CA        -27.0285    5.4635   37.0695 C.3       2 GLC5        0.0000 
     23 CA        -25.7710    6.7970   36.0090 C.3       6 GLL5        0.0000 
     24 CA        -24.5860    5.1045   35.6065 C.3       2 GLC5        0.0000 
     25 CA        -23.4010    3.4120   35.2040 C.3       4 GLP5        0.0000 
     26 CA        -25.3790    6.0770   38.0200 C.3       2 GLC5        0.0000 
     27 CA        -29.2980    9.7305   34.1685 C.3       2 GLC5        0.0000 
     28 CA        -28.3360    8.5170   35.5230 C.3       6 GLL5        0.0000 
     29 CA        -30.2600   10.9440   32.8140 C.3       4 GLP5        0.0000 
     30 CA        -28.9850   10.2605   35.9575 C.3       2 GLC5        0.0000 
     31 CA        -29.6340   12.0040   36.3920 C.3       4 GLP5        0.0000 
     32 CA        -23.0880   12.1480   37.1720 C.3       2 GLC5        0.0000 
     33 CA        -24.0200   10.5930   36.2130 C.3       6 GLL5        0.0000 
     34 CA        -22.1560   13.7030   38.1310 C.3       4 GLP5        0.0000 
     35 CA        -20.7475    9.8465   40.2630 C.3       2 GLC5        0.0000 
     36 CA        -21.8300   10.2070   38.9540 C.3       6 GLL5        0.0000 
     37 CA        -19.6650    9.4860   41.5720 C.3       4 GLP5        0.0000 
     38 N         -23.6820   12.8210   40.2285 N.am      1 SEC2        0.0000 
     39 N         -23.5410   11.2010   40.6270 N.am      5 SEL2        0.0000 
     40 N         -23.8230   14.4410   39.8300 N.am      3 SEP2        0.0000 
     41 N         -32.0450    8.7860   40.2145 N.am      1 SEC2        0.0000 
     42 N         -30.6710    8.4200   39.8510 N.am      5 SEL2        0.0000 
     43 N         -33.4190    9.1520   40.5780 N.am      3 SEP2        0.0000 
     44 CA        -28.7610    7.5183   41.0302 C.3       2 GLC5        0.0000 
     45 CA        -29.4720    8.9730   40.1520 C.3       6 GLL5        0.0000 
     46 CA        -31.1135    8.7030   41.6647 C.3       2 GLC5        0.0000 
     47 CA        -32.9430    8.0170   42.6570 C.3       4 GLP5        0.0000 
     48 CA        -29.4640   10.4343   39.2507 C.3       2 GLC5        0.0000 
     49 CA        -29.9310   12.1180   38.8510 C.3       4 GLP5        0.0000 
     50 CA        -27.7737    7.8150   41.0572 C.3       2 GLC5        0.0000 
     51 CA        -28.4767   10.7310   39.2777 C.3       2 GLC5        0.0000 
     52 CA        -28.4750    8.1450   41.8047 C.3       2 GLC5        0.0000 
     53 CA        -28.7315   11.3065   42.4427 C.3       2 GLC5        0.0000 
     54 CA        -29.0380   12.6090   43.6860 C.3       4 GLP5        0.0000 
     55 CA        -29.1780   11.0610   40.0252 C.3       2 GLC5        0.0000 
     56 CA        -26.3435    9.9045   42.3567 C.3       2 GLC5        0.0000 
     57 CA        -25.3900    9.8250   43.9960 C.3       4 GLP5        0.0000 
     58 CA        -25.5212   11.9603   36.9057 C.3       2 GLC5        0.0000 
     59 CA        -23.1530    7.3475   37.9442 C.3       2 GLC5        0.0000 
     60 CA        -23.3490    9.4590   36.6960 C.3       6 GLL5        0.0000 
     61 CA        -22.6560    5.8690   39.2370 C.3       4 GLP5        0.0000 
     62 CA        -20.1983    8.8605   37.7560 C.3       2 GLC5        0.0000 
     63 CA        -21.9510    9.5770   37.2940 C.3       6 GLL5        0.0000 
     64 CA        -18.5060    7.8290   37.3880 C.3       4 GLP5        0.0000 
     65 CA        -22.2732    7.8805   38.6805 C.3       2 GLC5        0.0000 
     66 CA        -22.0232   11.7975   38.1275 C.3       2 GLC5        0.0000 
@<TRIPOS>BOND
@<TRIPOS>SUBSTRUCTURE
     1 SEC2       38 GROUP        1 X    SEC  0     ROOT SEC X 2
     2 GLC5        1 GROUP        1 X    GLC  0     **** GLC X 6
     3 SEP2       40 GROUP        1 Y    SEP  0     ROOT SEP Y 9
     4 GLP5        3 GROUP        1 Y    GLP  0     **** GLP Y 13
     5 SEL2       39 GROUP        1 Z    SEL  0     ROOT SEL Z 16
     6 GLL5        2 GROUP        1 Z    GLL  0     **** GLL Z 20
@<TRIPOS>SET

