#    Name: 3f7z_34O_2_ligand
#    Modification time : Tue Mar 25 03:19:59 2014

@<TRIPOS>MOLECULE
3f7z_34O_2_ligand
   38    41     1     0     0
SMALL
NO_CHARGES


@<TRIPOS>ATOM
      1 C8        -30.5250    7.5860   38.6890 C.3       1 34O3000     0.0000 
      2 C10       -25.4170   10.1970   40.2380 C.2       1 34O3000     0.0000 
      3 C6        -29.4720    8.9730   40.1520 C.ar      1 34O3000     0.0000 
      4 C5        -28.5220    8.5280   39.1490 C.ar      1 34O3000     0.0000 
      5 C4        -27.2050    8.9230   39.1800 C.ar      1 34O3000     0.0000 
      6 C1        -29.0960    9.8050   41.1930 C.ar      1 34O3000     0.0000 
      7 C2        -27.7540   10.2030   41.2060 C.ar      1 34O3000     0.0000 
      8 C3        -26.8400    9.7650   40.2290 C.ar      1 34O3000     0.0000 
      9 F25       -25.7710    6.7970   36.0090 F         1 34O3000     0.0000 
     10 C19       -25.2290    8.0350   36.0610 C.ar      1 34O3000     0.0000 
     11 C20       -25.9510    9.2610   35.5690 C.ar      1 34O3000     0.0000 
     12 O23       -27.2090    9.2230   34.9950 O.3       1 34O3000     0.0000 
     13 C24       -28.3360    8.5170   35.5230 C.3       1 34O3000     0.0000 
     14 C21       -25.3030   10.5000   35.6620 C.ar      1 34O3000     0.0000 
     15 C22       -24.0200   10.5930   36.2130 C.ar      1 34O3000     0.0000 
     16 C18       -23.9510    8.1930   36.6070 C.ar      1 34O3000     0.0000 
     17 C17       -23.3490    9.4590   36.6960 C.ar      1 34O3000     0.0000 
     18 C16       -21.9510    9.5770   37.2940 C.3       1 34O3000     0.0000 
     19 S15       -21.8300   10.2070   38.9540 S.3       1 34O3000     0.0000 
     20 C12       -23.3020   10.3940   39.6900 C.2       1 34O3000     0.0000 
     21 N13       -23.5410   11.2010   40.6270 N.2       1 34O3000     0.0000 
     22 N14       -24.9060   11.0790   40.9710 N.2       1 34O3000     0.0000 
     23 O11       -24.4660    9.6300   39.3200 O.3       1 34O3000     0.0000 
     24 O7        -30.6710    8.4200   39.8510 O.3       1 34O3000     0.0000 
     25 O9        -29.1570    7.7190   38.2720 O.3       1 34O3000     0.0000 
     26 H         -31.1994    7.9135   37.8976 H         1 34O3000     0.0000 
     27 H         -30.7507    6.5480   38.9340 H         1 34O3000     0.0000 
     28 H         -26.5378    8.6268   38.4908 H         1 34O3000     0.0000 
     29 H         -29.7387   10.1075   41.8967 H         1 34O3000     0.0000 
     30 H         -27.4205   10.8381   41.9548 H         1 34O3000     0.0000 
     31 H         -25.7755   11.3486   35.3218 H         1 34O3000     0.0000 
     32 H         -23.5554   11.5154   36.2661 H         1 34O3000     0.0000 
     33 H         -23.4383    7.3650   36.9519 H         1 34O3000     0.0000 
     34 H         -21.3074   10.2593   36.7281 H         1 34O3000     0.0000 
     35 H         -21.4401    8.6105   37.3635 H         1 34O3000     0.0000 
     36 H         -28.1599    7.5351   35.5924 H         1 34O3000     0.0000 
     37 H         -28.5787    8.8367   36.4389 H         1 34O3000     0.0000 
     38 H         -29.1470    8.6295   34.9488 H         1 34O3000     0.0000 
@<TRIPOS>BOND
     1   24    1 1    
     2   25    1 1    
     3   26    1 1    
     4   27    1 1    
     5    8    2 1    
     6   22    2 2    
     7   23    2 1    
     8    4    3 ar   
     9    6    3 ar   
    10   24    3 1    
    11    5    4 ar   
    12   25    4 1    
    13    8    5 ar   
    14   28    5 1    
    15    7    6 ar   
    16   29    6 1    
    17    8    7 ar   
    18   30    7 1    
    19   10    9 1    
    20   11   10 ar   
    21   16   10 ar   
    22   12   11 1    
    23   14   11 ar   
    24   13   12 1    
    25   36   13 1    
    26   37   13 1    
    27   38   13 1    
    28   15   14 ar   
    29   31   14 1    
    30   17   15 ar   
    31   32   15 1    
    32   17   16 ar   
    33   33   16 1    
    34   18   17 1    
    35   19   18 1    
    36   34   18 1    
    37   35   18 1    
    38   20   19 1    
    39   21   20 2    
    40   23   20 1    
    41   22   21 1    
@<TRIPOS>SUBSTRUCTURE
     1 34O3000     1 GROUP   
@<TRIPOS>SET

