#    Name: 4e03_ADP_2_INTS_M
#    Modification time : Mon Apr  7 23:13:21 2014

@<TRIPOS>MOLECULE
4e03_ADP_2_INTS_M
   49     0    15     0     0
SMALL
NO_CHARGES


@<TRIPOS>ATOM
      1 NZ          1.0745  -33.3215   10.7105 N.4       3 LYC4        0.0000 
      2 NZ          1.0560  -34.9970   10.1910 N.4      13 LYL4        0.0000 
      3 NZ          1.0930  -31.6460   11.2300 N.4       8 LYP4        0.0000 
      4 N           2.2240  -35.3415    9.3620 N.am      2 SEC2        0.0000 
      5 N           1.0560  -34.9970   10.1910 N.am     12 SEL2        0.0000 
      6 N           3.3920  -35.6860    8.5330 N.am      7 SEP2        0.0000 
      7 Zn          1.9015  -35.5480   13.5490 Zn        4 ZIC7        0.0000 
      8 Zn          2.4560  -35.3980   12.4210 Zn       14 ZIL7        0.0000 
      9 Zn          1.3470  -35.6980   14.6770 Zn        9 ZIP7        0.0000 
     10 N           3.6185  -35.5975   13.0330 N.am      2 SEC2        0.0000 
     11 N           2.4560  -35.3980   12.4210 N.am     12 SEL2        0.0000 
     12 N           4.7810  -35.7970   13.6450 N.am      7 SEP2        0.0000 
     13 Zn          0.6270  -35.7575   13.4890 Zn        4 ZIC7        0.0000 
     14 Zn         -0.0930  -35.8170   12.3010 Zn       14 ZIL7        0.0000 
     15 N           4.7665  -38.4055   12.4805 N.am      2 SEC2        0.0000 
     16 N           3.5920  -38.4200   11.7140 N.am     12 SEL2        0.0000 
     17 N           5.9410  -38.3910   13.2470 N.am      7 SEP2        0.0000 
     18 N           4.4380  -39.4810   11.5785 N.am      2 SEC2        0.0000 
     19 N           5.2840  -40.5420   11.4430 N.am      7 SEP2        0.0000 
     20 N           2.5055  -36.2595    9.7365 N.am      2 SEC2        0.0000 
     21 N           1.6190  -36.8330   10.9400 N.am     12 SEL2        0.0000 
     22 CA          0.0855  -37.7880    8.6775 C.3       5 GLC5        0.0000 
     23 CA          0.7650  -39.3700    9.3980 C.3      15 GLL5        0.0000 
     24 CA         -0.5940  -36.2060    7.9570 C.3      10 GLP5        0.0000 
     25 CA          2.7580  -44.7630    8.8390 C.3       5 GLC5        0.0000 
     26 CA          1.8900  -42.8440    9.2580 C.3      15 GLL5        0.0000 
     27 CA          3.6260  -46.6820    8.4200 C.3      10 GLP5        0.0000 
     28 CA          6.6890  -41.2565    9.1500 C.3       5 GLC5        0.0000 
     29 CA          5.7540  -41.5310    7.2740 C.3      15 GLL5        0.0000 
     30 CA          7.6240  -40.9820   11.0260 C.3      10 GLP5        0.0000 
     31 CA          7.2860  -42.6975    4.7710 C.3       5 GLC5        0.0000 
     32 CA          6.9230  -42.0770    6.6500 C.3      15 GLL5        0.0000 
     33 CA          7.6490  -43.3180    2.8920 C.3      10 GLP5        0.0000 
     34 O           8.9265  -41.9735    5.6115 O.2       1 ALC1        0.0000 
     35 O           8.0740  -41.3960    6.6490 O.2      11 ALL1        0.0000 
     36 O           9.7790  -42.5510    4.5740 O.2       6 ALP1        0.0000 
     37 N           7.6170  -44.2490    5.1620 N.am      2 SEC2        0.0000 
     38 N           6.8530  -43.3270    6.0370 N.am     12 SEL2        0.0000 
     39 N           8.3810  -45.1710    4.2870 N.am      7 SEP2        0.0000 
     40 CA          6.6680  -43.6790    4.4555 C.3       5 GLC5        0.0000 
     41 CA          5.6870  -44.0400    6.0190 C.3      15 GLL5        0.0000 
     42 CA          7.2385  -45.2920    5.2935 C.3       5 GLC5        0.0000 
     43 CA          8.7900  -46.5440    4.5680 C.3      10 GLP5        0.0000 
     44 CA          6.8285  -44.2155    7.6495 C.3       5 GLC5        0.0000 
     45 CA          7.9700  -44.3910    9.2800 C.3      10 GLP5        0.0000 
     46 CA          4.6565  -45.3610    7.2195 C.3       5 GLC5        0.0000 
     47 CA          5.1454  -40.3625    5.9570 C.3       5 GLC5        0.0000 
     48 CA          4.8120  -38.6490    4.8360 C.3      10 GLP5        0.0000 
     49 CA          6.7244  -43.2335    8.1790 C.3       5 GLC5        0.0000 
@<TRIPOS>BOND
@<TRIPOS>SUBSTRUCTURE
     1 ALC1       34 GROUP        1 X    ALC  0     ROOT ALC X 1
     2 SEC2        4 GROUP        1 X    SEC  0     **** SEC X 2
     3 LYC4        1 GROUP        1 X    LYC  0     **** LYC X 4
     4 ZIC7        7 GROUP        1 X    ZIC  0     **** ZIC X 5
     5 GLC5       22 GROUP        1 X    GLC  0     **** GLC X 6
     6 ALP1       36 GROUP        1 Y    ALP  0     ROOT ALP Y 8
     7 SEP2        6 GROUP        1 Y    SEP  0     **** SEP Y 9
     8 LYP4        3 GROUP        1 Y    LYP  0     **** LYP Y 11
     9 ZIP7        9 GROUP        1 Y    ZIP  0     **** ZIP Y 12
    10 GLP5       24 GROUP        1 Y    GLP  0     **** GLP Y 13
    11 ALL1       35 GROUP        1 Z    ALL  0     ROOT ALL Z 15
    12 SEL2        5 GROUP        1 Z    SEL  0     **** SEL Z 16
    13 LYL4        2 GROUP        1 Z    LYL  0     **** LYL Z 18
    14 ZIL7        8 GROUP        1 Z    ZIL  0     **** ZIL Z 19
    15 GLL5       23 GROUP        1 Z    GLL  0     **** GLL Z 20
@<TRIPOS>SET

