#    Name: 4e03_ADP_2_ligand
#    Modification time : Mon Apr  7 23:13:21 2014

@<TRIPOS>MOLECULE
4e03_ADP_2_ligand
   39    41     1     0     0
SMALL
NO_CHARGES


@<TRIPOS>ATOM
      1 PB          1.3070  -35.3600   11.5590 P.3       1 ADP301      0.0000 
      2 O1B         1.0560  -34.9970   10.1910 O.co2     1 ADP301      0.0000 
      3 O2B         2.4560  -35.3980   12.4210 O.co2     1 ADP301      0.0000 
      4 O3B        -0.0930  -35.8170   12.3010 O.co2     1 ADP301      0.0000 
      5 PA          2.1350  -38.3540   11.4030 P.3       1 ADP301      0.0000 
      6 O1A         3.5920  -38.4200   11.7140 O.co2     1 ADP301      0.0000 
      7 O2A         1.2040  -38.8270   12.4450 O.co2     1 ADP301      0.0000 
      8 O3A         1.6190  -36.8330   10.9400 O.3       1 ADP301      0.0000 
      9 O5'         2.0340  -39.1630   10.0620 O.3       1 ADP301      0.0000 
     10 C5'         0.7650  -39.3700    9.3980 C.3       1 ADP301      0.0000 
     11 C4'         0.5760  -40.8270    9.0070 C.3       1 ADP301      0.0000 
     12 O4'         1.3680  -41.0940    7.8240 O.3       1 ADP301      0.0000 
     13 C3'         1.0130  -41.9060   10.0260 C.3       1 ADP301      0.0000 
     14 O3'        -0.1570  -42.5190   10.6050 O.3       1 ADP301      0.0000 
     15 C2'         1.8900  -42.8440    9.2580 C.3       1 ADP301      0.0000 
     16 O2'         1.2140  -44.0850    8.9930 O.3       1 ADP301      0.0000 
     17 C1'         2.2600  -42.2080    7.9580 C.3       1 ADP301      0.0000 
     18 N9          3.6570  -41.6660    7.8240 N.pl3     1 ADP301      0.0000 
     19 C8          4.2440  -40.4870    8.2530 C.2       1 ADP301      0.0000 
     20 N7          5.4990  -40.3500    7.9540 N.2       1 ADP301      0.0000 
     21 C5          5.7540  -41.5310    7.2740 C.ar      1 ADP301      0.0000 
     22 C6          6.9230  -42.0770    6.6500 C.ar      1 ADP301      0.0000 
     23 N6          8.0740  -41.3960    6.6490 N.pl3     1 ADP301      0.0000 
     24 N1          6.8530  -43.3270    6.0370 N.ar      1 ADP301      0.0000 
     25 C2          5.6870  -44.0400    6.0190 C.ar      1 ADP301      0.0000 
     26 N3          4.4950  -43.6270    6.5780 N.ar      1 ADP301      0.0000 
     27 C4          4.6190  -42.3480    7.1940 C.ar      1 ADP301      0.0000 
     28 H           0.6930  -38.7590    8.4847 H         1 ADP301      0.0000 
     29 H          -0.0737  -39.0796   10.0498 H         1 ADP301      0.0000 
     30 H          -0.4693  -41.0063    8.7643 H         1 ADP301      0.0000 
     31 H           1.6099  -41.3945   10.7672 H         1 ADP301      0.0000 
     32 H           2.7960  -43.0153    9.8224 H         1 ADP301      0.0000 
     33 H           2.0629  -42.9029    7.1500 H         1 ADP301      0.0000 
     34 H           3.6926  -39.8050    8.7631 H         1 ADP301      0.0000 
     35 H           8.8455  -41.8365    6.1898 H         1 ADP301      0.0000 
     36 H           8.0600  -40.5074    7.1075 H         1 ADP301      0.0000 
     37 H           5.6938  -44.9940    5.5346 H         1 ADP301      0.0000 
     38 H          -0.2256  -43.4136   10.1636 H         1 ADP301      0.0000 
     39 H           1.9178  -44.7888    9.0897 H         1 ADP301      0.0000 
@<TRIPOS>BOND
     1    2    1 ar   
     2    3    1 ar   
     3    4    1 ar   
     4    8    1 1    
     5    6    5 ar   
     6    7    5 ar   
     7    8    5 1    
     8    9    5 1    
     9   10    9 1    
    10   11   10 1    
    11   28   10 1    
    12   29   10 1    
    13   12   11 1    
    14   13   11 1    
    15   30   11 1    
    16   17   12 1    
    17   14   13 1    
    18   15   13 1    
    19   31   13 1    
    20   38   14 1    
    21   16   15 1    
    22   17   15 1    
    23   32   15 1    
    24   39   16 1    
    25   18   17 1    
    26   33   17 1    
    27   19   18 1    
    28   27   18 1    
    29   20   19 2    
    30   34   19 1    
    31   21   20 1    
    32   22   21 ar   
    33   27   21 ar   
    34   23   22 1    
    35   24   22 ar   
    36   35   23 1    
    37   36   23 1    
    38   25   24 ar   
    39   26   25 ar   
    40   37   25 1    
    41   27   26 ar   
@<TRIPOS>SUBSTRUCTURE
     1 ADP301      1 GROUP   
@<TRIPOS>SET

