#    Name: 1hfr_MOT_1_INTS_M
#    Modification time : Tue Mar 25 05:29:26 2014

@<TRIPOS>MOLECULE
1hfr_MOT_1_INTS_M
   66     0    12     0     0
SMALL
NO_CHARGES


@<TRIPOS>ATOM
      1 N          29.7165   13.0105   -5.5685 N.am      2 SEC2        0.0000 
      2 N          28.8390   13.0610   -4.5270 N.am     10 SEL2        0.0000 
      3 N          30.5940   12.9600   -6.6100 N.am      6 SEP2        0.0000 
      4 CA         25.4650   13.3930   -4.8600 C.3       4 GLC5        0.0000 
      5 CA         27.5450   12.8100   -4.5610 C.3      12 GLL5        0.0000 
      6 CA         23.3850   13.9760   -5.1590 C.3       8 GLP5        0.0000 
      7 CA         26.3015   11.1415   -4.1020 C.3       4 GLC5        0.0000 
      8 CA         25.0580    9.4730   -3.6430 C.3       8 GLP5        0.0000 
      9 CA         28.4630   11.1935   -5.0490 C.3       4 GLC5        0.0000 
     10 CA         29.3810    9.5770   -5.5370 C.3       8 GLP5        0.0000 
     11 CA         27.6945   14.8560   -4.7930 C.3       4 GLC5        0.0000 
     12 CA         27.8440   16.9020   -5.0250 C.3       8 GLP5        0.0000 
     13 O          27.9745   12.7795   -6.8355 O.2       1 ALC1        0.0000 
     14 O          27.0150   12.6810   -5.8090 O.2       9 ALL1        0.0000 
     15 O          28.9340   12.8780   -7.8620 O.2       5 ALP1        0.0000 
     16 CA         26.1720   11.1245   -2.9735 C.3       4 GLC5        0.0000 
     17 CA         27.2860   12.7760   -2.3040 C.3      12 GLL5        0.0000 
     18 O          24.8870   11.9830   -1.7060 O.2       1 ALC1        0.0000 
     19 O          26.3060   12.5800   -1.4150 O.2       9 ALL1        0.0000 
     20 O          23.4680   11.3860   -1.9970 O.2       5 ALP1        0.0000 
     21 O          25.8610   12.4250    0.2185 O.2       1 ALC1        0.0000 
     22 O          25.4160   12.2700    1.8520 O.2       5 ALP1        0.0000 
     23 CA         32.3975   12.5475   -1.1150 C.3       4 GLC5        0.0000 
     24 CA         30.7270   13.4640   -1.8460 C.3      12 GLL5        0.0000 
     25 CA         34.0680   11.6310   -0.3840 C.3       8 GLP5        0.0000 
     26 CA         29.3510   11.4065   -4.3965 C.3       4 GLC5        0.0000 
     27 CA         29.3210   13.2360   -3.2560 C.3      12 GLL5        0.0000 
     28 CA         28.5825   15.0690   -4.1405 C.3       4 GLC5        0.0000 
     29 CA         28.5915   11.6915    0.6165 C.3       4 GLC5        0.0000 
     30 CA         29.3940   13.3110    0.3420 C.3      12 GLL5        0.0000 
     31 CA         27.7890   10.0720    0.8910 C.3       8 GLP5        0.0000 
     32 CA         32.6885   12.2890    0.6175 C.3       4 GLC5        0.0000 
     33 CA         31.3090   12.9470    1.6190 C.3      12 GLL5        0.0000 
     34 CA         30.7420   11.0275    1.2495 C.3       4 GLC5        0.0000 
     35 CA         30.1750    9.1080    0.8800 C.3       8 GLP5        0.0000 
     36 CA         32.0040   18.6720    2.2400 C.3       4 GLC5        0.0000 
     37 CA         31.6730   17.9520    0.2540 C.3      12 GLL5        0.0000 
     38 CA         32.3350   19.3920    4.2260 C.3       8 GLP5        0.0000 
     39 CA         34.1080   17.6575    1.9825 C.3       4 GLC5        0.0000 
     40 CA         32.4700   17.0190    0.8530 C.3      12 GLL5        0.0000 
     41 CA         35.7460   18.2960    3.1120 C.3       8 GLP5        0.0000 
     42 N          33.9890   20.8505    0.5060 N.am      2 SEC2        0.0000 
     43 N          33.0170   19.8210    0.2340 N.am     10 SEL2        0.0000 
     44 N          34.9610   21.8800    0.7780 N.am      6 SEP2        0.0000 
     45 CA         30.2505   21.1605    0.3790 C.3       4 GLC5        0.0000 
     46 CA         31.3750   21.3690   -1.2710 C.3      12 GLL5        0.0000 
     47 CA         29.1260   20.9520    2.0290 C.3       8 GLP5        0.0000 
     48 NZ         28.4440   22.6025   -1.3045 N.4       3 LYC4        0.0000 
     49 NZ         29.1690   21.1590   -1.6330 N.4      11 LYL4        0.0000 
     50 NZ         26.6010   23.3260   -0.9570 N.4       7 LYP4        0.0000 
     51 N          27.8035   21.5975   -1.4515 N.am      2 SEC2        0.0000 
     52 N          29.1690   21.1590   -1.6330 N.am     10 SEL2        0.0000 
     53 N          26.4380   22.0360   -1.2700 N.am      6 SEP2        0.0000 
     54 N          28.4440   22.6025   -1.3045 N.am      2 SEC2        0.0000 
     55 N          27.7190   24.0460   -0.9760 N.am      6 SEP2        0.0000 
     56 NZ         28.7170   23.6270   -1.2815 N.4       3 LYC4        0.0000 
     57 NZ         29.7150   23.2080   -1.5870 N.4      11 LYL4        0.0000 
     58 N          28.7170   23.6270   -1.2815 N.am      2 SEC2        0.0000 
     59 N          29.7150   23.2080   -1.5870 N.am     10 SEL2        0.0000 
     60 CA         32.5805   19.6535   -4.1875 C.3       4 GLC5        0.0000 
     61 CA         32.0840   21.1250   -2.6640 C.3      12 GLL5        0.0000 
     62 CA         33.0770   18.1820   -5.7110 C.3       8 GLP5        0.0000 
     63 CA         30.0850   19.3413    1.0742 C.3       4 GLC5        0.0000 
     64 CA         31.5000   16.7288    2.7275 C.3       4 GLC5        0.0000 
     65 CA         32.0340   15.7690    1.0460 C.3      12 GLL5        0.0000 
     66 CA         31.0520   17.1750    4.5680 C.3       8 GLP5        0.0000 
@<TRIPOS>BOND
@<TRIPOS>SUBSTRUCTURE
     1 ALC1       13 GROUP        1 X    ALC  0     ROOT ALC X 1
     2 SEC2        1 GROUP        1 X    SEC  0     **** SEC X 2
     3 LYC4       48 GROUP        1 X    LYC  0     **** LYC X 4
     4 GLC5        4 GROUP        1 X    GLC  0     **** GLC X 6
     5 ALP1       15 GROUP        1 Y    ALP  0     ROOT ALP Y 8
     6 SEP2        3 GROUP        1 Y    SEP  0     **** SEP Y 9
     7 LYP4       50 GROUP        1 Y    LYP  0     **** LYP Y 11
     8 GLP5        6 GROUP        1 Y    GLP  0     **** GLP Y 13
     9 ALL1       14 GROUP        1 Z    ALL  0     ROOT ALL Z 15
    10 SEL2        2 GROUP        1 Z    SEL  0     **** SEL Z 16
    11 LYL4       49 GROUP        1 Z    LYL  0     **** LYL Z 18
    12 GLL5        5 GROUP        1 Z    GLL  0     **** GLL Z 20
@<TRIPOS>SET

