#    Name: 1hfr_MOT_1_ligand
#    Modification time : Tue Mar 25 05:29:26 2014

@<TRIPOS>MOLECULE
1hfr_MOT_1_ligand
   52    54     1     0     0
SMALL
NO_CHARGES


@<TRIPOS>ATOM
      1 N1         28.8390   13.0610   -4.5270 N.ar      1 MOT188      0.0000 
      2 C2         27.5450   12.8100   -4.5610 C.ar      1 MOT188      0.0000 
      3 NA2        27.0150   12.6810   -5.8090 N.pl3     1 MOT188      0.0000 
      4 N3         26.8800   12.6090   -3.4980 N.ar      1 MOT188      0.0000 
      5 C4         27.2860   12.7760   -2.3040 C.ar      1 MOT188      0.0000 
      6 NA4        26.3060   12.5800   -1.4150 N.pl3     1 MOT188      0.0000 
      7 C4A        28.5490   13.1380   -2.1590 C.ar      1 MOT188      0.0000 
      8 C6         29.5740   13.3150   -1.1700 C.2       1 MOT188      0.0000 
      9 C7         30.7270   13.4640   -1.8460 C.2       1 MOT188      0.0000 
     10 O8         30.4980   13.4030   -3.0210 O.3       1 MOT188      0.0000 
     11 C8A        29.3210   13.2360   -3.2560 C.ar      1 MOT188      0.0000 
     12 C9         29.3940   13.3110    0.3420 C.3       1 MOT188      0.0000 
     13 N10        30.4330   14.0220    1.0770 N.pl3     1 MOT188      0.0000 
     14 CM         31.3090   12.9470    1.6190 C.3       1 MOT188      0.0000 
     15 C11        31.6730   17.9520    0.2540 C.ar      1 MOT188      0.0000 
     16 C12        30.4150   17.5090   -0.0150 C.ar      1 MOT188      0.0000 
     17 C13        29.9880   16.2290    0.2310 C.ar      1 MOT188      0.0000 
     18 C14        30.8180   15.3230    0.7960 C.ar      1 MOT188      0.0000 
     19 C15        32.0340   15.7690    1.0460 C.ar      1 MOT188      0.0000 
     20 C16        32.4700   17.0190    0.8530 C.ar      1 MOT188      0.0000 
     21 C          32.0200   19.2330   -0.0930 C.2       1 MOT188      0.0000 
     22 O          33.0170   19.8210    0.2340 O.2       1 MOT188      0.0000 
     23 N          31.1640   20.0030   -0.8050 N.am      1 MOT188      0.0000 
     24 CA         31.3750   21.3690   -1.2710 C.3       1 MOT188      0.0000 
     25 CT         30.0510   21.9950   -1.5190 C.2       1 MOT188      0.0000 
     26 O1         29.1690   21.1590   -1.6330 O.co2     1 MOT188      0.0000 
     27 O2         29.7150   23.2080   -1.5870 O.co2     1 MOT188      0.0000 
     28 CB         32.0840   21.1250   -2.6640 C.3       1 MOT188      0.0000 
     29 CG         32.5270   22.4010   -3.3760 C.3       1 MOT188      0.0000 
     30 CD         33.6090   21.9500   -4.3460 C.2       1 MOT188      0.0000 
     31 OE1        33.9670   20.7850   -4.3140 O.co2     1 MOT188      0.0000 
     32 OE2        34.1330   22.8200   -4.9990 O.co2     1 MOT188      0.0000 
     33 H          26.0352   12.4862   -5.8529 H         1 MOT188      0.0000 
     34 H          27.6524   12.7925   -6.5714 H         1 MOT188      0.0000 
     35 H          25.6295   11.8828   -1.6523 H         1 MOT188      0.0000 
     36 H          26.3377   13.1482   -0.5927 H         1 MOT188      0.0000 
     37 H          31.5941   13.5998   -1.3642 H         1 MOT188      0.0000 
     38 H          29.3396   12.2503    0.6759 H         1 MOT188      0.0000 
     39 H          28.3937   13.7448    0.5673 H         1 MOT188      0.0000 
     40 H          29.7195   18.1908   -0.4404 H         1 MOT188      0.0000 
     41 H          29.0137   15.9605   -0.0228 H         1 MOT188      0.0000 
     42 H          32.7567   15.0582    1.4476 H         1 MOT188      0.0000 
     43 H          33.4310   17.2970    1.1603 H         1 MOT188      0.0000 
     44 H          30.2044   19.5941   -1.0786 H         1 MOT188      0.0000 
     45 H          31.9937   21.9084   -0.6735 H         1 MOT188      0.0000 
     46 H          31.3829   20.5685   -3.3007 H         1 MOT188      0.0000 
     47 H          32.9536   20.4781   -2.4854 H         1 MOT188      0.0000 
     48 H          32.9365   23.0831   -2.6679 H         1 MOT188      0.0000 
     49 H          31.7065   22.8143   -3.9149 H         1 MOT188      0.0000 
     50 H          31.7060   12.3888    0.8904 H         1 MOT188      0.0000 
     51 H          32.0698   13.3203    2.1499 H         1 MOT188      0.0000 
     52 H          30.8067   12.3275    2.2223 H         1 MOT188      0.0000 
@<TRIPOS>BOND
     1    2    1 ar   
     2   11    1 ar   
     3    3    2 1    
     4    4    2 ar   
     5   33    3 1    
     6   34    3 1    
     7    5    4 ar   
     8    6    5 1    
     9    7    5 ar   
    10   35    6 1    
    11   36    6 1    
    12    8    7 1    
    13   11    7 ar   
    14    9    8 2    
    15   12    8 1    
    16   10    9 1    
    17   37    9 1    
    18   11   10 1    
    19   13   12 1    
    20   38   12 1    
    21   39   12 1    
    22   14   13 1    
    23   18   13 1    
    24   50   14 1    
    25   51   14 1    
    26   52   14 1    
    27   16   15 ar   
    28   20   15 ar   
    29   21   15 1    
    30   17   16 ar   
    31   40   16 1    
    32   18   17 ar   
    33   41   17 1    
    34   19   18 ar   
    35   20   19 ar   
    36   42   19 1    
    37   43   20 1    
    38   22   21 2    
    39   23   21 am   
    40   24   23 1    
    41   44   23 1    
    42   25   24 1    
    43   28   24 1    
    44   45   24 1    
    45   26   25 ar   
    46   27   25 ar   
    47   29   28 1    
    48   46   28 1    
    49   47   28 1    
    50   30   29 1    
    51   48   29 1    
    52   49   29 1    
    53   31   30 ar   
    54   32   30 ar   
@<TRIPOS>SUBSTRUCTURE
     1 MOT188      1 GROUP   
@<TRIPOS>SET

