#    Name: 2qu3_462_1_INTS_M
#    Modification time : Mon Mar 24 22:51:23 2014

@<TRIPOS>MOLECULE
2qu3_462_1_INTS_M
   54     0     9     0     0
SMALL
NO_CHARGES


@<TRIPOS>ATOM
      1 CA          7.1525   -4.5055   15.6500 C.3       3 GLC5        0.0000 
      2 CA          8.5370   -3.2560   14.7620 C.3       9 GLL5        0.0000 
      3 CA          5.7680   -5.7550   16.5380 C.3       6 GLP5        0.0000 
      4 CA         10.0075   -5.6670   13.4900 C.3       3 GLC5        0.0000 
      5 CA          9.6450   -4.2670   14.7850 C.3       9 GLL5        0.0000 
      6 CA         10.3700   -7.0670   12.1950 C.3       6 GLP5        0.0000 
      7 CA         16.2725   -9.2485   15.0235 C.3       3 GLC5        0.0000 
      8 CA         14.7640   -8.9120   16.2320 C.3       9 GLL5        0.0000 
      9 CA         17.7810   -9.5850   13.8150 C.3       6 GLP5        0.0000 
     10 O          15.5850   -7.1880   14.4120 O.2       1 ALC1        0.0000 
     11 O          15.7340   -6.8080   15.7290 O.2       7 ALL1        0.0000 
     12 O          15.4360   -7.5680   13.0950 O.2       4 ALP1        0.0000 
     13 OD1        15.9425   -6.2075   13.9485 O.co2     2 ASC3        0.0000 
     14 OD1        16.2580   -5.6490   15.8760 O.co2     8 ASL3        0.0000 
     15 OD1        15.7990   -5.5860   12.2090 O.co2     5 ASP3        0.0000 
     16 OD1        15.5850   -7.1880   14.4120 O.co2     2 ASC3        0.0000 
     17 OD1        15.4360   -7.5680   13.0950 O.co2     5 ASP3        0.0000 
     18 OD1        16.7535   -3.5820   14.7840 O.co2     2 ASC3        0.0000 
     19 OD1        17.0580   -2.3170   14.7660 O.co2     5 ASP3        0.0000 
     20 O          16.1240   -5.2165   13.5055 O.2       1 ALC1        0.0000 
     21 O          16.4490   -4.8470   14.8020 O.2       7 ALL1        0.0000 
     22 O          15.7990   -5.5860   12.2090 O.2       4 ALP1        0.0000 
     23 O          15.9425   -6.2075   13.9485 O.2       1 ALC1        0.0000 
     24 O          16.7535   -3.5820   14.7840 O.2       1 ALC1        0.0000 
     25 O          17.0580   -2.3170   14.7660 O.2       4 ALP1        0.0000 
     26 CA         16.4555  -11.0325   14.7735 C.3       3 GLC5        0.0000 
     27 CA         15.1300  -12.4800   15.7320 C.3       9 GLL5        0.0000 
     28 CA         15.0525  -14.3535   16.2205 C.3       3 GLC5        0.0000 
     29 CA         14.9750  -16.2270   16.7090 C.3       6 GLP5        0.0000 
     30 CA         13.0410  -12.3725   16.2835 C.3       3 GLC5        0.0000 
     31 CA         10.9520  -12.2650   16.8350 C.3       6 GLP5        0.0000 
     32 CA         14.0440  -12.6020   14.0180 C.3       3 GLC5        0.0000 
     33 CA         12.9580  -12.7240   12.3040 C.3       6 GLP5        0.0000 
     34 CA          6.7948   -2.3985   13.8483 C.3       3 GLC5        0.0000 
     35 CA          4.8910   -2.1580   13.3250 C.3       6 GLP5        0.0000 
     36 CA          8.1848   -2.5885   12.5777 C.3       3 GLC5        0.0000 
     37 CA          8.8600   -2.0220   13.9810 C.3       9 GLL5        0.0000 
     38 CA          7.6710   -2.5380   10.7840 C.3       6 GLP5        0.0000 
     39 CA          7.7600   -6.3942   16.3227 C.3       3 GLC5        0.0000 
     40 CA          9.9380   -6.3600   15.9930 C.3       9 GLL5        0.0000 
     41 CA         10.4355   -6.7831   14.2099 C.3       3 GLC5        0.0000 
     42 CA         13.8080   -9.4735   14.9273 C.3       3 GLC5        0.0000 
     43 CA         13.2360   -9.7110   13.0520 C.3       6 GLP5        0.0000 
     44 CA         16.4692  -12.6350   19.5292 C.3       3 GLC5        0.0000 
     45 CA         15.8980  -11.0980   18.0410 C.3       9 GLL5        0.0000 
     46 CA         16.5270  -14.3660   20.5440 C.3       6 GLP5        0.0000 
     47 CA         17.4608  -13.0023   19.4273 C.3       3 GLC5        0.0000 
     48 CA         18.2290  -11.2180   18.8530 C.3       9 GLL5        0.0000 
     49 CA         19.0665  -13.8395   17.7317 C.3       3 GLC5        0.0000 
     50 CA         18.5600  -12.0590   17.7680 C.3       9 GLL5        0.0000 
     51 CA         20.0660  -15.4290   18.1630 C.3       6 GLP5        0.0000 
     52 CA         17.3475  -10.8895   15.3515 C.3       3 GLC5        0.0000 
     53 CA         17.5740  -12.4410   16.8330 C.3       9 GLL5        0.0000 
     54 CA         16.7205  -13.2800   18.7160 C.3       3 GLC5        0.0000 
@<TRIPOS>BOND
@<TRIPOS>SUBSTRUCTURE
     1 ALC1       10 GROUP        1 X    ALC  0     ROOT ALC X 1
     2 ASC3       13 GROUP        1 X    ASC  0     **** ASC X 3
     3 GLC5        1 GROUP        1 X    GLC  0     **** GLC X 6
     4 ALP1       12 GROUP        1 Y    ALP  0     ROOT ALP Y 8
     5 ASP3       15 GROUP        1 Y    ASP  0     **** ASP Y 10
     6 GLP5        3 GROUP        1 Y    GLP  0     **** GLP Y 13
     7 ALL1       11 GROUP        1 Z    ALL  0     ROOT ALL Z 15
     8 ASL3       14 GROUP        1 Z    ASL  0     **** ASL Z 17
     9 GLL5        2 GROUP        1 Z    GLL  0     **** GLL Z 20
@<TRIPOS>SET

