#    Name: 2qu3_462_1_ligand
#    Modification time : Mon Mar 24 22:51:23 2014

@<TRIPOS>MOLECULE
2qu3_462_1_ligand
   51    53     1     0     0
SMALL
NO_CHARGES


@<TRIPOS>ATOM
      1 C1          8.8600   -2.0220   13.9810 C.3       1 4621        0.0000 
      2 C2          8.5370   -3.2560   14.7620 C.3       1 4621        0.0000 
      3 C3          9.6450   -4.2670   14.7850 C.3       1 4621        0.0000 
      4 O1          9.1350   -5.4170   15.4240 O.3       1 4621        0.0000 
      5 C4          9.9380   -6.3600   15.9930 C.ar      1 4621        0.0000 
      6 C5          9.5660   -7.7070   16.2220 C.ar      1 4621        0.0000 
      7 C6         10.4550   -8.6200   16.8300 C.ar      1 4621        0.0000 
      8 C7         11.7580   -8.2410   17.1800 C.ar      1 4621        0.0000 
      9 C8         12.1190   -6.8710   16.9410 C.ar      1 4621        0.0000 
     10 C9         11.2500   -5.9650   16.3420 C.ar      1 4621        0.0000 
     11 C10        12.6740   -9.2070   17.8060 C.2       1 4621        0.0000 
     12 C11        12.3170  -10.0170   18.9300 C.2       1 4621        0.0000 
     13 S1         13.5460  -11.0820   19.4240 S.3       1 4621        0.0000 
     14 C12        14.5830  -10.5440   18.2130 C.2       1 4621        0.0000 
     15 C13        13.9960   -9.5600   17.3730 C.2       1 4621        0.0000 
     16 C14        14.7640   -8.9120   16.2320 C.3       1 4621        0.0000 
     17 C15        15.4510   -7.6670   16.7550 C.2       1 4621        0.0000 
     18 O2         15.7470   -7.6040   17.9260 O.2       1 4621        0.0000 
     19 N1         15.7340   -6.8080   15.7290 N.am      1 4621        0.0000 
     20 C16        16.2580   -5.6490   15.8760 C.cat     1 4621        0.0000 
     21 N2         16.7670   -5.1010   16.9950 N.pl3     1 4621        0.0000 
     22 N3         16.4490   -4.8470   14.8020 N.pl3     1 4621        0.0000 
     23 C17        15.8980  -11.0980   18.0410 C.ar      1 4621        0.0000 
     24 C18        16.9250  -10.7100   18.9880 C.ar      1 4621        0.0000 
     25 C19        18.2290  -11.2180   18.8530 C.ar      1 4621        0.0000 
     26 C20        18.5600  -12.0590   17.7680 C.ar      1 4621        0.0000 
     27 C21        17.5740  -12.4410   16.8330 C.ar      1 4621        0.0000 
     28 C22        16.2540  -11.9470   16.9430 C.ar      1 4621        0.0000 
     29 CL1        15.1300  -12.4800   15.7320 Cl        1 4621        0.0000 
     30 H           7.6263   -3.7268   14.3406 H         1 4621        0.0000 
     31 H           8.2837   -2.9731   15.8033 H         1 4621        0.0000 
     32 H          10.4899   -3.8400   15.3238 H         1 4621        0.0000 
     33 H           9.9480   -4.4694   13.7585 H         1 4621        0.0000 
     34 H           8.6285   -8.0251   15.9390 H         1 4621        0.0000 
     35 H          10.1353   -9.5825   17.0181 H         1 4621        0.0000 
     36 H          13.0668   -6.5650   17.2328 H         1 4621        0.0000 
     37 H          11.5527   -5.0037   16.1484 H         1 4621        0.0000 
     38 H          11.5338  -10.0568   19.4288 H         1 4621        0.0000 
     39 H          14.0758   -8.6431   15.4416 H         1 4621        0.0000 
     40 H          15.5045   -9.6058   15.8565 H         1 4621        0.0000 
     41 H          15.4848   -7.1651   14.7387 H         1 4621        0.0000 
     42 H          16.1992   -5.2336   13.9142 H         1 4621        0.0000 
     43 H          16.8229   -3.9392   14.9917 H         1 4621        0.0000 
     44 H          16.6837  -10.0723   19.7397 H         1 4621        0.0000 
     45 H          18.9460  -10.9779   19.5452 H         1 4621        0.0000 
     46 H          19.5218  -12.3938   17.6590 H         1 4621        0.0000 
     47 H          17.8153  -13.0797   16.0701 H         1 4621        0.0000 
     48 H           9.6559   -1.5446   14.3532 H         1 4621        0.0000 
     49 H           9.0642   -2.2306   13.0246 H         1 4621        0.0000 
     50 H           8.1005   -1.3715   13.9834 H         1 4621        0.0000 
     51 H          16.6150   -5.7838   17.7097 H         1 4621        0.0000 
@<TRIPOS>BOND
     1    2    1 1    
     2   48    1 1    
     3   49    1 1    
     4   50    1 1    
     5    3    2 1    
     6   30    2 1    
     7   31    2 1    
     8    4    3 1    
     9   32    3 1    
    10   33    3 1    
    11    5    4 1    
    12    6    5 ar   
    13   10    5 ar   
    14    7    6 ar   
    15   34    6 1    
    16    8    7 ar   
    17   35    7 1    
    18    9    8 ar   
    19   11    8 1    
    20   10    9 ar   
    21   36    9 1    
    22   37   10 1    
    23   12   11 2    
    24   15   11 1    
    25   13   12 1    
    26   38   12 1    
    27   14   13 1    
    28   15   14 2    
    29   23   14 1    
    30   16   15 1    
    31   17   16 1    
    32   39   16 1    
    33   40   16 1    
    34   18   17 2    
    35   19   17 am   
    36   20   19 1    
    37   41   19 1    
    38   21   20 ar   
    39   22   20 ar   
    40   51   21 1    
    41   42   22 1    
    42   43   22 1    
    43   24   23 ar   
    44   28   23 ar   
    45   25   24 ar   
    46   44   24 1    
    47   26   25 ar   
    48   45   25 1    
    49   27   26 ar   
    50   46   26 1    
    51   28   27 ar   
    52   47   27 1    
    53   29   28 1    
@<TRIPOS>SUBSTRUCTURE
     1 4621        1 GROUP   
@<TRIPOS>SET

