#    Name: 4ne2_SH2_1_INTS_M
#    Modification time : Tue Mar 25 13:02:07 2014

@<TRIPOS>MOLECULE
4ne2_SH2_1_INTS_M
   52     0     9     0     0
SMALL
NO_CHARGES


@<TRIPOS>ATOM
      1 CA        -34.8425  -18.4570   10.4580 C.3       3 GLC5        0.0000 
      2 CA        -34.3000  -17.1140   11.4250 C.3       9 GLL5        0.0000 
      3 CA        -35.3850  -19.8000    9.4910 C.3       6 GLP5        0.0000 
      4 CA        -35.2165  -16.5975   13.0745 C.3       3 GLC5        0.0000 
      5 CA        -36.1330  -16.0810   14.7240 C.3       6 GLP5        0.0000 
      6 CA        -35.1345  -15.4865   11.1670 C.3       3 GLC5        0.0000 
      7 CA        -35.9690  -13.8590   10.9090 C.3       6 GLP5        0.0000 
      8 CA        -33.1500  -15.7200   12.2175 C.3       3 GLC5        0.0000 
      9 CA        -32.0000  -14.3260   13.0100 C.3       6 GLP5        0.0000 
     10 N         -33.3915  -17.9265   13.2350 N.am      2 SEC2        0.0000 
     11 N         -33.0770  -17.8240   11.6920 N.am      8 SEL2        0.0000 
     12 N         -33.7060  -18.0290   14.7780 N.am      5 SEP2        0.0000 
     13 N         -32.9125  -18.7990   12.6575 N.am      2 SEC2        0.0000 
     14 N         -32.7480  -19.7740   13.6230 N.am      5 SEP2        0.0000 
     15 CA        -29.3135  -15.7735    6.2850 C.3       3 GLC5        0.0000 
     16 CA        -30.6630  -17.2040    6.8380 C.3       9 GLL5        0.0000 
     17 CA        -27.9640  -14.3430    5.7320 C.3       6 GLP5        0.0000 
     18 CA        -30.9870  -15.6120    8.0185 C.3       3 GLC5        0.0000 
     19 CA        -31.3110  -14.0200    9.1990 C.3       6 GLP5        0.0000 
     20 CA        -32.7985  -17.6065    4.8375 C.3       3 GLC5        0.0000 
     21 CA        -31.2720  -18.2320    5.8590 C.3       9 GLL5        0.0000 
     22 CA        -34.3250  -16.9810    3.8160 C.3       6 GLP5        0.0000 
     23 O         -29.3745  -19.6880    6.2540 O.2       1 ALC1        0.0000 
     24 O         -30.8130  -19.5990    6.2030 O.2       7 ALL1        0.0000 
     25 O         -27.9360  -19.7770    6.3050 O.2       4 ALP1        0.0000 
     26 N         -33.8000  -19.6245    7.2270 N.am      2 SEC2        0.0000 
     27 N         -32.7830  -20.4310    7.0740 N.am      8 SEL2        0.0000 
     28 N         -34.8170  -18.8180    7.3800 N.am      5 SEP2        0.0000 
     29 N         -33.7395  -21.3845    7.3250 N.am      2 SEC2        0.0000 
     30 N         -34.6960  -22.3380    7.5760 N.am      5 SEP2        0.0000 
     31 CA        -31.6140  -23.2575    5.5330 C.3       3 GLC5        0.0000 
     32 CA        -30.9010  -21.8610    7.0040 C.3       9 GLL5        0.0000 
     33 CA        -32.3270  -24.6540    4.0620 C.3       6 GLP5        0.0000 
     34 CA        -32.4435  -22.4325   10.2570 C.3       3 GLC5        0.0000 
     35 CA        -31.1270  -22.0880    8.4860 C.3       9 GLL5        0.0000 
     36 CA        -33.7600  -22.7770   12.0280 C.3       6 GLP5        0.0000 
     37 CA        -28.0010  -25.3240    9.4220 C.3       3 GLC5        0.0000 
     38 CA        -28.1590  -23.3690   10.3290 C.3       9 GLL5        0.0000 
     39 CA        -27.8430  -27.2790    8.5150 C.3       6 GLP5        0.0000 
     40 CA        -24.9735  -24.4910   13.1710 C.3       3 GLC5        0.0000 
     41 CA        -26.6080  -24.4290   11.9240 C.3       9 GLL5        0.0000 
     42 CA        -23.3390  -24.5530   14.4180 C.3       6 GLP5        0.0000 
     43 CA        -25.0005  -20.8105   11.1365 C.3       3 GLC5        0.0000 
     44 CA        -26.5260  -21.9740   11.5290 C.3       9 GLL5        0.0000 
     45 CA        -23.4750  -19.6470   10.7440 C.3       6 GLP5        0.0000 
     46 O         -26.0735  -21.6580   14.1215 O.2       1 ALC1        0.0000 
     47 O         -26.3360  -21.2860   12.7520 O.2       7 ALL1        0.0000 
     48 O         -25.8110  -22.0300   15.4910 O.2       4 ALP1        0.0000 
     49 CA        -28.9973  -18.2445    6.4808 C.3       3 GLC5        0.0000 
     50 CA        -27.0270  -18.7710    6.6130 C.3       6 GLP5        0.0000 
     51 CA        -25.1294  -23.4001   10.8302 C.3       3 GLC5        0.0000 
     52 CA        -23.4790  -23.9080    9.9960 C.3       6 GLP5        0.0000 
@<TRIPOS>BOND
@<TRIPOS>SUBSTRUCTURE
     1 ALC1       23 GROUP        1 X    ALC  0     ROOT ALC X 1
     2 SEC2       10 GROUP        1 X    SEC  0     **** SEC X 2
     3 GLC5        1 GROUP        1 X    GLC  0     **** GLC X 6
     4 ALP1       25 GROUP        1 Y    ALP  0     ROOT ALP Y 8
     5 SEP2       12 GROUP        1 Y    SEP  0     **** SEP Y 9
     6 GLP5        3 GROUP        1 Y    GLP  0     **** GLP Y 13
     7 ALL1       24 GROUP        1 Z    ALL  0     ROOT ALL Z 15
     8 SEL2       11 GROUP        1 Z    SEL  0     **** SEL Z 16
     9 GLL5        2 GROUP        1 Z    GLL  0     **** GLL Z 20
@<TRIPOS>SET

