#    Name: 4ne2_SH2_1_ligand
#    Modification time : Tue Mar 25 13:02:07 2014

@<TRIPOS>MOLECULE
4ne2_SH2_1_ligand
   52    53     1     0     0
SMALL
NO_CHARGES


@<TRIPOS>ATOM
      1 CAZ       -32.5100  -17.0430    8.3740 C.ar      1 SH2402      0.0000 
      2 CAY       -33.0470  -17.2160    9.5830 C.ar      1 SH2402      0.0000 
      3 OAX       -34.3190  -16.9210   10.0020 O.3       1 SH2402      0.0000 
      4 CAW       -34.3000  -17.1140   11.4250 C.3       1 SH2402      0.0000 
      5 OAV       -33.0770  -17.8240   11.6920 O.3       1 SH2402      0.0000 
      6 CAU       -32.3260  -17.7410   10.5760 C.ar      1 SH2402      0.0000 
      7 CAT       -31.0510  -18.0980   10.3980 C.ar      1 SH2402      0.0000 
      8 CAS       -30.4350  -17.9380    9.1550 C.ar      1 SH2402      0.0000 
      9 CAR       -31.1930  -17.3970    8.1190 C.ar      1 SH2402      0.0000 
     10 CAQ       -30.6630  -17.2040    6.8380 C.3       1 SH2402      0.0000 
     11 CAP       -31.2720  -18.2320    5.8590 C.3       1 SH2402      0.0000 
     12 NAO       -30.8130  -19.5990    6.2030 N.am      1 SH2402      0.0000 
     13 CAM       -31.6000  -20.5530    6.7440 C.2       1 SH2402      0.0000 
     14 OAN       -32.7830  -20.4310    7.0740 O.2       1 SH2402      0.0000 
     15 CAL       -30.9010  -21.8610    7.0040 C.3       1 SH2402      0.0000 
     16 CAK       -31.1270  -22.0880    8.4860 C.3       1 SH2402      0.0000 
     17 NAJ       -29.9750  -22.7740    9.0020 N.am      1 SH2402      0.0000 
     18 CAH       -29.2850  -22.3750   10.0620 C.2       1 SH2402      0.0000 
     19 OAI       -29.5240  -21.3800   10.7530 O.2       1 SH2402      0.0000 
     20 CAF       -28.1590  -23.3690   10.3290 C.3       1 SH2402      0.0000 
     21 OAG       -28.7540  -24.6650   10.2340 O.3       1 SH2402      0.0000 
     22 CAB       -27.4590  -23.1920   11.6760 C.3       1 SH2402      0.0000 
     23 CAA       -26.6080  -24.4290   11.9240 C.3       1 SH2402      0.0000 
     24 CAC       -28.4670  -23.0790   12.8430 C.3       1 SH2402      0.0000 
     25 CAD       -26.5260  -21.9740   11.5290 C.3       1 SH2402      0.0000 
     26 OAE       -26.3360  -21.2860   12.7520 O.3       1 SH2402      0.0000 
     27 H         -33.0710  -16.6362    7.5910 H         1 SH2402      0.0000 
     28 H         -35.1576  -17.6996   11.7436 H         1 SH2402      0.0000 
     29 H         -34.3060  -16.1583   11.9413 H         1 SH2402      0.0000 
     30 H         -30.4890  -18.5014   11.1757 H         1 SH2402      0.0000 
     31 H         -29.4701  -18.2066    9.0132 H         1 SH2402      0.0000 
     32 H         -29.5732  -17.3389    6.8049 H         1 SH2402      0.0000 
     33 H         -30.8850  -16.2073    6.4327 H         1 SH2402      0.0000 
     34 H         -30.9626  -17.9648    4.8493 H         1 SH2402      0.0000 
     35 H         -32.3572  -18.1625    5.9244 H         1 SH2402      0.0000 
     36 H         -29.7989  -19.7859    5.9915 H         1 SH2402      0.0000 
     37 H         -29.8612  -21.7669    6.8089 H         1 SH2402      0.0000 
     38 H         -31.3600  -22.6399    6.4466 H         1 SH2402      0.0000 
     39 H         -32.0326  -22.6777    8.6084 H         1 SH2402      0.0000 
     40 H         -31.2648  -21.1208    8.9640 H         1 SH2402      0.0000 
     41 H         -29.6946  -23.6490    8.4711 H         1 SH2402      0.0000 
     42 H         -27.4219  -23.2503    9.5337 H         1 SH2402      0.0000 
     43 H         -26.9681  -21.3206   10.7510 H         1 SH2402      0.0000 
     44 H         -25.5701  -22.3480   11.1117 H         1 SH2402      0.0000 
     45 H         -25.9223  -24.5578   11.2076 H         1 SH2402      0.0000 
     46 H         -26.1168  -24.3737   12.7933 H         1 SH2402      0.0000 
     47 H         -27.1618  -25.2611   11.9527 H         1 SH2402      0.0000 
     48 H         -28.0054  -22.9666   13.7229 H         1 SH2402      0.0000 
     49 H         -29.0788  -22.2960   12.7308 H         1 SH2402      0.0000 
     50 H         -29.0432  -23.8930   12.9162 H         1 SH2402      0.0000 
     51 H         -28.7740  -24.8693    9.2553 H         1 SH2402      0.0000 
     52 H         -26.2057  -22.0043   13.4354 H         1 SH2402      0.0000 
@<TRIPOS>BOND
     1    2    1 ar   
     2    9    1 ar   
     3   27    1 1    
     4    3    2 1    
     5    6    2 ar   
     6    4    3 1    
     7    5    4 1    
     8   28    4 1    
     9   29    4 1    
    10    6    5 1    
    11    7    6 ar   
    12    8    7 ar   
    13   30    7 1    
    14    9    8 ar   
    15   31    8 1    
    16   10    9 1    
    17   11   10 1    
    18   32   10 1    
    19   33   10 1    
    20   12   11 1    
    21   34   11 1    
    22   35   11 1    
    23   13   12 am   
    24   36   12 1    
    25   14   13 2    
    26   15   13 1    
    27   16   15 1    
    28   37   15 1    
    29   38   15 1    
    30   17   16 1    
    31   39   16 1    
    32   40   16 1    
    33   18   17 am   
    34   41   17 1    
    35   19   18 2    
    36   20   18 1    
    37   21   20 1    
    38   22   20 1    
    39   42   20 1    
    40   51   21 1    
    41   23   22 1    
    42   24   22 1    
    43   25   22 1    
    44   45   23 1    
    45   46   23 1    
    46   47   23 1    
    47   48   24 1    
    48   49   24 1    
    49   50   24 1    
    50   26   25 1    
    51   43   25 1    
    52   44   25 1    
    53   52   26 1    
@<TRIPOS>SUBSTRUCTURE
     1 SH2402      1 GROUP   
@<TRIPOS>SET

