#    Name: 1TCS_1_CAVITY_N1_6.mol2
#    Modification time : Tue Mar 11 10:46:32 2014

@<TRIPOS>MOLECULE
1TCS_1_CAVITY_N1_6.mol2
   94     0     6     0     0
SMALL
NO_CHARGES


@<TRIPOS>ATOM
      1 NZ         20.0032  -10.5750   42.2676 N.2       3 LYS4        0.0000 
      2 CA         20.1934   -9.7948   41.0007 C.3       5 GLY6        0.0000 
      3 O          20.3836   -9.0146   39.7337 O.2       2 ALA2        0.0000 
      4 NZ         18.6042  -12.0189   42.9443 N.2       3 LYS4        0.0000 
      5 NZ         18.7944  -11.2387   41.6774 N.2       3 LYS4        0.0000 
      6 DU         18.9846  -10.4585   40.4105 H         6 CUB7        0.0000 
      7 DU         19.1748   -9.6783   39.1435 H         6 CUB7        0.0000 
      8 N          17.5856  -11.9024   41.0872 N.2       2 ALA2        0.0000 
      9 DU         17.7758  -11.1222   39.8203 H         6 CUB7        0.0000 
     10 DU         17.9660  -10.3420   38.5534 H         6 CUB7        0.0000 
     11 N          16.5670  -11.7859   39.2301 N.2       2 ALA2        0.0000 
     12 N          16.7572  -11.0057   37.9632 N.2       2 ALA2        0.0000 
     13 DU         16.9474  -10.2255   36.6962 H         6 CUB7        0.0000 
     14 OG         17.1376   -9.4452   35.4293 O.2       1 SER1        0.0000 
     15 N          15.5484  -11.6693   37.3730 N.2       2 ALA2        0.0000 
     16 OG         15.7386  -10.8891   36.1061 O.2       1 SER1        0.0000 
     17 CA         19.5161   -7.9188   40.2783 C.3       5 GLY6        0.0000 
     18 CZ         17.9269  -10.1429   42.2220 C.ar      4 PHE5        0.0000 
     19 CZ         18.1171   -9.3627   40.9551 C.ar      4 PHE5        0.0000 
     20 DU         18.3073   -8.5825   39.6881 H         6 CUB7        0.0000 
     21 CA         18.4975   -7.8023   38.4212 C.3       5 GLY6        0.0000 
     22 N          16.7181  -10.8066   41.6318 N.2       2 ALA2        0.0000 
     23 CZ         16.9083  -10.0264   40.3649 C.ar      4 PHE5        0.0000 
     24 DU         17.0985   -9.2462   39.0979 H         6 CUB7        0.0000 
     25 DU         17.2887   -8.4660   37.8310 H         6 CUB7        0.0000 
     26 OG         17.4789   -7.6858   36.5641 O.2       1 SER1        0.0000 
     27 N          15.6995  -10.6900   39.7747 N.2       2 ALA2        0.0000 
     28 N          15.8897   -9.9098   38.5078 N.2       2 ALA2        0.0000 
     29 DU         16.0799   -9.1296   37.2408 H         6 CUB7        0.0000 
     30 OG         16.2701   -8.3494   35.9739 O.2       1 SER1        0.0000 
     31 N          14.6809  -10.5735   37.9176 N.2       2 ALA2        0.0000 
     32 OG         14.8711   -9.7933   36.6507 O.2       1 SER1        0.0000 
     33 OG         15.0613   -9.0131   35.3837 O.2       1 SER1        0.0000 
     34 CA         19.0290   -5.2626   38.2891 C.3       5 GLY6        0.0000 
     35 CZ         19.2192   -4.4824   37.0221 C.ar      4 PHE5        0.0000 
     36 CZ         19.4094   -3.7022   35.7552 C.ar      4 PHE5        0.0000 
     37 CZ         17.4398   -7.4867   40.2327 C.ar      4 PHE5        0.0000 
     38 CA         17.6300   -6.7065   38.9658 C.3       5 GLY6        0.0000 
     39 OG         17.8202   -5.9263   37.6989 O.2       1 SER1        0.0000 
     40 CZ         18.0104   -5.1461   36.4319 C.ar      4 PHE5        0.0000 
     41 CZ         16.0408   -8.9306   40.9095 C.ar      4 PHE5        0.0000 
     42 CZ         16.2310   -8.1503   39.6425 C.ar      4 PHE5        0.0000 
     43 DU         16.4212   -7.3701   38.3756 H         6 CUB7        0.0000 
     44 OG         16.6114   -6.5899   37.1087 O.2       1 SER1        0.0000 
     45 N          14.8320   -9.5942   40.3193 N.2       2 ALA2        0.0000 
     46 N          15.0222   -8.8140   39.0524 N.2       2 ALA2        0.0000 
     47 DU         15.2124   -8.0338   37.7854 H         6 CUB7        0.0000 
     48 OG         15.4026   -7.2536   36.5185 O.2       1 SER1        0.0000 
     49 N          14.0036   -8.6975   37.1952 N.2       2 ALA2        0.0000 
     50 OG         14.1938   -7.9173   35.9283 O.2       1 SER1        0.0000 
     51 CA         12.7947   -9.3612   36.6051 C.3       5 GLY6        0.0000 
     52 O          19.5605   -2.7229   38.1569 O.2       2 ALA2        0.0000 
     53 NZ         19.7507   -1.9427   36.8900 N.2       3 LYS4        0.0000 
     54 CA         17.9713   -4.9470   40.1006 C.3       5 GLY6        0.0000 
     55 N          18.1615   -4.1668   38.8336 N.2       2 ALA2        0.0000 
     56 CZ         18.3517   -3.3866   37.5667 C.ar      4 PHE5        0.0000 
     57 CZ         18.5419   -2.6064   36.2998 C.ar      4 PHE5        0.0000 
     58 CZ         16.5722   -6.3909   40.7773 C.ar      4 PHE5        0.0000 
     59 N          16.7625   -5.6107   39.5104 N.2       2 ALA2        0.0000 
     60 CZ         16.9527   -4.8304   38.2435 C.ar      4 PHE5        0.0000 
     61 CZ         17.1429   -4.0502   36.9765 C.ar      4 PHE5        0.0000 
     62 CZ         15.3634   -7.0545   40.1871 C.ar      4 PHE5        0.0000 
     63 DU         15.5536   -6.2743   38.9202 H         6 CUB7        0.0000 
     64 CZ         15.7438   -5.4941   37.6533 C.ar      4 PHE5        0.0000 
     65 NZ         14.1546   -7.7182   39.5969 N.2       3 LYS4        0.0000 
     66 O          14.3448   -6.9380   38.3300 O.2       2 ALA2        0.0000 
     67 CZ         14.5350   -6.1578   37.0631 C.ar      4 PHE5        0.0000 
     68 NZ         12.9458   -8.3819   39.0068 N.2       3 LYS4        0.0000 
     69 O          13.1360   -7.6017   37.7398 O.2       2 ALA2        0.0000 
     70 O          13.3262   -6.8215   36.4729 O.2       2 ALA2        0.0000 
     71 CA         18.6929   -1.6271   38.7015 C.3       5 GLY6        0.0000 
     72 N          17.4841   -2.2907   38.1113 N.2       2 ALA2        0.0000 
     73 CZ         17.6743   -1.5105   36.8444 C.ar      4 PHE5        0.0000 
     74 CZ         15.7047   -5.2950   41.3219 C.ar      4 PHE5        0.0000 
     75 N          15.8949   -4.5148   40.0550 N.2       2 ALA2        0.0000 
     76 N          16.0851   -3.7346   38.7881 N.2       2 ALA2        0.0000 
     77 CZ         16.2753   -2.9544   37.5211 C.ar      4 PHE5        0.0000 
     78 CZ         14.4959   -5.9587   40.7317 C.ar      4 PHE5        0.0000 
     79 O          14.6861   -5.1785   39.4648 O.2       2 ALA2        0.0000 
     80 CZ         14.8763   -4.3983   38.1979 C.ar      4 PHE5        0.0000 
     81 O          13.4773   -5.8422   38.8746 O.2       2 ALA2        0.0000 
     82 CA         17.8254   -0.5313   39.2461 C.3       5 GLY6        0.0000 
     83 N          16.4264   -1.9751   39.9228 N.2       2 ALA2        0.0000 
     84 N          16.6166   -1.1949   38.6559 N.2       2 ALA2        0.0000 
     85 CA         16.8068   -0.4147   37.3890 C.3       5 GLY6        0.0000 
     86 CA         15.0274   -3.4190   40.5996 C.3       5 GLY6        0.0000 
     87 N          15.2176   -2.6388   39.3326 N.2       2 ALA2        0.0000 
     88 CA         15.4078   -1.8586   38.0657 C.3       5 GLY6        0.0000 
     89 CA         13.8186   -4.0827   40.0094 C.3       5 GLY6        0.0000 
     90 O          14.0088   -3.3025   38.7425 O.2       2 ALA2        0.0000 
     91 CA         15.5589   -0.8793   40.4674 C.3       5 GLY6        0.0000 
     92 N          15.7491   -0.0991   39.2005 N.2       2 ALA2        0.0000 
     93 CA         14.3501   -1.5430   39.8772 C.3       5 GLY6        0.0000 
     94 CA         13.1413   -2.2067   39.2871 C.3       5 GLY6        0.0000 
@<TRIPOS>BOND
@<TRIPOS>SUBSTRUCTURE
     1 SER1       14 GROUP   
     2 ALA2        3 GROUP   
     3 LYS4        1 GROUP   
     4 PHE5       18 GROUP   
     5 GLY6        2 GROUP   
     6 CUB7        6 GROUP   
@<TRIPOS>SET

