#    Name: 1tcs_NDP_1_INTS_M
#    Modification time : Tue Mar 25 04:47:54 2014

@<TRIPOS>MOLECULE
1tcs_NDP_1_INTS_M
   71     0     9     0     0
SMALL
NO_CHARGES


@<TRIPOS>ATOM
      1 N          12.6840  -11.7595   35.3290 N.am      2 SEC2        0.0000 
      2 N          12.9140  -11.2220   36.3600 N.am      8 SEL2        0.0000 
      3 N          12.4540  -12.2970   34.2980 N.am      5 SEP2        0.0000 
      4 CA         11.3940   -9.5665   37.5350 C.3       3 GLC5        0.0000 
      5 CA         12.3310   -8.2340   38.8380 C.3       9 GLL5        0.0000 
      6 CA         10.4570  -10.8990   36.2320 C.3       6 GLP5        0.0000 
      7 N          10.5380   -8.2840   39.5735 N.am      2 SEC2        0.0000 
      8 N          11.2060   -9.1480   38.7180 N.am      8 SEL2        0.0000 
      9 N           9.8700   -7.4200   40.4290 N.am      5 SEP2        0.0000 
     10 O          12.0025  -10.1810   39.2895 O.2       1 ALC1        0.0000 
     11 O          11.2060   -9.1480   38.7180 O.2       7 ALL1        0.0000 
     12 O          12.7990  -11.2140   39.8610 O.2       4 ALP1        0.0000 
     13 CA         14.2330   -1.1905   38.0305 C.3       3 GLC5        0.0000 
     14 CA         15.1180   -1.9050   39.9170 C.3       9 GLL5        0.0000 
     15 CA         13.3480   -0.4760   36.1440 C.3       6 GLP5        0.0000 
     16 CA         15.0740   -1.4170   41.7035 C.3       3 GLC5        0.0000 
     17 CA         15.0300   -0.9290   43.4900 C.3       6 GLP5        0.0000 
     18 O          17.2235   -1.7665   40.8045 O.2       1 ALC1        0.0000 
     19 O          15.9780   -1.0140   40.3410 O.2       7 ALL1        0.0000 
     20 O          18.4690   -2.5190   41.2680 O.2       4 ALP1        0.0000 
     21 N          13.6975   -0.1610   38.5905 N.am      2 SEC2        0.0000 
     22 N          13.8970   -1.4900   39.3260 N.am      8 SEL2        0.0000 
     23 N          13.4980    1.1680   37.8550 N.am      5 SEP2        0.0000 
     24 CA         13.1850   -1.4210   37.5030 C.3       3 GLC5        0.0000 
     25 CA         13.0220   -2.3660   38.8620 C.3       9 GLL5        0.0000 
     26 CA         12.7455   -2.6155   40.6685 C.3       3 GLC5        0.0000 
     27 CA         12.4690   -2.8650   42.4750 C.3       6 GLP5        0.0000 
     28 CA         11.2080   -2.3620   39.1535 C.3       3 GLC5        0.0000 
     29 CA          9.3940   -2.3580   39.4450 C.3       6 GLP5        0.0000 
     30 N          12.0470   -4.7085   38.6420 N.am      2 SEC2        0.0000 
     31 N          13.0910   -3.7710   38.9020 N.am      8 SEL2        0.0000 
     32 N          11.0030   -5.6460   38.3820 N.am      5 SEP2        0.0000 
     33 N          12.3655   -4.1205   37.7630 N.am      2 SEC2        0.0000 
     34 N          11.6400   -4.4700   36.6240 N.am      5 SEP2        0.0000 
     35 N          15.2220  -10.9265   34.5340 N.am      2 SEC2        0.0000 
     36 N          15.6020  -10.8920   35.9210 N.am      8 SEL2        0.0000 
     37 N          14.8420  -10.9610   33.1470 N.am      5 SEP2        0.0000 
     38 CA         15.6020  -16.8480   33.5870 C.3       3 GLC5        0.0000 
     39 CA         17.4560  -16.5600   33.4750 C.3       9 GLL5        0.0000 
     40 CA         13.7480  -17.1360   33.6990 C.3       6 GLP5        0.0000 
     41 CA         15.7745  -13.9950   32.8475 C.3       3 GLC5        0.0000 
     42 CA         16.8030  -15.6080   32.3960 C.3       9 GLL5        0.0000 
     43 CA         14.7460  -12.3820   33.2990 C.3       6 GLP5        0.0000 
     44 CA         15.0390  -15.8960   32.4995 C.3       3 GLC5        0.0000 
     45 CA         13.2750  -16.1840   32.6030 C.3       6 GLP5        0.0000 
     46 CA         14.7625  -16.8520   31.8680 C.3       3 GLC5        0.0000 
     47 CA         16.2500  -17.5200   31.1330 C.3       9 GLL5        0.0000 
     48 N          14.0335  -20.1780   29.8660 N.am      2 SEC2        0.0000 
     49 N          14.8450  -19.9400   31.2770 N.am      8 SEL2        0.0000 
     50 N          13.2220  -20.4160   28.4550 N.am      5 SEP2        0.0000 
     51 CA         13.8117   -6.1830   35.9402 C.3       3 GLC5        0.0000 
     52 CA         13.1680   -8.3650   36.4000 C.3       9 GLL5        0.0000 
     53 CA         14.5920   -4.4700   34.9130 C.3       6 GLP5        0.0000 
     54 CA         12.0248   -8.0535   35.6967 C.3       3 GLC5        0.0000 
     55 CA         12.8950   -7.4270   37.5350 C.3       9 GLL5        0.0000 
     56 CA         11.0180   -8.2110   34.4260 C.3       6 GLP5        0.0000 
     57 CA         10.6925   -7.3102   37.6808 C.3       3 GLC5        0.0000 
     58 CA          8.7720   -6.7900   37.1750 C.3       6 GLP5        0.0000 
     59 CA         11.9947   -9.7625   40.4567 C.3       3 GLC5        0.0000 
     60 CA         11.0790  -11.2370   41.5880 C.3       6 GLP5        0.0000 
     61 CA         14.1483   -7.6562   41.4335 C.3       3 GLC5        0.0000 
     62 CA         13.4900   -8.3420   39.8130 C.3       9 GLL5        0.0000 
     63 CA         14.5800   -7.6430   43.1620 C.3       6 GLP5        0.0000 
     64 CA         13.5872   -3.3392   41.1500 C.3       3 GLC5        0.0000 
     65 CA         14.1930   -4.2630   39.5730 C.3       9 GLL5        0.0000 
     66 CA         16.5983  -12.9962   33.6247 C.3       3 GLC5        0.0000 
     67 CA         18.4660  -13.0190   34.3380 C.3       9 GLL5        0.0000 
     68 CA         15.7295  -17.4455   29.0485 C.3       3 GLC5        0.0000 
     69 CA         14.9880  -16.8140   27.2560 C.3       6 GLP5        0.0000 
     70 CA         16.4922  -16.9146   28.5450 C.3       3 GLC5        0.0000 
     71 CA         17.8670  -18.5800   29.5900 C.3       9 GLL5        0.0000 
@<TRIPOS>BOND
@<TRIPOS>SUBSTRUCTURE
     1 ALC1       10 GROUP        1 X    ALC  0     ROOT ALC X 1
     2 SEC2        1 GROUP        1 X    SEC  0     **** SEC X 2
     3 GLC5        4 GROUP        1 X    GLC  0     **** GLC X 6
     4 ALP1       12 GROUP        1 Y    ALP  0     ROOT ALP Y 8
     5 SEP2        3 GROUP        1 Y    SEP  0     **** SEP Y 9
     6 GLP5        6 GROUP        1 Y    GLP  0     **** GLP Y 13
     7 ALL1       11 GROUP        1 Z    ALL  0     ROOT ALL Z 15
     8 SEL2        2 GROUP        1 Z    SEL  0     **** SEL Z 16
     9 GLL5        5 GROUP        1 Z    GLL  0     **** GLL Z 20
@<TRIPOS>SET

