#    Name: 1tcs_NDP_1_ligand
#    Modification time : Tue Mar 25 04:47:54 2014

@<TRIPOS>MOLECULE
1tcs_NDP_1_ligand
   73    77     1     0     0
SMALL
NO_CHARGES


@<TRIPOS>ATOM
      1 PA         14.3000  -10.7460   36.6720 P.3       1 NDP280      0.0000 
      2 O1A        12.9140  -11.2220   36.3600 O.co2     1 NDP280      0.0000 
      3 O2A        14.5310  -11.0840   38.1910 O.co2     1 NDP280      0.0000 
      4 O5B        14.2770   -9.0330   36.5600 O.3       1 NDP280      0.0000 
      5 C5B        13.1680   -8.3650   36.4000 C.3       1 NDP280      0.0000 
      6 C4B        12.8950   -7.4270   37.5350 C.3       1 NDP280      0.0000 
      7 O4B        14.2850   -7.1050   38.1430 O.3       1 NDP280      0.0000 
      8 C3B        12.3310   -8.2340   38.8380 C.3       1 NDP280      0.0000 
      9 O3B        11.2060   -9.1480   38.7180 O.3       1 NDP280      0.0000 
     10 C2B        13.4900   -8.3420   39.8130 C.3       1 NDP280      0.0000 
     11 O2B        14.3350   -9.4090   39.6610 O.3       1 NDP280      0.0000 
     12 C1B        13.9430   -6.9970   39.5970 C.3       1 NDP280      0.0000 
     13 N9A        14.5420   -5.5760   39.9170 N.pl3     1 NDP280      0.0000 
     14 C8A        15.8050   -5.3690   40.5160 C.2       1 NDP280      0.0000 
     15 N7A        16.1620   -4.1170   40.6840 N.2       1 NDP280      0.0000 
     16 C5A        15.2180   -3.3640   40.0770 C.ar      1 NDP280      0.0000 
     17 C6A        15.1180   -1.9050   39.9170 C.ar      1 NDP280      0.0000 
     18 N6A        15.9780   -1.0140   40.3410 N.pl3     1 NDP280      0.0000 
     19 N1A        13.8970   -1.4900   39.3260 N.ar      1 NDP280      0.0000 
     20 C2A        13.0220   -2.3660   38.8620 C.ar      1 NDP280      0.0000 
     21 N3A        13.0910   -3.7710   38.9020 N.ar      1 NDP280      0.0000 
     22 C4A        14.1930   -4.2630   39.5730 C.ar      1 NDP280      0.0000 
     23 O3         15.6020  -10.8920   35.9210 O.3       1 NDP280      0.0000 
     24 PN         17.1870  -11.0150   35.5770 P.3       1 NDP280      0.0000 
     25 O1N        17.7590   -9.7550   35.0170 O.co2     1 NDP280      0.0000 
     26 O2N        17.7860  -11.8520   36.6960 O.co2     1 NDP280      0.0000 
     27 O5D        17.3140  -12.1360   34.3540 O.3       1 NDP280      0.0000 
     28 C5D        18.4660  -13.0190   34.3380 C.3       1 NDP280      0.0000 
     29 C4D        18.4350  -14.2020   33.5630 C.3       1 NDP280      0.0000 
     30 O4D        17.2260  -14.2710   32.5960 O.3       1 NDP280      0.0000 
     31 C3D        18.3810  -15.6160   34.2420 C.3       1 NDP280      0.0000 
     32 O3D        19.6860  -16.0000   34.5380 O.3       1 NDP280      0.0000 
     33 C2D        17.4560  -16.5600   33.4750 C.3       1 NDP280      0.0000 
     34 O2D        17.9050  -17.6510   33.0750 O.3       1 NDP280      0.0000 
     35 C1D        16.8030  -15.6080   32.3960 C.3       1 NDP280      0.0000 
     36 N1N        16.7960  -16.2150   31.0370 N.pl3     1 NDP280      0.0000 
     37 C2N        16.2500  -17.5200   31.1330 C.2       1 NDP280      0.0000 
     38 C3N        16.6920  -18.6340   30.5490 C.2       1 NDP280      0.0000 
     39 C7N        16.0160  -19.9480   30.8050 C.2       1 NDP280      0.0000 
     40 O7N        14.8450  -19.9400   31.2770 O.2       1 NDP280      0.0000 
     41 N7N        16.8530  -21.0460   30.4530 N.am      1 NDP280      0.0000 
     42 C4N        17.8670  -18.5800   29.5900 C.3       1 NDP280      0.0000 
     43 C5N        18.3930  -17.1750   29.4620 C.2       1 NDP280      0.0000 
     44 C6N        17.8630  -16.1530   30.1420 C.2       1 NDP280      0.0000 
     45 P2B        15.9510   -9.6550   39.6290 P.3       1 NDP280      0.0000 
     46 O1X        16.3620  -11.0450   39.4850 O.co2     1 NDP280      0.0000 
     47 O2X        16.5190   -8.9250   40.8040 O.co2     1 NDP280      0.0000 
     48 O3X        16.3390   -8.9180   38.3340 O.co2     1 NDP280      0.0000 
     49 H          12.2530   -9.0166   36.3059 H         1 NDP280      0.0000 
     50 H          13.1448   -7.7379   35.4636 H         1 NDP280      0.0000 
     51 H          12.3758   -6.6256   37.3789 H         1 NDP280      0.0000 
     52 H          11.7767   -7.1943   39.3594 H         1 NDP280      0.0000 
     53 H          12.9661   -8.3203   40.8093 H         1 NDP280      0.0000 
     54 H          12.7248   -6.4945   39.1795 H         1 NDP280      0.0000 
     55 H          16.3625   -6.1693   40.7814 H         1 NDP280      0.0000 
     56 H          12.1177   -1.9798   38.3795 H         1 NDP280      0.0000 
     57 H          18.7235  -13.2838   35.4264 H         1 NDP280      0.0000 
     58 H          19.3854  -12.3953   34.0435 H         1 NDP280      0.0000 
     59 H          19.3173  -14.2701   32.8630 H         1 NDP280      0.0000 
     60 H          17.8349  -15.3816   35.2266 H         1 NDP280      0.0000 
     61 H          16.5636  -16.6657   34.2175 H         1 NDP280      0.0000 
     62 H          15.6718  -15.6470   32.7448 H         1 NDP280      0.0000 
     63 H          15.3666  -17.5877   31.7651 H         1 NDP280      0.0000 
     64 H          16.4611  -21.9570   30.5816 H         1 NDP280      0.0000 
     65 H          17.7619  -20.8132   30.1070 H         1 NDP280      0.0000 
     66 H          17.5467  -18.9425   28.6101 H         1 NDP280      0.0000 
     67 H          18.6597  -19.2365   29.9573 H         1 NDP280      0.0000 
     68 H          19.1909  -17.0705   28.8097 H         1 NDP280      0.0000 
     69 H          18.2906  -15.1686   29.9979 H         1 NDP280      0.0000 
     70 H          11.5327  -10.0120   39.1011 H         1 NDP280      0.0000 
     71 H          16.7607   -1.5444   40.6666 H         1 NDP280      0.0000 
     72 H          20.2542  -15.2295   34.2491 H         1 NDP280      0.0000 
     73 H          18.8706  -17.6442   33.3348 H         1 NDP280      0.0000 
@<TRIPOS>BOND
     1    2    1 ar   
     2    3    1 ar   
     3    4    1 1    
     4   23    1 1    
     5    5    4 1    
     6    6    5 1    
     7   49    5 1    
     8   50    5 1    
     9    7    6 1    
    10    8    6 1    
    11   51    6 1    
    12   12    7 1    
    13    9    8 1    
    14   10    8 1    
    15   52    8 1    
    16   70    9 1    
    17   11   10 1    
    18   12   10 1    
    19   53   10 1    
    20   45   11 1    
    21   13   12 1    
    22   54   12 1    
    23   14   13 1    
    24   22   13 1    
    25   15   14 2    
    26   55   14 1    
    27   16   15 1    
    28   17   16 ar   
    29   22   16 ar   
    30   18   17 1    
    31   19   17 ar   
    32   71   18 1    
    33   20   19 ar   
    34   21   20 ar   
    35   56   20 1    
    36   22   21 ar   
    37   24   23 1    
    38   25   24 ar   
    39   26   24 ar   
    40   27   24 1    
    41   28   27 1    
    42   29   28 1    
    43   57   28 1    
    44   58   28 1    
    45   30   29 1    
    46   31   29 1    
    47   59   29 1    
    48   35   30 1    
    49   32   31 1    
    50   33   31 1    
    51   60   31 1    
    52   72   32 1    
    53   34   33 1    
    54   35   33 1    
    55   61   33 1    
    56   73   34 1    
    57   36   35 1    
    58   62   35 1    
    59   37   36 1    
    60   44   36 1    
    61   38   37 2    
    62   63   37 1    
    63   39   38 1    
    64   42   38 1    
    65   40   39 2    
    66   41   39 am   
    67   64   41 1    
    68   65   41 1    
    69   43   42 1    
    70   66   42 1    
    71   67   42 1    
    72   44   43 2    
    73   68   43 1    
    74   69   44 1    
    75   46   45 ar   
    76   47   45 ar   
    77   48   45 ar   
@<TRIPOS>SUBSTRUCTURE
     1 NDP280      1 GROUP   
@<TRIPOS>SET

