#    Name: 4bfd_8T3_1_INTS_M
#    Modification time : Tue Mar 25 07:35:48 2014

@<TRIPOS>MOLECULE
4bfd_8T3_1_INTS_M
   61     0     6     0     0
SMALL
NO_CHARGES


@<TRIPOS>ATOM
      1 CA        -20.3070   43.0140   83.5715 C.3       2 GLC5        0.0000 
      2 CA        -20.2360   43.8350   85.5230 C.3       6 GLL5        0.0000 
      3 CA        -20.3780   42.1930   81.6200 C.3       4 GLP5        0.0000 
      4 CA        -19.0200   44.5590   84.5200 C.3       2 GLC5        0.0000 
      5 CA        -17.8040   45.2830   83.5170 C.3       4 GLP5        0.0000 
      6 CA        -18.2605   41.2275   88.1795 C.3       2 GLC5        0.0000 
      7 CA        -19.7720   42.1000   87.5340 C.3       6 GLL5        0.0000 
      8 CA        -16.7490   40.3550   88.8250 C.3       4 GLP5        0.0000 
      9 CA        -18.1580   43.1340   88.4270 C.3       2 GLC5        0.0000 
     10 CA        -16.5440   44.1680   89.3200 C.3       4 GLP5        0.0000 
     11 CA        -20.7655   45.4785   87.7645 C.3       2 GLC5        0.0000 
     12 CA        -21.7350   43.5090   87.8430 C.3       6 GLL5        0.0000 
     13 CA        -19.7960   47.4480   87.6860 C.3       4 GLP5        0.0000 
     14 O         -18.8920   41.1930   90.8605 O.2       1 ALC1        0.0000 
     15 O         -20.1530   40.5820   91.2430 O.2       5 ALL1        0.0000 
     16 O         -17.6310   41.8040   90.4780 O.2       3 ALP1        0.0000 
     17 CA        -18.3475   37.7740   97.4800 C.3       2 GLC5        0.0000 
     18 CA        -19.0790   38.4290   96.1810 C.3       6 GLL5        0.0000 
     19 CA        -17.6160   37.1190   98.7790 C.3       4 GLP5        0.0000 
     20 CA        -19.9980   37.1305   96.3505 C.3       2 GLC5        0.0000 
     21 CA        -20.9170   35.8320   96.5200 C.3       4 GLP5        0.0000 
     22 CA        -17.6915   40.0370   90.8320 C.3       2 GLC5        0.0000 
     23 CA        -18.6340   39.7190   92.8390 C.3       6 GLL5        0.0000 
     24 CA        -15.0795   36.4540   94.2270 C.3       2 GLC5        0.0000 
     25 CA        -16.8430   37.3910   94.8140 C.3       6 GLL5        0.0000 
     26 CA        -13.3160   35.5170   93.6400 C.3       4 GLP5        0.0000 
     27 CA        -18.4465   36.5430   93.9280 C.3       2 GLC5        0.0000 
     28 CA        -20.0500   35.6950   93.0420 C.3       4 GLP5        0.0000 
     29 CA        -15.8835   38.7560   97.1595 C.3       2 GLC5        0.0000 
     30 CA        -16.4530   39.7010   95.6720 C.3       6 GLL5        0.0000 
     31 CA        -15.3140   37.8110   98.6470 C.3       4 GLP5        0.0000 
     32 CA        -15.6765   40.0020   97.3835 C.3       2 GLC5        0.0000 
     33 CA        -15.7280   41.0300   95.4320 C.3       6 GLL5        0.0000 
     34 CA        -15.6250   38.9740   99.3350 C.3       4 GLP5        0.0000 
     35 O         -15.7470   37.9540   92.5030 O.2       1 ALC1        0.0000 
     36 O         -15.9670   39.0470   93.3510 O.2       5 ALL1        0.0000 
     37 O         -15.5270   36.8610   91.6550 O.2       3 ALP1        0.0000 
     38 O         -14.7270   39.1295   90.9680 O.2       1 ALC1        0.0000 
     39 O         -14.6610   40.1340   91.8830 O.2       5 ALL1        0.0000 
     40 O         -14.7930   38.1250   90.0530 O.2       3 ALP1        0.0000 
     41 O         -15.0940   38.4975   91.7690 O.2       1 ALC1        0.0000 
     42 O         -13.8260   41.1255   91.3205 O.2       1 ALC1        0.0000 
     43 O         -12.9910   42.1170   90.7580 O.2       3 ALP1        0.0000 
     44 CA        -19.4432   45.1175   86.8042 C.3       2 GLC5        0.0000 
     45 CA        -20.6130   43.1030   87.0980 C.3       6 GLL5        0.0000 
     46 CA        -18.4620   46.7660   87.2980 C.3       4 GLP5        0.0000 
     47 CA        -21.3111   41.8422   86.1921 C.3       2 GLC5        0.0000 
     48 CA        -22.5240   40.9000   85.4620 C.3       4 GLP5        0.0000 
     49 CA        -23.7400   42.7503   87.8073 C.3       2 GLC5        0.0000 
     50 CA        -25.6340   42.3080   87.1650 C.3       4 GLP5        0.0000 
     51 CA        -21.9998   41.7101   87.2069 C.3       2 GLC5        0.0000 
     52 CA        -19.7560   38.6137   91.1363 C.3       2 GLC5        0.0000 
     53 CA        -19.9580   39.9740   92.4860 C.3       6 GLL5        0.0000 
     54 CA        -20.2160   37.3810   89.6100 C.3       4 GLP5        0.0000 
     55 CA        -20.2652   37.7758   92.9915 C.3       2 GLC5        0.0000 
     56 CA        -19.8045   37.2216   94.2683 C.3       2 GLC5        0.0000 
     57 CA        -20.7070   39.2020   94.6470 C.3       6 GLL5        0.0000 
     58 CA        -19.2640   37.5755   93.2492 C.3       2 GLC5        0.0000 
     59 CA        -18.3220   39.1930   94.0740 C.3       6 GLL5        0.0000 
     60 CA        -16.5797   37.5132   96.5050 C.3       2 GLC5        0.0000 
     61 CA        -16.2960   36.8940   98.3730 C.3       4 GLP5        0.0000 
@<TRIPOS>BOND
@<TRIPOS>SUBSTRUCTURE
     1 ALC1       14 GROUP        1 X    ALC  0     ROOT ALC X 1
     2 GLC5        1 GROUP        1 X    GLC  0     **** GLC X 6
     3 ALP1       16 GROUP        1 Y    ALP  0     ROOT ALP Y 8
     4 GLP5        3 GROUP        1 Y    GLP  0     **** GLP Y 13
     5 ALL1       15 GROUP        1 Z    ALL  0     ROOT ALL Z 15
     6 GLL5        2 GROUP        1 Z    GLL  0     **** GLL Z 20
@<TRIPOS>SET

