#    Name: 4bfd_8T3_1_ligand
#    Modification time : Tue Mar 25 07:35:48 2014

@<TRIPOS>MOLECULE
4bfd_8T3_1_ligand
   45    48     1     0     0
SMALL
NO_CHARGES


@<TRIPOS>ATOM
      1 CL        -20.2360   43.8350   85.5230 Cl        1 8T31447     0.0000 
      2 C21       -20.6130   43.1030   87.0980 C.ar      1 8T31447     0.0000 
      3 C20       -19.7720   42.1000   87.5340 C.ar      1 8T31447     0.0000 
      4 N10       -20.0320   41.5170   88.7030 N.ar      1 8T31447     0.0000 
      5 C25       -21.7350   43.5090   87.8430 C.ar      1 8T31447     0.0000 
      6 C18       -21.9570   42.8760   89.0560 C.ar      1 8T31447     0.0000 
      7 C12       -21.1050   41.8480   89.4540 C.ar      1 8T31447     0.0000 
      8 C8        -21.2610   41.1730   90.7760 C.2       1 8T31447     0.0000 
      9 O16       -22.3270   41.2030   91.3530 O.2       1 8T31447     0.0000 
     10 N11       -20.1530   40.5820   91.2430 N.am      1 8T31447     0.0000 
     11 C15       -19.9580   39.9740   92.4860 C.ar      1 8T31447     0.0000 
     12 C22       -21.0030   39.7390   93.3960 C.ar      1 8T31447     0.0000 
     13 C19       -20.7070   39.2020   94.6470 C.ar      1 8T31447     0.0000 
     14 C13       -19.3710   38.9330   94.9690 C.ar      1 8T31447     0.0000 
     15 F23       -19.0790   38.4290   96.1810 F         1 8T31447     0.0000 
     16 C14       -18.6340   39.7190   92.8390 C.ar      1 8T31447     0.0000 
     17 C7        -18.3220   39.1930   94.0740 C.ar      1 8T31447     0.0000 
     18 C2        -16.8840   38.8740   94.4600 C.3       1 8T31447     0.0000 
     19 C24       -16.8430   37.3910   94.8140 C.3       1 8T31447     0.0000 
     20 C9        -16.4530   39.7010   95.6720 C.3       1 8T31447     0.0000 
     21 C4        -15.7280   41.0300   95.4320 C.3       1 8T31447     0.0000 
     22 C6        -16.3540   41.9170   94.3490 C.3       1 8T31447     0.0000 
     23 C3        -15.0390   41.1870   94.0720 C.3       1 8T31447     0.0000 
     24 C5        -15.2570   40.0710   93.0820 C.2       1 8T31447     0.0000 
     25 N1        -15.9670   39.0470   93.3510 N.pl3     1 8T31447     0.0000 
     26 N17       -14.6610   40.1340   91.8830 N.pl3     1 8T31447     0.0000 
     27 H         -18.9679   41.8246   86.9529 H         1 8T31447     0.0000 
     28 H         -22.3473   44.2323   87.5000 H         1 8T31447     0.0000 
     29 H         -22.7374   43.1583   89.6551 H         1 8T31447     0.0000 
     30 H         -19.2805   40.5619   90.5850 H         1 8T31447     0.0000 
     31 H         -21.9644   39.9608   93.1384 H         1 8T31447     0.0000 
     32 H         -21.4476   39.0072   95.3184 H         1 8T31447     0.0000 
     33 H         -17.8808   39.9296   92.1605 H         1 8T31447     0.0000 
     34 H         -15.8028   39.0594   96.3246 H         1 8T31447     0.0000 
     35 H         -17.3600   39.9047   96.3016 H         1 8T31447     0.0000 
     36 H         -15.2991   41.5821   96.0432 H         1 8T31447     0.0000 
     37 H         -16.1427   42.8127   94.5613 H         1 8T31447     0.0000 
     38 H         -17.0464   41.4196   93.9427 H         1 8T31447     0.0000 
     39 H         -14.3558   41.7926   94.1432 H         1 8T31447     0.0000 
     40 H         -15.9255   38.1626   92.7097 H         1 8T31447     0.0000 
     41 H         -14.0797   40.9316   91.7219 H         1 8T31447     0.0000 
     42 H         -14.8510   39.3777   91.2569 H         1 8T31447     0.0000 
     43 H         -15.9251   37.0984   95.0821 H         1 8T31447     0.0000 
     44 H         -17.4539   37.1739   95.5754 H         1 8T31447     0.0000 
     45 H         -17.1200   36.8174   94.0432 H         1 8T31447     0.0000 
@<TRIPOS>BOND
     1    2    1 1    
     2    3    2 ar   
     3    5    2 ar   
     4    4    3 ar   
     5   27    3 1    
     6    7    4 ar   
     7    6    5 ar   
     8   28    5 1    
     9    7    6 ar   
    10   29    6 1    
    11    8    7 1    
    12    9    8 2    
    13   10    8 am   
    14   11   10 1    
    15   30   10 1    
    16   12   11 ar   
    17   16   11 ar   
    18   13   12 ar   
    19   31   12 1    
    20   14   13 ar   
    21   32   13 1    
    22   15   14 1    
    23   17   14 ar   
    24   17   16 ar   
    25   33   16 1    
    26   18   17 1    
    27   19   18 1    
    28   20   18 1    
    29   25   18 1    
    30   43   19 1    
    31   44   19 1    
    32   45   19 1    
    33   21   20 1    
    34   34   20 1    
    35   35   20 1    
    36   22   21 1    
    37   23   21 1    
    38   36   21 1    
    39   23   22 1    
    40   37   22 1    
    41   38   22 1    
    42   24   23 1    
    43   39   23 1    
    44   25   24 1    
    45   26   24 2    
    46   40   25 1    
    47   41   26 1    
    48   42   26 1    
@<TRIPOS>SUBSTRUCTURE
     1 8T31447     1 GROUP   
@<TRIPOS>SET

