#    Name: 3R8H_1_CAVITY_N1_6.mol2
#    Modification time : Mon Mar 10 19:40:52 2014

@<TRIPOS>MOLECULE
3R8H_1_CAVITY_N1_6.mol2
  117     0     6     0     0
SMALL
NO_CHARGES


@<TRIPOS>ATOM
      1 CZ         36.7313   28.0738   16.8630 C.ar      4 PHE5        0.0000 
      2 DU         35.3700   31.1249   17.1583 H         6 CUB7        0.0000 
      3 CZ         34.8148   29.3106   18.1070 C.ar      4 PHE5        0.0000 
      4 DU         35.3501   29.6802   16.7554 H         6 CUB7        0.0000 
      5 CZ         35.8853   30.0498   15.4037 C.ar      4 PHE5        0.0000 
      6 CZ         34.2597   27.4962   19.0556 C.ar      4 PHE5        0.0000 
      7 CZ         34.7949   27.8659   17.7040 C.ar      4 PHE5        0.0000 
      8 CZ         35.3302   28.2355   16.3524 C.ar      4 PHE5        0.0000 
      9 CZ         35.8654   28.6051   15.0008 C.ar      4 PHE5        0.0000 
     10 CZ         35.3103   26.7908   15.9494 C.ar      4 PHE5        0.0000 
     11 CZ         35.8455   27.1604   14.5978 C.ar      4 PHE5        0.0000 
     12 CZ         35.2904   25.3460   15.5465 C.ar      4 PHE5        0.0000 
     13 CA         33.9888   32.7314   17.0506 C.3       5 GLY6        0.0000 
     14 CA         33.4336   30.9170   17.9993 C.3       5 GLY6        0.0000 
     15 CA         33.9689   31.2866   16.6477 C.3       5 GLY6        0.0000 
     16 CA         34.5041   31.6563   15.2961 C.3       5 GLY6        0.0000 
     17 CZ         33.4137   29.4723   17.5964 C.ar      4 PHE5        0.0000 
     18 CA         33.9490   29.8419   16.2447 C.3       5 GLY6        0.0000 
     19 CZ         34.4842   30.2115   14.8931 C.ar      4 PHE5        0.0000 
     20 CZ         33.3938   28.0276   17.1934 C.ar      4 PHE5        0.0000 
     21 DU         33.9291   28.3972   15.8418 H         6 CUB7        0.0000 
     22 CZ         34.4643   28.7668   14.4901 C.ar      4 PHE5        0.0000 
     23 CZ         32.3034   25.8436   19.4937 C.ar      4 PHE5        0.0000 
     24 CZ         32.8387   26.2132   18.1421 C.ar      4 PHE5        0.0000 
     25 CZ         33.3739   26.5829   16.7904 C.ar      4 PHE5        0.0000 
     26 DU         33.9092   26.9525   15.4388 H         6 CUB7        0.0000 
     27 CZ         34.4444   27.3221   14.0872 C.ar      4 PHE5        0.0000 
     28 OG         32.2835   24.3989   19.0907 O.2       1 SER1        0.0000 
     29 CZ         32.8188   24.7685   17.7391 C.ar      4 PHE5        0.0000 
     30 CZ         33.3540   25.1381   16.3875 C.ar      4 PHE5        0.0000 
     31 CZ         33.8893   25.5078   15.0359 C.ar      4 PHE5        0.0000 
     32 CZ         34.4245   25.8774   13.6842 C.ar      4 PHE5        0.0000 
     33 CA         32.7989   23.3238   17.3361 C.3       5 GLY6        0.0000 
     34 CZ         33.3341   23.6934   15.9845 C.ar      4 PHE5        0.0000 
     35 CZ         33.3142   22.2487   15.5816 C.ar      4 PHE5        0.0000 
     36 CZ         33.2943   20.8040   15.1786 C.ar      4 PHE5        0.0000 
     37 CA         33.1030   31.8180   14.7854 C.3       5 GLY6        0.0000 
     38 CA         33.0831   30.3733   14.3825 C.3       5 GLY6        0.0000 
     39 CZ         31.9927   28.1893   16.6828 C.ar      4 PHE5        0.0000 
     40 CA         32.5280   28.5589   15.3311 C.3       5 GLY6        0.0000 
     41 CZ         33.0632   28.9285   13.9795 C.ar      4 PHE5        0.0000 
     42 CZ         30.9023   26.0053   18.9831 C.ar      4 PHE5        0.0000 
     43 CZ         31.4376   26.3750   17.6314 C.ar      4 PHE5        0.0000 
     44 CZ         31.9728   26.7446   16.2798 C.ar      4 PHE5        0.0000 
     45 DU         32.5081   27.1142   14.9282 H         6 CUB7        0.0000 
     46 CZ         33.0433   27.4838   13.5766 C.ar      4 PHE5        0.0000 
     47 OG         30.8824   24.5606   18.5801 O.2       1 SER1        0.0000 
     48 OG         31.4176   24.9302   17.2285 O.2       1 SER1        0.0000 
     49 DU         31.9529   25.2999   15.8768 H         6 CUB7        0.0000 
     50 DU         32.4882   25.6695   14.5252 H         6 CUB7        0.0000 
     51 CZ         33.0234   26.0391   13.1736 C.ar      4 PHE5        0.0000 
     52 CA         31.3977   23.4855   16.8255 C.3       5 GLY6        0.0000 
     53 DU         31.9330   23.8551   15.4739 H         6 CUB7        0.0000 
     54 CZ         32.4683   24.2248   14.1223 C.ar      4 PHE5        0.0000 
     55 CZ         33.0035   24.5944   12.7706 C.ar      4 PHE5        0.0000 
     56 O          33.5388   24.9640   11.4190 O.2       2 ALA2        0.0000 
     57 CA         31.9131   22.4104   15.0709 C.3       5 GLY6        0.0000 
     58 CZ         32.4484   22.7800   13.7193 C.ar      4 PHE5        0.0000 
     59 CA         31.3579   20.5961   16.0196 C.3       5 GLY6        0.0000 
     60 CZ         31.8932   20.9657   14.6680 C.ar      4 PHE5        0.0000 
     61 CZ         32.4285   21.3353   13.3164 C.ar      4 PHE5        0.0000 
     62 CA         31.7019   31.9797   14.2748 C.3       5 GLY6        0.0000 
     63 CA         31.6820   30.5350   13.8719 C.3       5 GLY6        0.0000 
     64 CZ         32.2173   30.9046   12.5202 C.ar      4 PHE5        0.0000 
     65 CA         30.5916   28.3510   16.1721 C.3       5 GLY6        0.0000 
     66 CA         31.1269   28.7206   14.8205 C.3       5 GLY6        0.0000 
     67 DU         31.6621   29.0903   13.4689 H         6 CUB7        0.0000 
     68 CZ         32.1974   29.4599   12.1173 C.ar      4 PHE5        0.0000 
     69 CZ         30.0364   26.5367   17.1208 C.ar      4 PHE5        0.0000 
     70 N          30.5717   26.9063   15.7692 N.2       2 ALA2        0.0000 
     71 N          31.1070   27.2759   14.4176 N.2       2 ALA2        0.0000 
     72 CZ         31.6422   27.6455   13.0659 C.ar      4 PHE5        0.0000 
     73 CZ         32.1775   28.0152   11.7143 C.ar      4 PHE5        0.0000 
     74 CA         30.0165   25.0920   16.7178 C.3       5 GLY6        0.0000 
     75 N          30.5518   25.4616   15.3662 N.2       2 ALA2        0.0000 
     76 N          31.0870   25.8312   14.0146 N.2       2 ALA2        0.0000 
     77 CZ         31.6223   26.2008   12.6630 C.ar      4 PHE5        0.0000 
     78 O          32.1576   26.5704   11.3114 O.2       2 ALA2        0.0000 
     79 O          29.9966   23.6472   16.3149 O.2       2 ALA2        0.0000 
     80 O          30.5319   24.0169   14.9633 O.2       2 ALA2        0.0000 
     81 OG         31.0671   24.3865   13.6116 O.2       1 SER1        0.0000 
     82 OG         31.6024   24.7561   12.2600 O.2       1 SER1        0.0000 
     83 O          32.1377   25.1257   10.9084 O.2       2 ALA2        0.0000 
     84 O          32.6729   25.4953    9.5568 O.2       2 ALA2        0.0000 
     85 O          33.2082   25.8649    8.2051 O.2       2 ALA2        0.0000 
     86 N          29.9767   22.2025   15.9119 N.2       2 ALA2        0.0000 
     87 N          30.5120   22.5721   14.5603 N.2       2 ALA2        0.0000 
     88 OG         31.0472   22.9418   13.2087 O.2       1 SER1        0.0000 
     89 CA         31.5825   23.3114   11.8571 C.3       5 GLY6        0.0000 
     90 CA         32.1178   23.6810   10.5054 C.3       5 GLY6        0.0000 
     91 O          32.6530   24.0506    9.1538 O.2       2 ALA2        0.0000 
     92 N          30.4921   21.1274   14.1573 N.2       2 ALA2        0.0000 
     93 OG         31.0273   21.4970   12.8057 O.2       1 SER1        0.0000 
     94 CA         29.7456   30.3271   14.7128 C.3       5 GLY6        0.0000 
     95 CZ         30.2809   30.6967   13.3612 C.ar      4 PHE5        0.0000 
     96 CZ         30.8162   31.0663   12.0096 C.ar      4 PHE5        0.0000 
     97 N          29.7257   28.8824   14.3099 N.2       2 ALA2        0.0000 
     98 CZ         30.2610   29.2520   12.9583 C.ar      4 PHE5        0.0000 
     99 CZ         30.7963   29.6216   11.6066 C.ar      4 PHE5        0.0000 
    100 CZ         31.3315   29.9912   10.2550 C.ar      4 PHE5        0.0000 
    101 N          29.7058   27.4376   13.9069 N.2       2 ALA2        0.0000 
    102 CZ         30.2411   27.8073   12.5553 C.ar      4 PHE5        0.0000 
    103 CZ         30.7764   28.1769   11.2037 C.ar      4 PHE5        0.0000 
    104 CZ         31.3116   28.5465    9.8521 C.ar      4 PHE5        0.0000 
    105 CZ         31.8469   28.9161    8.5004 C.ar      4 PHE5        0.0000 
    106 CZ         30.7565   26.7322   10.8007 C.ar      4 PHE5        0.0000 
    107 CZ         31.2917   27.1018    9.4491 C.ar      4 PHE5        0.0000 
    108 NZ         31.8270   27.4714    8.0975 N.2       3 LYS4        0.0000 
    109 OG         30.2013   24.9178   11.7494 O.2       1 SER1        0.0000 
    110 CZ         30.7365   25.2874   10.3978 C.ar      4 PHE5        0.0000 
    111 OG         31.2718   25.6571    9.0461 O.2       1 SER1        0.0000 
    112 CZ         30.7166   23.8427    9.9948 C.ar      4 PHE5        0.0000 
    113 OG         31.2519   24.2123    8.6432 O.2       1 SER1        0.0000 
    114 CZ         29.4150   31.2281   11.4990 C.ar      4 PHE5        0.0000 
    115 CZ         28.8599   29.4137   12.4476 C.ar      4 PHE5        0.0000 
    116 CZ         29.3951   29.7833   11.0960 C.ar      4 PHE5        0.0000 
    117 CZ         29.9304   30.1529    9.7444 C.ar      4 PHE5        0.0000 
@<TRIPOS>BOND
@<TRIPOS>SUBSTRUCTURE
     1 SER1       28 GROUP   
     2 ALA2       56 GROUP   
     3 LYS4      108 GROUP   
     4 PHE5        1 GROUP   
     5 GLY6       13 GROUP   
     6 CUB7        2 GROUP   
@<TRIPOS>SET

