#    Name: 3r8h_ZOM_1_INTS_M
#    Modification time : Tue Mar 25 11:15:20 2014

@<TRIPOS>MOLECULE
3r8h_ZOM_1_INTS_M
   46     0     6     0     0
SMALL
NO_CHARGES


@<TRIPOS>ATOM
      1 CA         33.7715   20.2575   14.0640 C.3       2 GLC5        0.0000 
      2 CA         32.2150   19.6830   14.9540 C.3       6 GLL5        0.0000 
      3 CA         35.3280   20.8320   13.1740 C.3       4 GLP5        0.0000 
      4 CA         33.5830   18.5845   15.3850 C.3       2 GLC5        0.0000 
      5 CA         34.9510   17.4860   15.8160 C.3       4 GLP5        0.0000 
      6 CA         31.0080   18.5955   15.7610 C.3       2 GLC5        0.0000 
      7 CA         29.8010   17.5080   16.5680 C.3       4 GLP5        0.0000 
      8 CA         32.0245   18.7575   13.6020 C.3       2 GLC5        0.0000 
      9 CA         31.8340   17.8320   12.2500 C.3       4 GLP5        0.0000 
     10 CA         30.2520   31.7275   11.6175 C.3       2 GLC5        0.0000 
     11 CA         30.5270   29.8220   12.6210 C.3       6 GLL5        0.0000 
     12 CA         29.9770   33.6330   10.6140 C.3       4 GLP5        0.0000 
     13 CA         30.7085   30.5980   14.6735 C.3       2 GLC5        0.0000 
     14 CA         30.8900   31.3740   16.7260 C.3       4 GLP5        0.0000 
     15 CA         29.0755   31.0250   13.3215 C.3       2 GLC5        0.0000 
     16 CA         27.6240   32.2280   14.0220 C.3       4 GLP5        0.0000 
     17 CA         29.3260   28.2655   12.0580 C.3       2 GLC5        0.0000 
     18 CA         28.1250   26.7090   11.4950 C.3       4 GLP5        0.0000 
     19 CA         30.7200   29.8910   16.1140 C.3       2 GLC5        0.0000 
     20 CA         30.5500   28.4080   15.5020 C.3       6 GLL5        0.0000 
     21 CA         30.2650   28.5685   17.3500 C.3       2 GLC5        0.0000 
     22 CA         29.9800   28.7290   19.1980 C.3       4 GLP5        0.0000 
     23 CA         28.6535   28.0315   16.1885 C.3       2 GLC5        0.0000 
     24 CA         26.7570   27.6550   16.8750 C.3       4 GLP5        0.0000 
     25 CA         34.0355   25.3335   11.1610 C.3       2 GLC5        0.0000 
     26 CA         32.1260   24.9120   12.1080 C.3       6 GLL5        0.0000 
     27 CA         35.9450   25.7550   10.2140 C.3       4 GLP5        0.0000 
     28 CA         33.1280   23.4260   11.6350 C.3       2 GLC5        0.0000 
     29 CA         34.1300   21.9400   11.1620 C.3       4 GLP5        0.0000 
     30 CA         30.1255   25.8105   11.8015 C.3       2 GLC5        0.0000 
     31 CA         34.6285   21.8170   16.9775 C.3       2 GLC5        0.0000 
     32 CA         32.9880   22.1610   15.5400 C.3       6 GLL5        0.0000 
     33 CA         36.2690   21.4730   18.4150 C.3       4 GLP5        0.0000 
     34 CA         33.0530   21.6580   13.0995 C.3       2 GLC5        0.0000 
     35 CA         31.9760   21.3760   15.0370 C.3       6 GLL5        0.0000 
     36 CA         28.8745   21.5495   15.4530 C.3       2 GLC5        0.0000 
     37 CA         30.7660   21.9020   14.5420 C.3       6 GLL5        0.0000 
     38 CA         26.9830   21.1970   16.3640 C.3       4 GLP5        0.0000 
     39 N          27.1150   30.0360   13.1915 N.am      1 SEC2        0.0000 
     40 N          28.1840   29.3960   13.3060 N.am      5 SEL2        0.0000 
     41 N          26.0460   30.6760   13.0770 N.am      3 SEP2        0.0000 
     42 N          27.6845   29.0195   14.6545 N.am      1 SEC2        0.0000 
     43 N          27.1850   28.6430   16.0030 N.am      3 SEP2        0.0000 
     44 CA         32.2740   21.9037   17.1223 C.3       2 GLC5        0.0000 
     45 CA         31.6020   20.9370   18.6380 C.3       4 GLP5        0.0000 
     46 CA         31.5164   21.0764   16.7034 C.3       2 GLC5        0.0000 
@<TRIPOS>BOND
@<TRIPOS>SUBSTRUCTURE
     1 SEC2       39 GROUP        1 X    SEC  0     ROOT SEC X 2
     2 GLC5        1 GROUP        1 X    GLC  0     **** GLC X 6
     3 SEP2       41 GROUP        1 Y    SEP  0     ROOT SEP Y 9
     4 GLP5        3 GROUP        1 Y    GLP  0     **** GLP Y 13
     5 SEL2       40 GROUP        1 Z    SEL  0     ROOT SEL Z 16
     6 GLL5        2 GROUP        1 Z    GLL  0     **** GLL Z 20
@<TRIPOS>SET

