#    Name: 3r8h_ZOM_1_ligand
#    Modification time : Tue Mar 25 11:15:20 2014

@<TRIPOS>MOLECULE
3r8h_ZOM_1_ligand
   33    34     1     0     0
SMALL
NO_CHARGES


@<TRIPOS>ATOM
      1 CL         32.2150   19.6830   14.9540 Cl        1 ZOM332      0.0000 
      2 N1         30.8550   27.7550   14.1800 N.pl3     1 ZOM332      0.0000 
      3 C2         30.9530   28.3740   12.8420 C.2       1 ZOM332      0.0000 
      4 C3         31.3730   27.3800   11.9830 C.2       1 ZOM332      0.0000 
      5 C4         31.6630   26.2610   12.7050 C.2       1 ZOM332      0.0000 
      6 C5         31.3860   26.4420   14.0630 C.2       1 ZOM332      0.0000 
      7 C6         31.5410   25.5540   15.3150 C.2       1 ZOM332      0.0000 
      8 O6         31.7310   26.0880   16.4130 O.2       1 ZOM332      0.0000 
      9 C7         30.5270   29.8220   12.6210 C.3       1 ZOM332      0.0000 
     10 C8         28.9970   29.8000   12.3710 C.2       1 ZOM332      0.0000 
     11 C9         30.5500   28.4080   15.5020 C.3       1 ZOM332      0.0000 
     12 OH         28.6810   30.3380   11.2840 O.co2     1 ZOM332      0.0000 
     13 C10        32.1260   24.9120   12.1080 C.3       1 ZOM332      0.0000 
     14 C1B        31.6870   24.0870   15.1930 C.ar      1 ZOM332      0.0000 
     15 C2B        32.9040   23.5800   15.6730 C.ar      1 ZOM332      0.0000 
     16 C3B        32.9880   22.1610   15.5400 C.ar      1 ZOM332      0.0000 
     17 C4B        31.9760   21.3760   15.0370 C.ar      1 ZOM332      0.0000 
     18 C5B        30.7660   21.9020   14.5420 C.ar      1 ZOM332      0.0000 
     19 C6B        30.6380   23.3050   14.6600 C.ar      1 ZOM332      0.0000 
     20 OXT        28.1840   29.3960   13.3060 O.co2     1 ZOM332      0.0000 
     21 H          31.4463   27.4711   11.0287 H         1 ZOM332      0.0000 
     22 H          31.0156   30.2199   11.7574 H         1 ZOM332      0.0000 
     23 H          30.7288   30.4010   13.4967 H         1 ZOM332      0.0000 
     24 H          33.6112   24.1178   16.0518 H         1 ZOM332      0.0000 
     25 H          33.8859   21.7082   15.8510 H         1 ZOM332      0.0000 
     26 H          30.0633   21.3384   14.1446 H         1 ZOM332      0.0000 
     27 H          29.7703   23.7616   14.3539 H         1 ZOM332      0.0000 
     28 H          30.5474   27.7459   16.2514 H         1 ZOM332      0.0000 
     29 H          31.2233   29.1102   15.7335 H         1 ZOM332      0.0000 
     30 H          29.6535   28.8511   15.4993 H         1 ZOM332      0.0000 
     31 H          32.9826   25.0049   11.6005 H         1 ZOM332      0.0000 
     32 H          32.2790   24.2246   12.8180 H         1 ZOM332      0.0000 
     33 H          31.4500   24.5343   11.4752 H         1 ZOM332      0.0000 
@<TRIPOS>BOND
     1   17    1 1    
     2    3    2 1    
     3    6    2 1    
     4   11    2 1    
     5    4    3 2    
     6    9    3 1    
     7    5    4 1    
     8   21    4 1    
     9    6    5 2    
    10   13    5 1    
    11    7    6 1    
    12    8    7 2    
    13   14    7 1    
    14   10    9 1    
    15   22    9 1    
    16   23    9 1    
    17   12   10 ar   
    18   20   10 ar   
    19   28   11 1    
    20   29   11 1    
    21   30   11 1    
    22   31   13 1    
    23   32   13 1    
    24   33   13 1    
    25   15   14 ar   
    26   19   14 ar   
    27   16   15 ar   
    28   24   15 1    
    29   17   16 ar   
    30   25   16 1    
    31   18   17 ar   
    32   19   18 ar   
    33   26   18 1    
    34   27   19 1    
@<TRIPOS>SUBSTRUCTURE
     1 ZOM332      1 GROUP   
@<TRIPOS>SET

