#    Name: 2XEI_1_CAVITY_N1_ALL.mol2
#    Modification time : Mon Mar 10 23:17:35 2014

@<TRIPOS>MOLECULE
2XEI_1_CAVITY_N1_ALL.mol2
  169     0     7     0     0
SMALL
NO_CHARGES


@<TRIPOS>ATOM
      1 CZ         30.0085   50.2602   41.8112 C.ar      5 PHE5        0.0000 
      2 CZ         29.8098   48.1515   41.9275 C.ar      5 PHE5        0.0000 
      3 CZ         29.8522   49.1529   40.8115 C.ar      5 PHE5        0.0000 
      4 CZ         28.5173   50.4048   41.8843 C.ar      5 PHE5        0.0000 
      5 DU         28.5597   51.4062   40.7683 H         7 CUB7        0.0000 
      6 O          28.2762   47.2946   43.1165 O.2       2 ALA2        0.0000 
      7 O          28.3186   48.2960   42.0006 O.2       2 ALA2        0.0000 
      8 DU         28.3610   49.2974   40.8846 H         7 CUB7        0.0000 
      9 DU         28.4033   50.2989   39.7687 H         7 CUB7        0.0000 
     10 CA         28.2046   48.1901   39.8850 C.3       6 GLY6        0.0000 
     11 O          28.2470   49.1915   38.7690 O.2       2 ALA2        0.0000 
     12 CZ         27.1401   50.6553   44.0730 C.ar      5 PHE5        0.0000 
     13 CZ         27.1824   51.6567   42.9570 C.ar      5 PHE5        0.0000 
     14 DU         27.2248   52.6581   41.8411 H         7 CUB7        0.0000 
     15 CZ         26.9413   48.5465   44.1893 C.ar      5 PHE5        0.0000 
     16 CZ         26.9837   49.5479   43.0733 C.ar      5 PHE5        0.0000 
     17 DU         27.0261   50.5493   41.9574 H         7 CUB7        0.0000 
     18 DU         27.0684   51.5508   40.8414 H         7 CUB7        0.0000 
     19 CA         26.7426   46.4377   44.3056 C.3       6 GLY6        0.0000 
     20 O          26.7850   47.4391   43.1896 O.2       2 ALA2        0.0000 
     21 O          26.8274   48.4406   42.0737 O.2       2 ALA2        0.0000 
     22 DU         26.8697   49.4420   40.9577 H         7 CUB7        0.0000 
     23 N          26.9121   50.4434   39.8418 N.2       2 ALA2        0.0000 
     24 O          26.6710   47.3332   41.0740 O.2       2 ALA2        0.0000 
     25 CA         26.7134   48.3346   39.9581 C.3       6 GLY6        0.0000 
     26 N          26.7557   49.3361   38.8421 N.2       2 ALA2        0.0000 
     27 O          26.5147   46.2258   40.0744 O.2       2 ALA2        0.0000 
     28 CA         26.5570   47.2273   38.9584 C.3       6 GLY6        0.0000 
     29 O          26.5994   48.2287   37.8425 O.2       2 ALA2        0.0000 
     30 O          26.3160   44.1170   40.1907 O.2       2 ALA2        0.0000 
     31 CA         26.3583   45.1185   39.0747 C.3       6 GLY6        0.0000 
     32 CA         26.4007   46.1199   37.9588 C.3       6 GLY6        0.0000 
     33 O          25.8052   51.9072   45.1458 O.2       2 ALA2        0.0000 
     34 DU         25.8475   52.9086   44.0298 H         7 CUB7        0.0000 
     35 O          25.6488   50.7998   44.1461 O.2       2 ALA2        0.0000 
     36 DU         25.6912   51.8013   43.0301 H         7 CUB7        0.0000 
     37 DU         25.7336   52.8027   41.9142 H         7 CUB7        0.0000 
     38 O          25.7759   53.8041   40.7982 O.2       2 ALA2        0.0000 
     39 O          25.4501   48.6910   44.2624 O.2       2 ALA2        0.0000 
     40 DU         25.4925   49.6925   43.1464 H         7 CUB7        0.0000 
     41 DU         25.5348   50.6939   42.0305 H         7 CUB7        0.0000 
     42 DU         25.5772   51.6953   40.9145 H         7 CUB7        0.0000 
     43 O          25.6196   52.6968   39.7986 O.2       2 ALA2        0.0000 
     44 NZ         25.2514   46.5822   44.3787 N.2       4 LYS4        0.0000 
     45 DU         25.2938   47.5837   43.2627 H         7 CUB7        0.0000 
     46 DU         25.3361   48.5851   42.1468 H         7 CUB7        0.0000 
     47 DU         25.3785   49.5865   41.0308 H         7 CUB7        0.0000 
     48 N          25.4209   50.5880   39.9149 N.2       2 ALA2        0.0000 
     49 CA         25.0527   44.4735   44.4950 C.3       6 GLY6        0.0000 
     50 CA         25.0951   45.4749   43.3790 C.3       6 GLY6        0.0000 
     51 CA         25.1374   46.4763   42.2631 C.3       6 GLY6        0.0000 
     52 DU         25.1798   47.4777   41.1471 H         7 CUB7        0.0000 
     53 CZ         25.2221   48.4792   40.0312 C.ar      5 PHE5        0.0000 
     54 N          25.2645   49.4806   38.9152 N.2       2 ALA2        0.0000 
     55 CA         24.8964   43.3661   43.4953 C.3       6 GLY6        0.0000 
     56 CA         24.9387   44.3675   42.3794 C.3       6 GLY6        0.0000 
     57 CA         24.9811   45.3690   41.2634 C.3       6 GLY6        0.0000 
     58 DU         25.0234   46.3704   40.1475 H         7 CUB7        0.0000 
     59 CZ         25.0658   47.3718   39.0315 C.ar      5 PHE5        0.0000 
     60 O          25.1082   48.3732   37.9156 O.2       2 ALA2        0.0000 
     61 CZ         24.7824   43.2602   41.3797 C.ar      5 PHE5        0.0000 
     62 CZ         24.8247   44.2616   40.2638 C.ar      5 PHE5        0.0000 
     63 DU         24.8671   45.2630   39.1478 H         7 CUB7        0.0000 
     64 CZ         24.9095   46.2645   38.0319 C.ar      5 PHE5        0.0000 
     65 N          24.9518   47.2659   36.9159 N.2       2 ALA2        0.0000 
     66 OG         24.7107   44.1557   38.1482 O.2       1 SER1        0.0000 
     67 OG         24.7531   45.1571   37.0322 O.2       1 SER1        0.0000 
     68 O          24.7955   46.1585   35.9163 O.2       2 ALA2        0.0000 
     69 O          24.3139   52.0517   45.2189 O.2       2 ALA2        0.0000 
     70 N          24.3563   53.0532   44.1029 N.2       2 ALA2        0.0000 
     71 O          24.1576   50.9444   44.2192 O.2       2 ALA2        0.0000 
     72 N          24.2000   51.9458   43.1033 N.2       2 ALA2        0.0000 
     73 N          24.2423   52.9472   41.9873 N.2       2 ALA2        0.0000 
     74 O          23.9165   47.8342   45.4515 O.2       2 ALA2        0.0000 
     75 O          23.9589   48.8356   44.3355 O.2       2 ALA2        0.0000 
     76 CA         24.0013   49.8370   43.2195 C.3       6 GLY6        0.0000 
     77 CA         24.0436   50.8384   42.1036 C.3       6 GLY6        0.0000 
     78 O          23.7178   45.7254   45.5677 O.2       2 ALA2        0.0000 
     79 NZ         23.7602   46.7268   44.4518 N.2       4 LYS4        0.0000 
     80 CZ         23.8449   48.7297   42.2199 C.ar      5 PHE5        0.0000 
     81 CZ         23.8873   49.7311   41.1039 C.ar      5 PHE5        0.0000 
     82 CA         23.9296   50.7325   39.9880 C.3       6 GLY6        0.0000 
     83 O          23.5191   43.6166   45.6840 O.2       2 ALA2        0.0000 
     84 O          23.5615   44.6180   44.5681 O.2       2 ALA2        0.0000 
     85 DU         23.6038   45.6194   43.4521 H         7 CUB7        0.0000 
     86 DU         23.6462   46.6209   42.3362 H         7 CUB7        0.0000 
     87 CZ         23.6886   47.6223   41.2202 C.ar      5 PHE5        0.0000 
     88 CZ         23.3628   42.5092   44.6844 C.ar      5 PHE5        0.0000 
     89 CZ         23.4051   43.5106   43.5684 C.ar      5 PHE5        0.0000 
     90 CZ         23.4475   44.5121   42.4525 C.ar      5 PHE5        0.0000 
     91 CZ         23.4898   45.5135   41.3365 C.ar      5 PHE5        0.0000 
     92 CZ         23.5322   46.5149   40.2206 C.ar      5 PHE5        0.0000 
     93 CZ         23.3335   44.4061   40.3369 C.ar      5 PHE5        0.0000 
     94 CZ         23.3759   45.4076   39.2209 C.ar      5 PHE5        0.0000 
     95 CZ         23.4182   46.4090   38.1050 C.ar      5 PHE5        0.0000 
     96 N          23.4606   47.4104   36.9890 N.2       2 ALA2        0.0000 
     97 CZ         23.2195   44.3002   38.2213 C.ar      5 PHE5        0.0000 
     98 CZ         23.2619   45.3016   37.1053 C.ar      5 PHE5        0.0000 
     99 N          23.3042   46.3031   35.9894 N.2       2 ALA2        0.0000 
    100 N          23.1055   44.1943   36.1057 N.2       2 ALA2        0.0000 
    101 O          22.8227   52.1963   45.2920 O.2       2 ALA2        0.0000 
    102 O          22.6240   50.0875   45.4083 O.2       2 ALA2        0.0000 
    103 N          22.6664   51.0889   44.2923 N.2       2 ALA2        0.0000 
    104 O          22.4253   47.9787   45.5246 O.2       2 ALA2        0.0000 
    105 O          22.4677   48.9801   44.4086 O.2       2 ALA2        0.0000 
    106 CA         22.5100   49.9816   43.2927 C.3       6 GLY6        0.0000 
    107 O          22.2266   45.8699   45.6409 O.2       2 ALA2        0.0000 
    108 O          22.2690   46.8713   44.5249 O.2       2 ALA2        0.0000 
    109 CZ         22.3113   47.8728   43.4090 C.ar      5 PHE5        0.0000 
    110 CZ         22.3537   48.8742   42.2930 C.ar      5 PHE5        0.0000 
    111 OG         21.9855   42.7597   46.8731 O.2       1 SER1        0.0000 
    112 O          22.0279   43.7611   45.7572 O.2       2 ALA2        0.0000 
    113 O          22.0702   44.7626   44.6412 O.2       2 ALA2        0.0000 
    114 DU         22.1126   45.7640   43.5252 H         7 CUB7        0.0000 
    115 CZ         22.1550   46.7654   42.4093 C.ar      5 PHE5        0.0000 
    116 CZ         22.1973   47.7668   41.2933 C.ar      5 PHE5        0.0000 
    117 CZ         21.8715   42.6538   44.7575 C.ar      5 PHE5        0.0000 
    118 CZ         21.9139   43.6552   43.6415 C.ar      5 PHE5        0.0000 
    119 CZ         21.9563   44.6566   42.5256 C.ar      5 PHE5        0.0000 
    120 CZ         21.9986   45.6581   41.4096 C.ar      5 PHE5        0.0000 
    121 OG         21.7706   45.4462   37.1784 O.2       1 SER1        0.0000 
    122 N          21.1751   51.2335   44.3654 N.2       2 ALA2        0.0000 
    123 O          20.9341   48.1233   45.5977 O.2       2 ALA2        0.0000 
    124 O          20.9764   49.1247   44.4817 O.2       2 ALA2        0.0000 
    125 CZ         21.0188   50.1261   43.3658 C.ar      5 PHE5        0.0000 
    126 O          20.6930   45.0130   46.8299 O.2       2 ALA2        0.0000 
    127 O          20.7354   46.0145   45.7140 O.2       2 ALA2        0.0000 
    128 DU         20.7777   47.0159   44.5980 H         7 CUB7        0.0000 
    129 CZ         20.8201   48.0173   43.4821 C.ar      5 PHE5        0.0000 
    130 O          20.5367   43.9057   45.8303 O.2       2 ALA2        0.0000 
    131 DU         20.5790   44.9071   44.7143 H         7 CUB7        0.0000 
    132 DU         20.6214   45.9085   43.5984 H         7 CUB7        0.0000 
    133 CZ         20.6637   46.9100   42.4824 C.ar      5 PHE5        0.0000 
    134 NZ         20.3803   42.7983   44.8306 N.2       4 LYS4        0.0000 
    135 CZ         20.4227   43.7997   43.7147 C.ar      5 PHE5        0.0000 
    136 OG         20.4650   44.8012   42.5987 O.2       1 SER1        0.0000 
    137 OG         20.5074   45.8026   41.4828 O.2       1 SER1        0.0000 
    138 O          19.4428   48.2678   45.6708 O.2       2 ALA2        0.0000 
    139 N          19.4852   49.2692   44.5548 N.2       2 ALA2        0.0000 
    140 O          19.2441   46.1590   45.7871 O.2       2 ALA2        0.0000 
    141 N          19.2865   47.1604   44.6711 N.2       2 ALA2        0.0000 
    142 N          19.3289   48.1619   43.5552 N.2       2 ALA2        0.0000 
    143 NZ         19.0454   44.0502   45.9034 N.2       4 LYS4        0.0000 
    144 O          19.0878   45.0517   44.7874 O.2       2 ALA2        0.0000 
    145 N          19.1301   46.0531   43.6715 N.2       2 ALA2        0.0000 
    146 CZ         19.1725   47.0545   42.5555 C.ar      5 PHE5        0.0000 
    147 OD1        18.9314   43.9443   43.7878 O.3       3 ASP3        0.0000 
    148 OG         18.9738   44.9457   42.6718 O.2       1 SER1        0.0000 
    149 CZ         19.0162   45.9472   41.5559 C.ar      5 PHE5        0.0000 
    150 N          17.4826   45.0903   42.7449 N.2       2 ALA2        0.0000 
    151 N          17.5249   46.0917   41.6290 N.2       2 ALA2        0.0000 
    152 OG         17.3262   43.9829   41.7453 O.2       1 SER1        0.0000 
    153 OG         17.3686   44.9843   40.6293 O.2       1 SER1        0.0000 
    154 OG         17.4109   45.9858   39.5134 O.2       1 SER1        0.0000 
    155 OG         17.2122   43.8770   39.6297 O.2       1 SER1        0.0000 
    156 N          16.0337   46.2363   41.7021 N.2       2 ALA2        0.0000 
    157 CA         16.0761   47.2377   40.5861 C.3       6 GLY6        0.0000 
    158 NZ         15.8350   44.1275   41.8184 N.2       4 LYS4        0.0000 
    159 DU         15.8774   45.1289   40.7024 H         7 CUB7        0.0000 
    160 CZ         15.9197   46.1303   39.5865 C.ar      5 PHE5        0.0000 
    161 O          15.7210   44.0215   39.7028 O.2       2 ALA2        0.0000 
    162 CZ         15.7634   45.0230   38.5868 C.ar      5 PHE5        0.0000 
    163 N          14.5425   46.3808   41.7752 N.2       2 ALA2        0.0000 
    164 CA         14.5848   47.3822   40.6592 C.3       6 GLY6        0.0000 
    165 OD1        14.6272   48.3837   39.5433 O.3       3 ASP3        0.0000 
    166 O          14.3861   45.2734   40.7755 O.2       2 ALA2        0.0000 
    167 O          14.4285   46.2749   39.6596 O.2       2 ALA2        0.0000 
    168 CZ         14.4709   47.2763   38.5436 C.ar      5 PHE5        0.0000 
    169 CA         13.0936   47.5268   40.7323 C.3       6 GLY6        0.0000 
@<TRIPOS>BOND
@<TRIPOS>SUBSTRUCTURE
     1 SER1       66 GROUP   
     2 ALA2        6 GROUP   
     3 ASP3      147 GROUP   
     4 LYS4       44 GROUP   
     5 PHE5        1 GROUP   
     6 GLY6       10 GROUP   
     7 CUB7        5 GROUP   
@<TRIPOS>SET

