#    Name: 2xei_ARK_1_INTS_M
#    Modification time : Tue Mar 25 05:56:57 2014

@<TRIPOS>MOLECULE
2xei_ARK_1_INTS_M
  102     0    15     0     0
SMALL
NO_CHARGES


@<TRIPOS>ATOM
      1 NZ         13.2110   49.5990   39.5420 N.4       3 LYC4        0.0000 
      2 NZ         13.8580   48.6980   40.2150 N.4      13 LYL4        0.0000 
      3 NZ         12.5640   50.5000   38.8690 N.4       8 LYP4        0.0000 
      4 N          13.2110   49.5990   39.5420 N.am      2 SEC2        0.0000 
      5 N          13.8580   48.6980   40.2150 N.am     12 SEL2        0.0000 
      6 N          12.5640   50.5000   38.8690 N.am      7 SEP2        0.0000 
      7 NZ         12.7800   48.6830   39.0830 N.4       3 LYC4        0.0000 
      8 NZ         12.9960   46.8660   39.2970 N.4      13 LYL4        0.0000 
      9 N          12.9080   45.6200   38.5360 N.am      2 SEC2        0.0000 
     10 N          12.9960   46.8660   39.2970 N.am     12 SEL2        0.0000 
     11 N          12.8200   44.3740   37.7750 N.am      7 SEP2        0.0000 
     12 CA         15.7565   46.8845   38.7940 C.3       5 GLC5        0.0000 
     13 CA         14.8560   46.5360   40.8130 C.3      15 GLL5        0.0000 
     14 CA         16.6570   47.2330   36.7750 C.3      10 GLP5        0.0000 
     15 CA         15.5495   48.0125   41.6575 C.3       5 GLC5        0.0000 
     16 CA         16.2430   49.4890   42.5020 C.3      10 GLP5        0.0000 
     17 CA         13.4730   43.1635   41.2890 C.3       5 GLC5        0.0000 
     18 CA         14.5740   45.0180   41.0420 C.3      15 GLL5        0.0000 
     19 CA         12.3720   41.3090   41.5360 C.3      10 GLP5        0.0000 
     20 NZ         18.1415   43.1730   38.2695 N.4       3 LYC4        0.0000 
     21 NZ         16.7740   43.6240   39.1930 N.4      13 LYL4        0.0000 
     22 NZ         18.7680   43.1160   36.3110 N.4       8 LYP4        0.0000 
     23 N          17.1850   43.6755   37.8595 N.am      2 SEC2        0.0000 
     24 N          16.7740   43.6240   39.1930 N.am     12 SEL2        0.0000 
     25 N          17.5960   43.7270   36.5260 N.am      7 SEP2        0.0000 
     26 N          18.1415   43.1730   38.2695 N.am      2 SEC2        0.0000 
     27 N          19.5090   42.7220   37.3460 N.am      7 SEP2        0.0000 
     28 N          15.9135   42.7170   38.9160 N.am      2 SEC2        0.0000 
     29 N          15.0530   41.8100   38.6390 N.am      7 SEP2        0.0000 
     30 N          18.8315   45.7370   39.5945 N.am      2 SEC2        0.0000 
     31 N          17.7270   45.3520   40.2580 N.am     12 SEL2        0.0000 
     32 N          19.9360   46.1220   38.9310 N.am      7 SEP2        0.0000 
     33 O          15.5345   44.8240   43.6200 O.2       1 ALC1        0.0000 
     34 O          16.5830   44.7700   42.5550 O.2      11 ALL1        0.0000 
     35 O          14.4860   44.8780   44.6850 O.2       6 ALP1        0.0000 
     36 O          16.5380   46.1610   43.2365 O.2       1 ALC1        0.0000 
     37 O          16.4930   47.5520   43.9180 O.2       6 ALP1        0.0000 
     38 Zn         17.9045   42.2565   42.7565 Zn        4 ZIC7        0.0000 
     39 Zn         18.3320   43.3920   42.3470 Zn       14 ZIL7        0.0000 
     40 Zn         17.4770   41.1210   43.1660 Zn        9 ZIP7        0.0000 
     41 N          19.2155   43.3370   41.3595 N.am      2 SEC2        0.0000 
     42 N          18.3320   43.3920   42.3470 N.am     12 SEL2        0.0000 
     43 N          20.0990   43.2820   40.3720 N.am      7 SEP2        0.0000 
     44 O          17.4735   46.3715   43.8300 O.2       1 ALC1        0.0000 
     45 O          18.4540   45.1910   43.7420 O.2      11 ALL1        0.0000 
     46 NZ         19.4915   47.3420   47.0615 N.4       3 LYC4        0.0000 
     47 NZ         19.4160   46.7110   45.8000 N.4      13 LYL4        0.0000 
     48 NZ         19.7760   49.2640   48.5960 N.4       8 LYP4        0.0000 
     49 N          18.2215   46.3355   46.4300 N.am      2 SEC2        0.0000 
     50 N          19.4160   46.7110   45.8000 N.am     12 SEL2        0.0000 
     51 N          17.0270   45.9600   47.0600 N.am      7 SEP2        0.0000 
     52 N          19.4915   47.3420   47.0615 N.am      2 SEC2        0.0000 
     53 N          19.5670   47.9730   48.3230 N.am      7 SEP2        0.0000 
     54 NZ         21.8105   45.2720   47.3385 N.4       3 LYC4        0.0000 
     55 NZ         20.5170   44.8510   46.5040 N.4      13 LYL4        0.0000 
     56 NZ         22.4720   45.4560   49.3090 N.4       8 LYP4        0.0000 
     57 N          20.8415   45.0275   47.9015 N.am      2 SEC2        0.0000 
     58 N          20.5170   44.8510   46.5040 N.am     12 SEL2        0.0000 
     59 N          21.1660   45.2040   49.2990 N.am      7 SEP2        0.0000 
     60 N          21.8105   45.2720   47.3385 N.am      2 SEC2        0.0000 
     61 N          23.1040   45.6930   48.1730 N.am      7 SEP2        0.0000 
     62 CA         20.0915   46.9435   41.7670 C.3       5 GLC5        0.0000 
     63 CA         20.6690   45.8260   43.2640 C.3      15 GLL5        0.0000 
     64 CA         19.5140   48.0610   40.2700 C.3      10 GLP5        0.0000 
     65 CA         25.8580   45.2705   42.3335 C.3       5 GLC5        0.0000 
     66 CA         24.0150   46.2750   41.8720 C.3      15 GLL5        0.0000 
     67 CA         27.7010   44.2660   42.7950 C.3      10 GLP5        0.0000 
     68 CA         22.7335   47.1215   40.3405 C.3       5 GLC5        0.0000 
     69 CA         21.4520   47.9680   38.8090 C.3      10 GLP5        0.0000 
     70 CA         27.8655   50.0580   43.8390 C.3       5 GLC5        0.0000 
     71 CA         26.2810   50.4960   42.6020 C.3      15 GLL5        0.0000 
     72 CA         29.4500   49.6200   45.0760 C.3      10 GLP5        0.0000 
     73 CA         26.2660   54.7185   47.9560 C.3       5 GLC5        0.0000 
     74 CA         26.7750   53.2150   46.8050 C.3      15 GLL5        0.0000 
     75 CA         25.7570   56.2220   49.1070 C.3      10 GLP5        0.0000 
     76 CA         27.3530   51.0715   48.5240 C.3       5 GLC5        0.0000 
     77 CA         28.0000   52.3310   47.0920 C.3      15 GLL5        0.0000 
     78 CA         26.7060   49.8120   49.9560 C.3      10 GLP5        0.0000 
     79 CA         28.7250   50.9755   46.0840 C.3       5 GLC5        0.0000 
     80 CA         28.4910   51.2985   50.3735 C.3       5 GLC5        0.0000 
     81 CA         30.0740   52.0780   49.4750 C.3      15 GLL5        0.0000 
     82 CA         26.9080   50.5190   51.2720 C.3      10 GLP5        0.0000 
     83 CA         30.9760   49.7605   50.7510 C.3       5 GLC5        0.0000 
     84 CA         31.2230   51.6420   50.1160 C.3      15 GLL5        0.0000 
     85 CA         30.7290   47.8790   51.3860 C.3      10 GLP5        0.0000 
     86 N          33.5115   52.1115   52.0405 N.am      2 SEC2        0.0000 
     87 N          33.6620   50.6920   51.3290 N.am     12 SEL2        0.0000 
     88 N          33.3610   53.5310   52.7520 N.am      7 SEP2        0.0000 
     89 CA         13.4390   46.5875   42.3347 C.3       5 GLC5        0.0000 
     90 CA         12.1630   47.3980   43.7420 C.3      10 GLP5        0.0000 
     91 CA         21.2309   43.5609   42.6642 C.3       5 GLC5        0.0000 
     92 CA         19.7960   44.9610   44.2420 C.3      15 GLL5        0.0000 
     93 CA         21.2890   41.7670   41.8350 C.3      10 GLP5        0.0000 
     94 CA         30.6568   54.1750   49.5067 C.3       5 GLC5        0.0000 
     95 CA         30.1790   52.7280   48.2440 C.3      15 GLL5        0.0000 
     96 CA         31.1870   55.9470   50.1540 C.3      10 GLP5        0.0000 
     97 CA         31.5192   53.8503   49.9935 C.3       5 GLC5        0.0000 
     98 CA         31.5992   54.3443   49.0850 C.3       5 GLC5        0.0000 
     99 CA         32.5800   52.5240   48.3420 C.3      15 GLL5        0.0000 
    100 CA         33.2982   51.5044   47.3675 C.3       5 GLC5        0.0000 
    101 CA         31.4430   52.9590   47.6900 C.3      15 GLL5        0.0000 
    102 CA         34.6100   50.4320   46.4170 C.3      10 GLP5        0.0000 
@<TRIPOS>BOND
@<TRIPOS>SUBSTRUCTURE
     1 ALC1       33 GROUP        1 X    ALC  0     ROOT ALC X 1
     2 SEC2        4 GROUP        1 X    SEC  0     **** SEC X 2
     3 LYC4        1 GROUP        1 X    LYC  0     **** LYC X 4
     4 ZIC7       38 GROUP        1 X    ZIC  0     **** ZIC X 5
     5 GLC5       12 GROUP        1 X    GLC  0     **** GLC X 6
     6 ALP1       35 GROUP        1 Y    ALP  0     ROOT ALP Y 8
     7 SEP2        6 GROUP        1 Y    SEP  0     **** SEP Y 9
     8 LYP4        3 GROUP        1 Y    LYP  0     **** LYP Y 11
     9 ZIP7       40 GROUP        1 Y    ZIP  0     **** ZIP Y 12
    10 GLP5       14 GROUP        1 Y    GLP  0     **** GLP Y 13
    11 ALL1       34 GROUP        1 Z    ALL  0     ROOT ALL Z 15
    12 SEL2        5 GROUP        1 Z    SEL  0     **** SEL Z 16
    13 LYL4        2 GROUP        1 Z    LYL  0     **** LYL Z 18
    14 ZIL7       39 GROUP        1 Z    ZIL  0     **** ZIL Z 19
    15 GLL5       13 GROUP        1 Z    GLL  0     **** GLL Z 20
@<TRIPOS>SET

