#    Name: 2xei_ARK_1_ligand
#    Modification time : Tue Mar 25 05:56:58 2014

@<TRIPOS>MOLECULE
2xei_ARK_1_ligand
   77    78     1     0     0
SMALL
NO_CHARGES


@<TRIPOS>ATOM
      1 OAA        13.8580   48.6980   40.2150 O.co2     1 ARK1770     0.0000 
      2 CBH        13.8130   47.4440   40.0450 C.2       1 ARK1770     0.0000 
      3 OAG        12.9960   46.8660   39.2970 O.co2     1 ARK1770     0.0000 
      4 CAV        14.8560   46.5360   40.8130 C.3       1 ARK1770     0.0000 
      5 CAX        14.5740   45.0180   41.0420 C.3       1 ARK1770     0.0000 
      6 CBQ        15.8840   44.2070   41.3900 C.3       1 ARK1770     0.0000 
      7 CBJ        16.8710   44.4170   40.1890 C.2       1 ARK1770     0.0000 
      8 OAI        16.7740   43.6240   39.1930 O.co2     1 ARK1770     0.0000 
      9 OAC        17.7270   45.3520   40.2580 O.co2     1 ARK1770     0.0000 
     10 NBE        16.5830   44.7700   42.5550 N.am      1 ARK1770     0.0000 
     11 CBK        17.8350   44.4130   42.8540 C.2       1 ARK1770     0.0000 
     12 OAD        18.3320   43.3920   42.3470 O.2       1 ARK1770     0.0000 
     13 N          18.4540   45.1910   43.7420 N.am      1 ARK1770     0.0000 
     14 CA         19.7960   44.9610   44.2420 C.3       1 ARK1770     0.0000 
     15 C          19.8960   45.5560   45.6450 C.2       1 ARK1770     0.0000 
     16 OXT        19.4160   46.7110   45.8000 O.co2     1 ARK1770     0.0000 
     17 O          20.5170   44.8510   46.5040 O.co2     1 ARK1770     0.0000 
     18 CB         20.6690   45.8260   43.2640 C.3       1 ARK1770     0.0000 
     19 CAP        22.1130   45.3160   43.2340 C.3       1 ARK1770     0.0000 
     20 CAQ        23.0570   46.4900   43.0370 C.3       1 ARK1770     0.0000 
     21 CAY        24.0150   46.2750   41.8720 C.3       1 ARK1770     0.0000 
     22 NBR        24.7260   47.5610   41.6450 N.pl3     1 ARK1770     0.0000 
     23 CAO        25.1310   48.3660   42.6430 C.2       1 ARK1770     0.0000 
     24 NBB        25.0110   48.0450   40.5320 N.2       1 ARK1770     0.0000 
     25 NBA        25.5910   49.1330   40.6720 N.2       1 ARK1770     0.0000 
     26 CBL        25.6940   49.3760   41.9910 C.2       1 ARK1770     0.0000 
     27 CAZ        26.2810   50.4960   42.6020 C.3       1 ARK1770     0.0000 
     28 OBG        25.4330   51.6030   42.9880 O.3       1 ARK1770     0.0000 
     29 CAU        25.3380   51.6780   44.4300 C.3       1 ARK1770     0.0000 
     30 CAT        25.2900   53.1410   44.9550 C.3       1 ARK1770     0.0000 
     31 OBF        26.6030   53.5570   45.4100 O.3       1 ARK1770     0.0000 
     32 CAS        26.7750   53.2150   46.8050 C.3       1 ARK1770     0.0000 
     33 CAR        28.0000   52.3310   47.0920 C.3       1 ARK1770     0.0000 
     34 NBC        29.0940   53.1810   47.5930 N.pl3     1 ARK1770     0.0000 
     35 CBN        30.1790   52.7280   48.2440 C.ar      1 ARK1770     0.0000 
     36 CAM        30.0740   52.0780   49.4750 C.ar      1 ARK1770     0.0000 
     37 CAL        31.2230   51.6420   50.1160 C.ar      1 ARK1770     0.0000 
     38 CBM        32.4800   51.8650   49.5500 C.ar      1 ARK1770     0.0000 
     39 NBS        33.6230   51.4540   50.1130 N.pl3     1 ARK1770     0.0000 
     40 OAJ        34.8510   51.6570   49.4320 O.2       1 ARK1770     0.0000 
     41 OAE        33.6620   50.6920   51.3290 O.2       1 ARK1770     0.0000 
     42 CAN        32.5800   52.5240   48.3420 C.ar      1 ARK1770     0.0000 
     43 CBO        31.4430   52.9590   47.6900 C.ar      1 ARK1770     0.0000 
     44 NBT        31.6050   53.5650   46.5170 N.pl3     1 ARK1770     0.0000 
     45 OAK        32.9100   53.7050   45.9770 O.2       1 ARK1770     0.0000 
     46 OAF        30.4760   53.9710   45.7520 O.2       1 ARK1770     0.0000 
     47 H          15.0419   47.0126   41.8145 H         1 ARK1770     0.0000 
     48 H          15.8413   46.6325   40.2795 H         1 ARK1770     0.0000 
     49 H          14.1390   44.5964   40.1400 H         1 ARK1770     0.0000 
     50 H          13.8726   44.9060   41.8643 H         1 ARK1770     0.0000 
     51 H          15.6734   43.2008   41.4761 H         1 ARK1770     0.0000 
     52 H          16.0444   45.4519   43.1181 H         1 ARK1770     0.0000 
     53 H          17.9715   46.0489   44.1386 H         1 ARK1770     0.0000 
     54 H          20.0910   43.9901   44.1983 H         1 ARK1770     0.0000 
     55 H          20.6484   46.8530   43.6074 H         1 ARK1770     0.0000 
     56 H          20.2354   45.7619   42.2736 H         1 ARK1770     0.0000 
     57 H          22.2261   44.6159   42.4155 H         1 ARK1770     0.0000 
     58 H          22.3356   44.8226   44.1720 H         1 ARK1770     0.0000 
     59 H          23.6378   46.6445   43.9545 H         1 ARK1770     0.0000 
     60 H          22.4704   47.3988   42.8553 H         1 ARK1770     0.0000 
     61 H          23.4485   45.9963   40.9972 H         1 ARK1770     0.0000 
     62 H          24.7151   45.4962   42.1311 H         1 ARK1770     0.0000 
     63 H          25.0346   48.2364   43.5641 H         1 ARK1770     0.0000 
     64 H          27.1171   50.9060   41.9338 H         1 ARK1770     0.0000 
     65 H          26.8743   50.1652   43.5251 H         1 ARK1770     0.0000 
     66 H          26.1987   51.1867   44.9163 H         1 ARK1770     0.0000 
     67 H          24.4306   51.1702   44.8007 H         1 ARK1770     0.0000 
     68 H          24.5548   53.1744   45.7633 H         1 ARK1770     0.0000 
     69 H          24.9295   53.7703   44.1371 H         1 ARK1770     0.0000 
     70 H          25.8818   52.6802   47.1959 H         1 ARK1770     0.0000 
     71 H          26.8735   54.1301   47.4290 H         1 ARK1770     0.0000 
     72 H          28.2860   51.8339   46.1700 H         1 ARK1770     0.0000 
     73 H          27.7183   51.5861   47.8301 H         1 ARK1770     0.0000 
     74 H          28.9690   54.2137   47.4014 H         1 ARK1770     0.0000 
     75 H          29.1531   51.9266   49.8974 H         1 ARK1770     0.0000 
     76 H          31.1538   51.1479   51.0194 H         1 ARK1770     0.0000 
     77 H          33.5095   52.6931   47.9228 H         1 ARK1770     0.0000 
@<TRIPOS>BOND
     1    2    1 ar   
     2    3    2 ar   
     3    4    2 1    
     4    5    4 1    
     5   47    4 1    
     6   48    4 1    
     7    6    5 1    
     8   49    5 1    
     9   50    5 1    
    10    7    6 1    
    11   10    6 1    
    12   51    6 1    
    13    8    7 ar   
    14    9    7 ar   
    15   11   10 am   
    16   52   10 1    
    17   12   11 2    
    18   13   11 am   
    19   14   13 1    
    20   53   13 1    
    21   15   14 1    
    22   18   14 1    
    23   54   14 1    
    24   16   15 ar   
    25   17   15 ar   
    26   19   18 1    
    27   55   18 1    
    28   56   18 1    
    29   20   19 1    
    30   57   19 1    
    31   58   19 1    
    32   21   20 1    
    33   59   20 1    
    34   60   20 1    
    35   22   21 1    
    36   61   21 1    
    37   62   21 1    
    38   23   22 1    
    39   24   22 1    
    40   26   23 2    
    41   63   23 1    
    42   25   24 2    
    43   26   25 1    
    44   27   26 1    
    45   28   27 1    
    46   64   27 1    
    47   65   27 1    
    48   29   28 1    
    49   30   29 1    
    50   66   29 1    
    51   67   29 1    
    52   31   30 1    
    53   68   30 1    
    54   69   30 1    
    55   32   31 1    
    56   33   32 1    
    57   70   32 1    
    58   71   32 1    
    59   34   33 1    
    60   72   33 1    
    61   73   33 1    
    62   35   34 1    
    63   74   34 1    
    64   36   35 ar   
    65   43   35 ar   
    66   37   36 ar   
    67   75   36 1    
    68   38   37 ar   
    69   76   37 1    
    70   39   38 1    
    71   42   38 ar   
    72   40   39 2    
    73   41   39 2    
    74   43   42 ar   
    75   77   42 1    
    76   44   43 1    
    77   45   44 2    
    78   46   44 2    
@<TRIPOS>SUBSTRUCTURE
     1 ARK1770     1 GROUP   
@<TRIPOS>SET

