#    Name: 1nmd_ATP_1_INTS_M
#    Modification time : Mon Mar 24 18:27:40 2014

@<TRIPOS>MOLECULE
1nmd_ATP_1_INTS_M
   60     0    12     0     0
SMALL
NO_CHARGES


@<TRIPOS>ATOM
      1 N          12.3910   -0.4525   15.7540 N.am      2 SEC2        0.0000 
      2 N          13.1140   -1.8470   15.7900 N.am     10 SEL2        0.0000 
      3 N          11.6680    0.9420   15.7180 N.am      6 SEP2        0.0000 
      4 N          16.9435   -1.8875   14.6860 N.am      2 SEC2        0.0000 
      5 N          15.6630   -1.5000   15.5450 N.am     10 SEL2        0.0000 
      6 N          18.2240   -2.2750   13.8270 N.am      6 SEP2        0.0000 
      7 N          14.1600   -2.4895   12.5240 N.am      2 SEC2        0.0000 
      8 N          14.4450   -2.6510   13.8890 N.am     10 SEL2        0.0000 
      9 N          13.8750   -2.3280   11.1590 N.am      6 SEP2        0.0000 
     10 N          13.2545   -3.3315   13.2710 N.am      2 SEC2        0.0000 
     11 N          12.0640   -4.0120   12.6530 N.am      6 SEP2        0.0000 
     12 NZ         17.0625    1.3400   12.4290 N.4       3 LYC4        0.0000 
     13 NZ         16.1770    0.4360   12.9350 N.4      11 LYL4        0.0000 
     14 NZ         17.9480    2.2440   11.9230 N.4       7 LYP4        0.0000 
     15 NZ         16.0685    1.5750   11.9130 N.4       3 LYC4        0.0000 
     16 NZ         14.1890    0.9060   11.9030 N.4      11 LYL4        0.0000 
     17 N          13.2370    0.3100   11.0570 N.am      2 SEC2        0.0000 
     18 N          14.1890    0.9060   11.9030 N.am     10 SEL2        0.0000 
     19 N          12.2850   -0.2860   10.2110 N.am      6 SEP2        0.0000 
     20 N          14.1635    1.2475   10.5240 N.am      2 SEC2        0.0000 
     21 N          14.1380    1.5890    9.1450 N.am      6 SEP2        0.0000 
     22 N          12.8270    0.3530   14.9415 N.am      2 SEC2        0.0000 
     23 N          13.9860   -0.2360   14.1650 N.am     10 SEL2        0.0000 
     24 N          16.3195    4.0780   16.6455 N.am      2 SEC2        0.0000 
     25 N          16.3080    3.1180   15.6700 N.am     10 SEL2        0.0000 
     26 N          16.3310    5.0380   17.6210 N.am      6 SEP2        0.0000 
     27 NZ         17.0405    3.0290   12.6060 N.4       3 LYC4        0.0000 
     28 NZ         16.1330    3.8140   13.2890 N.4      11 LYL4        0.0000 
     29 N          17.0405    3.0290   12.6060 N.am      2 SEC2        0.0000 
     30 N          16.1330    3.8140   13.2890 N.am     10 SEL2        0.0000 
     31 N          17.9480    2.2440   11.9230 N.am      6 SEP2        0.0000 
     32 N           9.2165    8.2825   15.1010 N.am      2 SEC2        0.0000 
     33 N          10.2770    8.3520   14.1500 N.am     10 SEL2        0.0000 
     34 N           8.1560    8.2130   16.0520 N.am      6 SEP2        0.0000 
     35 O          10.8550    9.4535   13.6045 O.2       1 ALC1        0.0000 
     36 O          10.2770    8.3520   14.1500 O.2       9 ALL1        0.0000 
     37 O          11.4330   10.5550   13.0590 O.2       5 ALP1        0.0000 
     38 CA         13.8690    6.9390   16.4880 C.3       4 GLC5        0.0000 
     39 CA         12.0770    7.5870   15.6290 C.3      12 GLL5        0.0000 
     40 CA         15.6610    6.2910   17.3470 C.3       8 GLP5        0.0000 
     41 N          15.7275   10.4695   14.5150 N.am      2 SEC2        0.0000 
     42 N          14.3530   10.4260   15.5270 N.am     10 SEL2        0.0000 
     43 N          17.1020   10.5130   13.5030 N.am      6 SEP2        0.0000 
     44 CA         12.3935   12.6955   16.3525 C.3       4 GLC5        0.0000 
     45 CA         13.5370   11.7740   17.5730 C.3      12 GLL5        0.0000 
     46 CA         11.2500   13.6170   15.1320 C.3       8 GLP5        0.0000 
     47 CA         11.1820   12.3625   17.5570 C.3       4 GLC5        0.0000 
     48 CA         11.7420   10.6670   18.6630 C.3      12 GLL5        0.0000 
     49 CA         10.6220   14.0580   16.4510 C.3       8 GLP5        0.0000 
     50 CA         13.8590   10.6110   19.1820 C.3       4 GLC5        0.0000 
     51 CA         15.9760   10.5550   19.7010 C.3       8 GLP5        0.0000 
     52 CA         14.1675    5.6718   15.9295 C.3       4 GLC5        0.0000 
     53 CA         12.1550    5.3580   14.9630 C.3      12 GLL5        0.0000 
     54 CA         10.0250    5.0493   15.9198 C.3       4 GLC5        0.0000 
     55 CA          8.4850    4.4310   17.2570 C.3       8 GLP5        0.0000 
     56 CA         11.9865   11.2005   15.7142 C.3       4 GLC5        0.0000 
     57 CA         12.6540    9.7010   16.8270 C.3      12 GLL5        0.0000 
     58 CA         10.8590   12.1980   14.7000 C.3       8 GLP5        0.0000 
     59 CA         14.5404   10.5126   18.3326 C.3       4 GLC5        0.0000 
     60 CA         13.5740   10.7050   16.6300 C.3      12 GLL5        0.0000 
@<TRIPOS>BOND
@<TRIPOS>SUBSTRUCTURE
     1 ALC1       35 GROUP        1 X    ALC  0     ROOT ALC X 1
     2 SEC2        1 GROUP        1 X    SEC  0     **** SEC X 2
     3 LYC4       12 GROUP        1 X    LYC  0     **** LYC X 4
     4 GLC5       38 GROUP        1 X    GLC  0     **** GLC X 6
     5 ALP1       37 GROUP        1 Y    ALP  0     ROOT ALP Y 8
     6 SEP2        3 GROUP        1 Y    SEP  0     **** SEP Y 9
     7 LYP4       14 GROUP        1 Y    LYP  0     **** LYP Y 11
     8 GLP5       40 GROUP        1 Y    GLP  0     **** GLP Y 13
     9 ALL1       36 GROUP        1 Z    ALL  0     ROOT ALL Z 15
    10 SEL2        2 GROUP        1 Z    SEL  0     **** SEL Z 16
    11 LYL4       13 GROUP        1 Z    LYL  0     **** LYL Z 18
    12 GLL5       39 GROUP        1 Z    GLL  0     **** GLL Z 20
@<TRIPOS>SET

