#    Name: 1nmd_ATP_1_ligand
#    Modification time : Mon Mar 24 18:27:40 2014

@<TRIPOS>MOLECULE
1nmd_ATP_1_ligand
   43    45     1     0     0
SMALL
NO_CHARGES


@<TRIPOS>ATOM
      1 PG         14.2720   -1.5860   14.9420 P.3       1 ATP401      0.0000 
      2 O1G        13.1140   -1.8470   15.7900 O.co2     1 ATP401      0.0000 
      3 O2G        15.6630   -1.5000   15.5450 O.co2     1 ATP401      0.0000 
      4 O3G        14.4450   -2.6510   13.8890 O.co2     1 ATP401      0.0000 
      5 PB         14.7680    0.7190   13.2210 P.3       1 ATP401      0.0000 
      6 O1B        16.1770    0.4360   12.9350 O.co2     1 ATP401      0.0000 
      7 O2B        14.1890    0.9060   11.9030 O.co2     1 ATP401      0.0000 
      8 O3B        13.9860   -0.2360   14.1650 O.3       1 ATP401      0.0000 
      9 PA         15.4220    3.3090   14.4770 P.3       1 ATP401      0.0000 
     10 O1A        16.3080    3.1180   15.6700 O.co2     1 ATP401      0.0000 
     11 O2A        16.1330    3.8140   13.2890 O.co2     1 ATP401      0.0000 
     12 O3A        14.5880    1.9910   14.1610 O.3       1 ATP401      0.0000 
     13 O5'        14.2550    4.2460   14.8820 O.3       1 ATP401      0.0000 
     14 C5'        13.1930    4.7470   14.0610 C.3       1 ATP401      0.0000 
     15 C4'        12.1550    5.3580   14.9630 C.3       1 ATP401      0.0000 
     16 O4'        12.7840    6.3930   15.7710 O.3       1 ATP401      0.0000 
     17 C3'        10.9750    5.9770   14.2020 C.3       1 ATP401      0.0000 
     18 O3'         9.7060    5.7490   14.8500 O.3       1 ATP401      0.0000 
     19 C2'        11.3740    7.4500   14.2570 C.3       1 ATP401      0.0000 
     20 O2'        10.2770    8.3520   14.1500 O.3       1 ATP401      0.0000 
     21 C1'        12.0770    7.5870   15.6290 C.3       1 ATP401      0.0000 
     22 N9         12.8730    8.7960   15.7990 N.pl3     1 ATP401      0.0000 
     23 C8         13.8960    9.2680   15.0460 C.2       1 ATP401      0.0000 
     24 N7         14.3530   10.4260   15.5270 N.2       1 ATP401      0.0000 
     25 C5         13.5740   10.7050   16.6300 C.ar      1 ATP401      0.0000 
     26 C6         13.5370   11.7740   17.5730 C.ar      1 ATP401      0.0000 
     27 N6         14.3350   12.8260   17.5650 N.pl3     1 ATP401      0.0000 
     28 N1         12.6200   11.7600   18.5930 N.ar      1 ATP401      0.0000 
     29 C2         11.7420   10.6670   18.6630 C.ar      1 ATP401      0.0000 
     30 N3         11.7050    9.6350   17.8290 N.ar      1 ATP401      0.0000 
     31 C4         12.6540    9.7010   16.8270 C.ar      1 ATP401      0.0000 
     32 H          12.7245    3.9493   13.4829 H         1 ATP401      0.0000 
     33 H          13.5487    5.5139   13.3716 H         1 ATP401      0.0000 
     34 H          11.7606    4.5849   15.6192 H         1 ATP401      0.0000 
     35 H          11.0265    5.6615   13.2010 H         1 ATP401      0.0000 
     36 H          12.1334    7.6114   13.5097 H         1 ATP401      0.0000 
     37 H          11.2360    7.5883   16.3676 H         1 ATP401      0.0000 
     38 H          14.2482    8.8080   14.2496 H         1 ATP401      0.0000 
     39 H          15.0291   12.8463   16.8454 H         1 ATP401      0.0000 
     40 H          14.1727   13.5068   18.2793 H         1 ATP401      0.0000 
     41 H          11.0404   10.6958   19.4847 H         1 ATP401      0.0000 
     42 H           9.0267    5.8152   14.1191 H         1 ATP401      0.0000 
     43 H          10.6607    9.1782   13.7375 H         1 ATP401      0.0000 
@<TRIPOS>BOND
     1    2    1 ar   
     2    3    1 ar   
     3    4    1 ar   
     4    8    1 1    
     5    6    5 ar   
     6    7    5 ar   
     7    8    5 1    
     8   12    5 1    
     9   10    9 ar   
    10   11    9 ar   
    11   12    9 1    
    12   13    9 1    
    13   14   13 1    
    14   15   14 1    
    15   32   14 1    
    16   33   14 1    
    17   16   15 1    
    18   17   15 1    
    19   34   15 1    
    20   21   16 1    
    21   18   17 1    
    22   19   17 1    
    23   35   17 1    
    24   42   18 1    
    25   20   19 1    
    26   21   19 1    
    27   36   19 1    
    28   43   20 1    
    29   22   21 1    
    30   37   21 1    
    31   23   22 1    
    32   31   22 1    
    33   24   23 2    
    34   38   23 1    
    35   25   24 1    
    36   26   25 ar   
    37   31   25 ar   
    38   27   26 1    
    39   28   26 ar   
    40   39   27 1    
    41   40   27 1    
    42   29   28 ar   
    43   30   29 ar   
    44   41   29 1    
    45   31   30 ar   
@<TRIPOS>SUBSTRUCTURE
     1 ATP401      1 GROUP   
@<TRIPOS>SET

