#    Name: 3p8z_36A_1_INTS_M
#    Modification time : Tue Mar 25 06:05:17 2014

@<TRIPOS>MOLECULE
3p8z_36A_1_INTS_M
   83     0    12     0     0
SMALL
NO_CHARGES


@<TRIPOS>ATOM
      1 OD1         5.6250   -7.6790   43.1345 O.co2     3 ASC3        0.0000 
      2 OD1         7.0820   -7.6340   43.3640 O.co2    11 ASL3        0.0000 
      3 OD1         4.1680   -7.7240   42.9050 O.co2     7 ASP3        0.0000 
      4 O           5.6250   -7.6790   43.1345 O.2       1 ALC1        0.0000 
      5 O           7.0820   -7.6340   43.3640 O.2       9 ALL1        0.0000 
      6 O           4.1680   -7.7240   42.9050 O.2       5 ALP1        0.0000 
      7 O           7.5640   -7.2580   42.1660 O.2       1 ALC1        0.0000 
      8 O           8.0460   -6.8820   40.9680 O.2       5 ALP1        0.0000 
      9 N           8.5545   -7.7180   47.6485 N.am      2 SEC2        0.0000 
     10 N           8.6460   -6.9080   46.5750 N.am     10 SEL2        0.0000 
     11 N           8.4630   -8.5280   48.7220 N.am      6 SEP2        0.0000 
     12 N          10.0775   -7.5695   46.3590 N.am      2 SEC2        0.0000 
     13 N          11.5090   -8.2310   46.1430 N.am      6 SEP2        0.0000 
     14 N           7.8390    2.7125   35.9305 N.am      2 SEC2        0.0000 
     15 N           7.1850    2.4740   37.2930 N.am     10 SEL2        0.0000 
     16 N           8.4930    2.9510   34.5680 N.am      6 SEP2        0.0000 
     17 CA          7.9545   -0.3185   38.7705 C.3       4 GLC5        0.0000 
     18 CA          7.9810    1.7720   38.1210 C.3      12 GLL5        0.0000 
     19 CA          7.9280   -2.4090   39.4200 C.3       8 GLP5        0.0000 
     20 CA          9.4825    1.2585   39.1920 C.3       4 GLC5        0.0000 
     21 CA         10.9840    0.7450   40.2630 C.3       8 GLP5        0.0000 
     22 CA          8.0770    3.1500   39.4695 C.3       4 GLC5        0.0000 
     23 CA          8.1730    4.5280   40.8180 C.3       8 GLP5        0.0000 
     24 CA          8.4375    3.4075   36.9405 C.3       4 GLC5        0.0000 
     25 CA          8.8940    5.0430   35.7600 C.3       8 GLP5        0.0000 
     26 CA          8.6650    0.9890   36.5850 C.3       4 GLC5        0.0000 
     27 CA          9.3490    0.2060   35.0490 C.3       8 GLP5        0.0000 
     28 CA          6.6400    0.2675   37.4230 C.3       4 GLC5        0.0000 
     29 CA          5.2990   -1.2370   36.7250 C.3       8 GLP5        0.0000 
     30 CA          7.0695   -0.4725   39.5195 C.3       4 GLC5        0.0000 
     31 CA          6.2110    1.4640   39.6190 C.3      12 GLL5        0.0000 
     32 CA          7.1920    2.9960   40.2185 C.3       4 GLC5        0.0000 
     33 CA          7.3895    3.8895   36.6830 C.3       4 GLC5        0.0000 
     34 CA          5.8850    2.7360   37.6060 C.3      12 GLL5        0.0000 
     35 CA          6.4235    1.5245   35.9560 C.3       4 GLC5        0.0000 
     36 CA          6.9620    0.3130   34.3060 C.3       8 GLP5        0.0000 
     37 O           5.7070    4.2640   35.7460 O.2       1 ALC1        0.0000 
     38 O           5.1770    3.4590   36.7090 O.2       9 ALL1        0.0000 
     39 O           6.2370    5.0690   34.7830 O.2       5 ALP1        0.0000 
     40 CA          7.6185   -8.8915   43.8450 C.3       4 GLC5        0.0000 
     41 CA          7.5680   -6.7660   44.4350 C.3      12 GLL5        0.0000 
     42 CA          7.6690  -11.0170   43.2550 C.3       8 GLP5        0.0000 
     43 CA          7.9605   -3.5615   44.4040 C.3       4 GLC5        0.0000 
     44 CA          6.1670   -4.8060   43.9890 C.3      12 GLL5        0.0000 
     45 CA          9.7540   -2.3170   44.8190 C.3       8 GLP5        0.0000 
     46 CA          5.4035   -5.9400   42.3240 C.3       4 GLC5        0.0000 
     47 CA          4.6400   -7.0740   40.6590 C.3       8 GLP5        0.0000 
     48 CA          7.0155   -1.0740   40.6035 C.3       4 GLC5        0.0000 
     49 CA          6.1030    0.2610   41.7870 C.3      12 GLL5        0.0000 
     50 N           5.7200    2.7840   43.8195 N.am      2 SEC2        0.0000 
     51 N           6.2530    1.5800   43.9160 N.am     10 SEL2        0.0000 
     52 N           5.1870    3.9880   43.7230 N.am      6 SEP2        0.0000 
     53 CA          3.9725    3.6565   33.4065 C.3       4 GLC5        0.0000 
     54 CA          3.0770    2.6400   34.9400 C.3      12 GLL5        0.0000 
     55 CA          4.8680    4.6730   31.8730 C.3       8 GLP5        0.0000 
     56 CA          7.7005   -1.5435   44.3655 C.3       4 GLC5        0.0000 
     57 CA          5.6470   -0.7700   43.9120 C.3      12 GLL5        0.0000 
     58 CA          2.5830    2.9760   31.6625 C.3       4 GLC5        0.0000 
     59 CA          2.4850    1.2730   32.6900 C.3      12 GLL5        0.0000 
     60 CA          2.6810    4.6790   30.6350 C.3       8 GLP5        0.0000 
     61 CA          0.4915    1.7335   32.2620 C.3       4 GLC5        0.0000 
     62 CA         -1.5020    2.1940   31.8340 C.3       8 GLP5        0.0000 
     63 CA          1.3350   -0.3105   32.4195 C.3       4 GLC5        0.0000 
     64 CA          0.1850   -1.8940   32.1490 C.3       8 GLP5        0.0000 
     65 CA          3.0180    0.4350   31.2185 C.3       4 GLC5        0.0000 
     66 CA          3.5510   -0.4030   29.7470 C.3       8 GLP5        0.0000 
     67 CA          6.8140   -2.1000   41.0975 C.3       4 GLC5        0.0000 
     68 CA          5.7000   -1.7910   42.7750 C.3      12 GLL5        0.0000 
     69 CA          5.9675    4.2242   39.2383 C.3       4 GLC5        0.0000 
     70 CA          5.3570    2.1970   38.8090 C.3      12 GLL5        0.0000 
     71 CA          6.3140    5.9820   40.2690 C.3       8 GLP5        0.0000 
     72 CA          5.5668    0.5231   37.5675 C.3       4 GLC5        0.0000 
     73 CA          2.6470    1.0808   36.6187 C.3       4 GLC5        0.0000 
     74 CA          2.8030    3.1490   36.2170 C.3      12 GLL5        0.0000 
     75 CA          2.3540   -0.7330   37.6590 C.3       8 GLP5        0.0000 
     76 CA          1.9140    0.5320   36.1178 C.3       4 GLC5        0.0000 
     77 CA          2.1020    1.9120   34.2890 C.3      12 GLL5        0.0000 
     78 CA         -0.0140    1.9955   33.2052 C.3       4 GLC5        0.0000 
     79 CA          0.8460    1.6820   34.8640 C.3      12 GLL5        0.0000 
     80 CA          1.7075    0.9140   37.0680 C.3       4 GLC5        0.0000 
     81 CA          0.5770    2.1880   36.1400 C.3      12 GLL5        0.0000 
     82 CA          0.6812    0.0622   35.0321 C.3       4 GLC5        0.0000 
     83 CA          0.3370   -1.8680   34.7060 C.3       8 GLP5        0.0000 
@<TRIPOS>BOND
@<TRIPOS>SUBSTRUCTURE
     1 ALC1        4 GROUP        1 X    ALC  0     ROOT ALC X 1
     2 SEC2        9 GROUP        1 X    SEC  0     **** SEC X 2
     3 ASC3        1 GROUP        1 X    ASC  0     **** ASC X 3
     4 GLC5       17 GROUP        1 X    GLC  0     **** GLC X 6
     5 ALP1        6 GROUP        1 Y    ALP  0     ROOT ALP Y 8
     6 SEP2       11 GROUP        1 Y    SEP  0     **** SEP Y 9
     7 ASP3        3 GROUP        1 Y    ASP  0     **** ASP Y 10
     8 GLP5       19 GROUP        1 Y    GLP  0     **** GLP Y 13
     9 ALL1        5 GROUP        1 Z    ALL  0     ROOT ALL Z 15
    10 SEL2       10 GROUP        1 Z    SEL  0     **** SEL Z 16
    11 ASL3        2 GROUP        1 Z    ASL  0     **** ASL Z 17
    12 GLL5       18 GROUP        1 Z    GLL  0     **** GLL Z 20
@<TRIPOS>SET

