#    Name: 3p8z_36A_1_ligand
#    Modification time : Tue Mar 25 06:05:17 2014

@<TRIPOS>MOLECULE
3p8z_36A_1_ligand
   59    62     1     0     0
SMALL
NO_CHARGES


@<TRIPOS>ATOM
      1 C           8.2150   -7.5260   45.5840 C.2       1 36A263      0.0000 
      2 N           7.0820   -7.6340   43.3640 N.4       1 36A263      0.0000 
      3 O           8.6460   -6.9080   46.5750 O.co2     1 36A263      0.0000 
      4 N1          7.1850    2.4740   37.2930 N.ar      1 36A263      0.0000 
      5 C2          7.9810    1.7720   38.1210 C.ar      1 36A263      0.0000 
      6 N3          7.5150    1.2590   39.2740 N.ar      1 36A263      0.0000 
      7 C4          6.2110    1.4640   39.6190 C.ar      1 36A263      0.0000 
      8 C5          5.3570    2.1970   38.8090 C.ar      1 36A263      0.0000 
      9 C6          5.8850    2.7360   37.6060 C.ar      1 36A263      0.0000 
     10 N6          5.1770    3.4590   36.7090 N.pl3     1 36A263      0.0000 
     11 N7          4.1320    2.2150   39.4190 N.2       1 36A263      0.0000 
     12 C8          4.2570    1.5130   40.5870 C.2       1 36A263      0.0000 
     13 N9          5.5270    1.0710   40.7070 N.pl3     1 36A263      0.0000 
     14 CA          7.5680   -6.7660   44.4350 C.3       1 36A263      0.0000 
     15 CB          6.3830   -5.9280   44.9780 C.3       1 36A263      0.0000 
     16 CD          4.5940   -2.8250   42.7950 C.3       1 36A263      0.0000 
     17 SD          4.6950   -3.8670   44.2360 S.3       1 36A263      0.0000 
     18 CG          6.1670   -4.8060   43.9890 C.3       1 36A263      0.0000 
     19 C1'         6.1030    0.2610   41.7870 C.3       1 36A263      0.0000 
     20 C2'         5.5450    0.5750   43.1950 C.3       1 36A263      0.0000 
     21 O2'         6.2530    1.5800   43.9160 O.3       1 36A263      0.0000 
     22 C27         3.8470    3.9650   36.9360 C.3       1 36A263      0.0000 
     23 C28         2.8030    3.1490   36.2170 C.ar      1 36A263      0.0000 
     24 C29         3.0770    2.6400   34.9400 C.ar      1 36A263      0.0000 
     25 C3'         5.6470   -0.7700   43.9120 C.3       1 36A263      0.0000 
     26 O3'         6.8650   -0.8430   44.6560 O.3       1 36A263      0.0000 
     27 C30         2.1020    1.9120   34.2890 C.ar      1 36A263      0.0000 
     28 C31         0.8460    1.6820   34.8640 C.ar      1 36A263      0.0000 
     29 C32         0.5770    2.1880   36.1400 C.ar      1 36A263      0.0000 
     30 C33         1.5450    2.9340   36.8140 C.ar      1 36A263      0.0000 
     31 CL34        2.4850    1.2730   32.6900 Cl        1 36A263      0.0000 
     32 C4'         5.7000   -1.7910   42.7750 C.3       1 36A263      0.0000 
     33 O4'         5.6320   -1.0710   41.5290 O.3       1 36A263      0.0000 
     34 OXT         8.3300   -8.7950   45.5470 O.co2     1 36A263      0.0000 
     35 H           8.9899    1.6214   37.8603 H         1 36A263      0.0000 
     36 H           5.5978    3.6879   35.7645 H         1 36A263      0.0000 
     37 H           3.5414    1.3629   41.2202 H         1 36A263      0.0000 
     38 H           8.2936   -6.0536   44.0419 H         1 36A263      0.0000 
     39 H           6.6488   -5.5342   45.9365 H         1 36A263      0.0000 
     40 H           5.5148   -6.5509   45.0308 H         1 36A263      0.0000 
     41 H           3.6134   -2.3990   42.8750 H         1 36A263      0.0000 
     42 H           4.6518   -3.5269   41.9866 H         1 36A263      0.0000 
     43 H           6.0657   -5.1585   42.9638 H         1 36A263      0.0000 
     44 H           6.9506   -4.0510   44.0270 H         1 36A263      0.0000 
     45 H           7.1460    0.2883   41.8049 H         1 36A263      0.0000 
     46 H           4.4951    0.7860   43.0824 H         1 36A263      0.0000 
     47 H           3.7609    5.0136   36.5956 H         1 36A263      0.0000 
     48 H           3.6039    3.9641   38.0147 H         1 36A263      0.0000 
     49 H           3.9854    2.8104   34.5074 H         1 36A263      0.0000 
     50 H           4.7843   -0.9311   44.4760 H         1 36A263      0.0000 
     51 H           0.1368    1.1522   34.3582 H         1 36A263      0.0000 
     52 H          -0.3331    2.0098   36.5796 H         1 36A263      0.0000 
     53 H           1.3478    3.3256   37.7379 H         1 36A263      0.0000 
     54 H           6.6597   -2.3083   42.8329 H         1 36A263      0.0000 
     55 H           7.6267   -8.4691   43.2868 H         1 36A263      0.0000 
     56 H           6.1342   -7.9151   43.5150 H         1 36A263      0.0000 
     57 H           7.1146   -7.1794   42.4739 H         1 36A263      0.0000 
     58 H           6.8217    1.0784   44.5679 H         1 36A263      0.0000 
     59 H           6.6649   -1.4561   45.4203 H         1 36A263      0.0000 
@<TRIPOS>BOND
     1    3    1 ar   
     2   14    1 1    
     3   34    1 ar   
     4   14    2 1    
     5   55    2 1    
     6   56    2 1    
     7   57    2 1    
     8    5    4 ar   
     9    9    4 ar   
    10    6    5 ar   
    11   35    5 1    
    12    7    6 ar   
    13    8    7 ar   
    14   13    7 1    
    15    9    8 ar   
    16   11    8 1    
    17   10    9 1    
    18   22   10 1    
    19   36   10 1    
    20   12   11 2    
    21   13   12 1    
    22   37   12 1    
    23   19   13 1    
    24   15   14 1    
    25   38   14 1    
    26   18   15 1    
    27   39   15 1    
    28   40   15 1    
    29   17   16 1    
    30   32   16 1    
    31   41   16 1    
    32   42   16 1    
    33   18   17 1    
    34   43   18 1    
    35   44   18 1    
    36   20   19 1    
    37   33   19 1    
    38   45   19 1    
    39   21   20 1    
    40   25   20 1    
    41   46   20 1    
    42   58   21 1    
    43   23   22 1    
    44   47   22 1    
    45   48   22 1    
    46   24   23 ar   
    47   30   23 ar   
    48   27   24 ar   
    49   49   24 1    
    50   26   25 1    
    51   32   25 1    
    52   50   25 1    
    53   59   26 1    
    54   28   27 ar   
    55   31   27 1    
    56   29   28 ar   
    57   51   28 1    
    58   30   29 ar   
    59   52   29 1    
    60   53   30 1    
    61   33   32 1    
    62   54   32 1    
@<TRIPOS>SUBSTRUCTURE
     1 36A263      1 GROUP   
@<TRIPOS>SET

