#    Name: 3zxt_ACP_4_INTS_M
#    Modification time : Tue Mar 25 04:36:44 2014

@<TRIPOS>MOLECULE
3zxt_ACP_4_INTS_M
   47     0    15     0     0
SMALL
NO_CHARGES


@<TRIPOS>ATOM
      1 N          63.6110   -7.0495   -5.7450 N.am      2 SEC2        0.0000 
      2 N          63.2160   -5.6320   -5.4540 N.am     12 SEL2        0.0000 
      3 N          64.0060   -8.4670   -6.0360 N.am      7 SEP2        0.0000 
      4 Zn         68.1440   -3.0015   -6.1860 Zn        4 ZIC7        0.0000 
      5 Zn         67.0000   -3.2580   -6.4740 Zn       14 ZIL7        0.0000 
      6 Zn         69.2880   -2.7450   -5.8980 Zn        9 ZIP7        0.0000 
      7 NZ         64.6390   -1.2450   -8.8780 N.4       3 LYC4        0.0000 
      8 NZ         64.9880   -1.8110   -7.0090 N.4      13 LYL4        0.0000 
      9 NZ         64.2900   -0.6790  -10.7470 N.4       8 LYP4        0.0000 
     10 CA         65.3725   -6.2015   -7.4300 C.3       5 GLC5        0.0000 
     11 CA         64.8180   -4.4770   -7.4310 C.3      15 GLL5        0.0000 
     12 CA         65.9270   -7.9260   -7.4290 C.3      10 GLP5        0.0000 
     13 CA         64.2625   -5.3870   -9.1910 C.3       5 GLC5        0.0000 
     14 CA         63.7070   -6.2970  -10.9510 C.3      10 GLP5        0.0000 
     15 Zn         69.0540   -2.5075   -6.8645 Zn        4 ZIC7        0.0000 
     16 Zn         68.8200   -2.2700   -7.8310 Zn       14 ZIL7        0.0000 
     17 CA         74.5055   -2.1090  -10.0630 C.3       5 GLC5        0.0000 
     18 CA         72.8740   -3.0680   -9.6260 C.3      15 GLL5        0.0000 
     19 CA         76.1370   -1.1500  -10.5000 C.3      10 GLP5        0.0000 
     20 CA         70.8110   -4.3615  -12.3800 C.3       5 GLC5        0.0000 
     21 CA         72.3120   -3.5120  -10.9770 C.3      15 GLL5        0.0000 
     22 CA         69.3100   -5.2110  -13.7830 C.3      10 GLP5        0.0000 
     23 CA         74.0610    1.7170  -13.9555 C.3       5 GLC5        0.0000 
     24 CA         72.8650    0.3140  -14.1740 C.3      15 GLL5        0.0000 
     25 CA         75.2570    3.1200  -13.7370 C.3      10 GLP5        0.0000 
     26 O          72.5155    2.0795  -15.7310 O.2       1 ALC1        0.0000 
     27 O          72.1940    1.3560  -14.6740 O.2      11 ALL1        0.0000 
     28 O          72.8370    2.8030  -16.7880 O.2       6 ALP1        0.0000 
     29 N          75.1245    0.9095  -15.2120 N.am      2 SEC2        0.0000 
     30 N          74.1540    0.0520  -14.5180 N.am     12 SEL2        0.0000 
     31 N          76.0950    1.7670  -15.9060 N.am      7 SEP2        0.0000 
     32 CA         75.3380   -1.0755  -16.0555 C.3       5 GLC5        0.0000 
     33 CA         74.7690   -1.0200  -13.9800 C.3      15 GLL5        0.0000 
     34 CA         75.9070   -1.1310  -18.1310 C.3      10 GLP5        0.0000 
     35 CA         75.6960    0.7200  -13.7930 C.3       5 GLC5        0.0000 
     36 CA         76.6230    2.4600  -13.6060 C.3      10 GLP5        0.0000 
     37 CA         75.4530   -1.0850  -12.2400 C.3       5 GLC5        0.0000 
     38 CA         74.5090   -1.4160  -11.5795 C.3       5 GLC5        0.0000 
     39 CA         72.8810   -1.6820  -12.6590 C.3      15 GLL5        0.0000 
     40 CA         72.2429   -1.4655   -9.4984 C.3       5 GLC5        0.0000 
     41 CA         72.1830    0.4100   -8.9360 C.3      10 GLP5        0.0000 
     42 CA         72.1685   -0.5842  -15.5895 C.3       5 GLC5        0.0000 
     43 CA         72.1430   -0.5490  -13.2140 C.3      15 GLL5        0.0000 
     44 CA         71.8330   -1.0510  -17.4850 C.3      10 GLP5        0.0000 
     45 CA         72.1530    1.8277  -13.6840 C.3       5 GLC5        0.0000 
     46 CA         71.8020    3.7730  -13.6740 C.3      10 GLP5        0.0000 
     47 CA         72.3475   -0.3528  -10.9362 C.3       5 GLC5        0.0000 
@<TRIPOS>BOND
@<TRIPOS>SUBSTRUCTURE
     1 ALC1       26 GROUP        1 X    ALC  0     ROOT ALC X 1
     2 SEC2        1 GROUP        1 X    SEC  0     **** SEC X 2
     3 LYC4        7 GROUP        1 X    LYC  0     **** LYC X 4
     4 ZIC7        4 GROUP        1 X    ZIC  0     **** ZIC X 5
     5 GLC5       10 GROUP        1 X    GLC  0     **** GLC X 6
     6 ALP1       28 GROUP        1 Y    ALP  0     ROOT ALP Y 8
     7 SEP2        3 GROUP        1 Y    SEP  0     **** SEP Y 9
     8 LYP4        9 GROUP        1 Y    LYP  0     **** LYP Y 11
     9 ZIP7        6 GROUP        1 Y    ZIP  0     **** ZIP Y 12
    10 GLP5       12 GROUP        1 Y    GLP  0     **** GLP Y 13
    11 ALL1       27 GROUP        1 Z    ALL  0     ROOT ALL Z 15
    12 SEL2        2 GROUP        1 Z    SEL  0     **** SEL Z 16
    13 LYL4        8 GROUP        1 Z    LYL  0     **** LYL Z 18
    14 ZIL7        5 GROUP        1 Z    ZIL  0     **** ZIL Z 19
    15 GLL5       11 GROUP        1 Z    GLL  0     **** GLL Z 20
@<TRIPOS>SET

