#    Name: 3zxt_ACP_4_ligand
#    Modification time : Tue Mar 25 04:36:45 2014

@<TRIPOS>MOLECULE
3zxt_ACP_4_ligand
   45    47     1     0     0
SMALL
NO_CHARGES


@<TRIPOS>ATOM
      1 PG         64.3740   -4.5260   -5.6610 P.3       1 ACP1277     0.0000 
      2 O1G        65.7140   -4.8740   -4.8130 O.co2     1 ACP1277     0.0000 
      3 O2G        63.2160   -5.6320   -5.4540 O.co2     1 ACP1277     0.0000 
      4 O3G        63.8750   -3.1910   -5.2100 O.co2     1 ACP1277     0.0000 
      5 PB         65.9180   -3.0460   -7.4920 P.3       1 ACP1277     0.0000 
      6 O1B        67.0000   -3.2580   -6.4740 O.co2     1 ACP1277     0.0000 
      7 O2B        64.9880   -1.8110   -7.0090 O.co2     1 ACP1277     0.0000 
      8 C3B        64.8180   -4.4770   -7.4310 C.3       1 ACP1277     0.0000 
      9 PA         68.1500   -2.5330   -9.1570 P.3       1 ACP1277     0.0000 
     10 O1A        68.8200   -2.2700   -7.8310 O.co2     1 ACP1277     0.0000 
     11 O2A        68.3070   -1.5200  -10.2750 O.co2     1 ACP1277     0.0000 
     12 O3A        66.5640   -2.7770   -8.9510 O.3       1 ACP1277     0.0000 
     13 O5'        68.6760   -3.9780   -9.6290 O.3       1 ACP1277     0.0000 
     14 C5'        69.5940   -4.6800   -8.7920 C.3       1 ACP1277     0.0000 
     15 C4'        71.0350   -4.4890   -9.2440 C.3       1 ACP1277     0.0000 
     16 O4'        71.1000   -4.2010  -10.6390 O.3       1 ACP1277     0.0000 
     17 C3'        71.7130   -3.2720   -8.6630 C.3       1 ACP1277     0.0000 
     18 O3'        72.0930   -3.4450   -7.2890 O.3       1 ACP1277     0.0000 
     19 C2'        72.8740   -3.0680   -9.6260 C.3       1 ACP1277     0.0000 
     20 O2'        73.9920   -3.8880   -9.2850 O.3       1 ACP1277     0.0000 
     21 C1'        72.3120   -3.5120  -10.9770 C.3       1 ACP1277     0.0000 
     22 N9         72.0340   -2.3000  -11.8170 N.pl3     1 ACP1277     0.0000 
     23 C8         70.8660   -1.6180  -11.8310 C.2       1 ACP1277     0.0000 
     24 N7         70.9150   -0.5550  -12.6700 N.2       1 ACP1277     0.0000 
     25 C5         72.1430   -0.5490  -13.2140 C.ar      1 ACP1277     0.0000 
     26 C6         72.8650    0.3140  -14.1740 C.ar      1 ACP1277     0.0000 
     27 N6         72.1940    1.3560  -14.6740 N.pl3     1 ACP1277     0.0000 
     28 N1         74.1540    0.0520  -14.5180 N.ar      1 ACP1277     0.0000 
     29 C2         74.7690   -1.0200  -13.9800 C.ar      1 ACP1277     0.0000 
     30 N3         74.1660   -1.8560  -13.0830 N.ar      1 ACP1277     0.0000 
     31 C4         72.8810   -1.6820  -12.6590 C.ar      1 ACP1277     0.0000 
     32 H          63.9899   -4.2251   -7.9159 H         1 ACP1277     0.0000 
     33 H          65.3784   -5.2788   -7.5967 H         1 ACP1277     0.0000 
     34 H          69.3860   -5.7661   -8.7854 H         1 ACP1277     0.0000 
     35 H          69.5245   -4.3407   -7.7418 H         1 ACP1277     0.0000 
     36 H          71.6224   -5.3476   -9.0146 H         1 ACP1277     0.0000 
     37 H          71.0340   -2.4368   -8.8087 H         1 ACP1277     0.0000 
     38 H          73.0977   -2.0388   -9.6832 H         1 ACP1277     0.0000 
     39 H          73.0142   -4.1458  -11.4377 H         1 ACP1277     0.0000 
     40 H          70.0750   -1.8632  -11.2967 H         1 ACP1277     0.0000 
     41 H          72.4230    1.6179  -15.6115 H         1 ACP1277     0.0000 
     42 H          71.5231    1.7802  -14.0657 H         1 ACP1277     0.0000 
     43 H          75.7701   -1.2316  -14.2618 H         1 ACP1277     0.0000 
     44 H          72.4107   -2.5442   -6.9930 H         1 ACP1277     0.0000 
     45 H          73.7735   -4.2614   -8.3834 H         1 ACP1277     0.0000 
@<TRIPOS>BOND
     1    2    1 ar   
     2    3    1 ar   
     3    4    1 ar   
     4    8    1 1    
     5    6    5 ar   
     6    7    5 ar   
     7    8    5 1    
     8   12    5 1    
     9   32    8 1    
    10   33    8 1    
    11   10    9 ar   
    12   11    9 ar   
    13   12    9 1    
    14   13    9 1    
    15   14   13 1    
    16   15   14 1    
    17   34   14 1    
    18   35   14 1    
    19   16   15 1    
    20   17   15 1    
    21   36   15 1    
    22   21   16 1    
    23   18   17 1    
    24   19   17 1    
    25   37   17 1    
    26   44   18 1    
    27   20   19 1    
    28   21   19 1    
    29   38   19 1    
    30   45   20 1    
    31   22   21 1    
    32   39   21 1    
    33   23   22 1    
    34   31   22 1    
    35   24   23 2    
    36   40   23 1    
    37   25   24 1    
    38   26   25 ar   
    39   31   25 ar   
    40   27   26 1    
    41   28   26 ar   
    42   41   27 1    
    43   42   27 1    
    44   29   28 ar   
    45   30   29 ar   
    46   43   29 1    
    47   31   30 ar   
@<TRIPOS>SUBSTRUCTURE
     1 ACP1277     1 GROUP   
@<TRIPOS>SET

