#    Name: 2qu6_857_1_INTS_M
#    Modification time : Mon Mar 24 22:51:59 2014

@<TRIPOS>MOLECULE
2qu6_857_1_INTS_M
   94     0     9     0     0
SMALL
NO_CHARGES


@<TRIPOS>ATOM
      1 CA         40.1875   38.4640    8.4425 C.3       3 GLC5        0.0000 
      2 CA         39.6450   38.4890   10.4420 C.3       9 GLL5        0.0000 
      3 CA         40.7300   38.4390    6.4430 C.3       6 GLP5        0.0000 
      4 CA         35.2590   39.4115   12.6090 C.3       3 GLC5        0.0000 
      5 CA         37.2520   39.1400   12.0840 C.3       9 GLL5        0.0000 
      6 CA         33.2660   39.6830   13.1340 C.3       6 GLP5        0.0000 
      7 N          41.3730   27.0260   10.5395 N.am      2 SEC2        0.0000 
      8 N          40.9480   27.7800   11.8820 N.am      8 SEL2        0.0000 
      9 N          41.7980   26.2720    9.1970 N.am      5 SEP2        0.0000 
     10 CA         39.8510   27.2380    9.8995 C.3       3 GLC5        0.0000 
     11 CA         40.2500   28.6630   11.1300 C.3       9 GLL5        0.0000 
     12 CA         39.4520   25.8130    8.6690 C.3       6 GLP5        0.0000 
     13 CA         41.6560   28.8445    9.7325 C.3       3 GLC5        0.0000 
     14 CA         43.0620   29.0260    8.3350 C.3       6 GLP5        0.0000 
     15 CA         38.5610   34.1100   11.0315 C.3       3 GLC5        0.0000 
     16 CA         37.8610   33.6870   13.0770 C.3       9 GLL5        0.0000 
     17 CA         39.2610   34.5330    8.9860 C.3       6 GLP5        0.0000 
     18 CA         34.2785   32.4625   14.2680 C.3       3 GLC5        0.0000 
     19 CA         35.7930   32.2230   13.1150 C.3       9 GLL5        0.0000 
     20 CA         32.7640   32.7020   15.4210 C.3       6 GLP5        0.0000 
     21 O          35.4950   37.2420   12.9415 O.2       1 ALC1        0.0000 
     22 O          36.7430   36.9140   12.2430 O.2       7 ALL1        0.0000 
     23 O          34.2470   37.5700   13.6400 O.2       4 ALP1        0.0000 
     24 N          39.3230   35.7820   13.4385 N.am      2 SEC2        0.0000 
     25 N          38.1380   34.9840   12.9020 N.am      8 SEL2        0.0000 
     26 N          40.5080   36.5800   13.9750 N.am      5 SEP2        0.0000 
     27 CA         41.5355   41.9550    9.3115 C.3       3 GLC5        0.0000 
     28 CA         40.2450   41.0850   10.1650 C.3       9 GLL5        0.0000 
     29 CA         42.8260   42.8250    8.4580 C.3       6 GLP5        0.0000 
     30 CA         41.6805   41.3310   11.6695 C.3       3 GLC5        0.0000 
     31 CA         43.1160   41.5770   13.1740 C.3       6 GLP5        0.0000 
     32 O          43.1955   25.5955   12.1105 O.2       1 ALC1        0.0000 
     33 O          42.4110   25.7570   13.1440 O.2       7 ALL1        0.0000 
     34 O          43.9800   25.4340   11.0770 O.2       4 ALP1        0.0000 
     35 CA         42.0260   23.5265   12.9820 C.3       3 GLC5        0.0000 
     36 CA         43.1400   24.7140   13.8860 C.3       9 GLL5        0.0000 
     37 CA         40.9120   22.3390   12.0780 C.3       6 GLP5        0.0000 
     38 CA         43.8865   23.8120   11.9945 C.3       3 GLC5        0.0000 
     39 CA         44.6330   22.9100   10.1030 C.3       6 GLP5        0.0000 
     40 CA         44.7385   25.6215   13.9365 C.3       3 GLC5        0.0000 
     41 CA         46.3370   26.5290   13.9870 C.3       6 GLP5        0.0000 
     42 CA         35.1210   40.7010   13.0790 C.3       3 GLC5        0.0000 
     43 CA         36.9760   41.7190   13.0240 C.3       9 GLL5        0.0000 
     44 CA         38.2790   40.1745   14.0110 C.3       3 GLC5        0.0000 
     45 CA         39.5820   38.6300   14.9980 C.3       6 GLP5        0.0000 
     46 O          38.6890   43.1905   14.1970 O.2       1 ALC1        0.0000 
     47 O          37.5600   43.9470   13.9550 O.2       7 ALL1        0.0000 
     48 O          39.8180   42.4340   14.4390 O.2       4 ALP1        0.0000 
     49 CA         40.4330   44.9515   13.5250 C.3       3 GLC5        0.0000 
     50 CA         38.4760   44.8730   13.2250 C.3       9 GLL5        0.0000 
     51 CA         42.3900   45.0300   13.8250 C.3       6 GLP5        0.0000 
     52 CA         38.8840   45.9110   10.1440 C.3       3 GLC5        0.0000 
     53 CA         38.0680   44.7030   11.7730 C.3       9 GLL5        0.0000 
     54 CA         39.7000   47.1190    8.5150 C.3       6 GLP5        0.0000 
     55 CA         35.5245   44.3030   10.3085 C.3       3 GLC5        0.0000 
     56 CA         36.8280   43.8450   11.7420 C.3       9 GLL5        0.0000 
     57 CA         34.2210   44.7610    8.8750 C.3       6 GLP5        0.0000 
     58 CA         37.6045   38.4755    9.5237 C.3       3 GLC5        0.0000 
     59 CA         35.9880   38.9720    8.3490 C.3       6 GLP5        0.0000 
     60 CA         39.2410   36.2560    9.8422 C.3       3 GLC5        0.0000 
     61 CA         38.7970   37.4690   10.9550 C.3       9 GLL5        0.0000 
     62 CA         40.5315   37.0125   11.3577 C.3       3 GLC5        0.0000 
     63 CA         41.8420   36.0460   12.0170 C.3       6 GLP5        0.0000 
     64 CA         38.8997   38.1347   13.1800 C.3       3 GLC5        0.0000 
     65 CA         36.7165   38.7235   10.1378 C.3       3 GLC5        0.0000 
     66 CA         37.6380   37.8100   11.7690 C.3       9 GLL5        0.0000 
     67 CA         37.3287   39.4883    9.7583 C.3       3 GLC5        0.0000 
     68 CA         38.0880   40.1830   11.5640 C.3       9 GLL5        0.0000 
     69 CA         39.0213   39.1869   13.1477 C.3       3 GLC5        0.0000 
     70 CA         39.2510   39.8260   10.7710 C.3       9 GLL5        0.0000 
     71 CA         39.3425   26.7190   14.4940 C.3       3 GLC5        0.0000 
     72 CA         40.1950   28.5270   14.0560 C.3       9 GLL5        0.0000 
     73 CA         38.1090   25.3480   15.3320 C.3       6 GLP5        0.0000 
     74 CA         38.6105   27.8315   12.8620 C.3       3 GLC5        0.0000 
     75 CA         36.6450   27.5730   12.0680 C.3       6 GLP5        0.0000 
     76 CA         41.6175   29.4870   12.7890 C.3       3 GLC5        0.0000 
     77 CA         42.6590   30.8840   11.9220 C.3       6 GLP5        0.0000 
     78 CA         38.1600   29.1175   15.0427 C.3       3 GLC5        0.0000 
     79 CA         36.5020   29.2360   16.4010 C.3       6 GLP5        0.0000 
     80 CA         39.8915   30.6238   10.0765 C.3       3 GLC5        0.0000 
     81 CA         39.4360   29.5680   11.8620 C.3       9 GLL5        0.0000 
     82 CA         39.9400   32.1320    8.6570 C.3       6 GLP5        0.0000 
     83 CA         38.2446   28.3321   11.9634 C.3       3 GLC5        0.0000 
     84 CA         41.2516   29.9876   11.8904 C.3       3 GLC5        0.0000 
     85 CA         39.9770   33.8517   12.7878 C.3       3 GLC5        0.0000 
     86 CA         38.6950   32.6260   13.5220 C.3       9 GLL5        0.0000 
     87 CA         41.6760   34.5470   12.2760 C.3       6 GLP5        0.0000 
     88 CA         36.0030   34.2638   14.5683 C.3       3 GLC5        0.0000 
     89 CA         34.8520   34.9370   16.1750 C.3       6 GLP5        0.0000 
     90 CA         36.9715   29.4047   12.8790 C.3       3 GLC5        0.0000 
     91 CA         36.5820   31.1190   13.6090 C.3       9 GLL5        0.0000 
     92 CA         35.7400   32.1924   11.4699 C.3       3 GLC5        0.0000 
     93 CA         35.1290   32.3960    9.6450 C.3       6 GLP5        0.0000 
     94 CA         36.8014   30.3743   14.9838 C.3       3 GLC5        0.0000 
@<TRIPOS>BOND
@<TRIPOS>SUBSTRUCTURE
     1 ALC1       21 GROUP        1 X    ALC  0     ROOT ALC X 1
     2 SEC2        7 GROUP        1 X    SEC  0     **** SEC X 2
     3 GLC5        1 GROUP        1 X    GLC  0     **** GLC X 6
     4 ALP1       23 GROUP        1 Y    ALP  0     ROOT ALP Y 8
     5 SEP2        9 GROUP        1 Y    SEP  0     **** SEP Y 9
     6 GLP5        3 GROUP        1 Y    GLP  0     **** GLP Y 13
     7 ALL1       22 GROUP        1 Z    ALL  0     ROOT ALL Z 15
     8 SEL2        8 GROUP        1 Z    SEL  0     **** SEL Z 16
     9 GLL5        2 GROUP        1 Z    GLL  0     **** GLL Z 20
@<TRIPOS>SET

