#    Name: 2qu6_857_1_ligand
#    Modification time : Mon Mar 24 22:51:59 2014

@<TRIPOS>MOLECULE
2qu6_857_1_ligand
   63    67     1     0     0
SMALL
NO_CHARGES


@<TRIPOS>ATOM
      1 C21        39.6450   38.4890   10.4420 C.ar      1 857501      0.0000 
      2 C24        38.7970   37.4690   10.9550 C.ar      1 857501      0.0000 
      3 C25        37.6380   37.8100   11.7690 C.ar      1 857501      0.0000 
      4 C6         37.2520   39.1400   12.0840 C.ar      1 857501      0.0000 
      5 C7         38.0880   40.1830   11.5640 C.ar      1 857501      0.0000 
      6 C10        39.2510   39.8260   10.7710 C.ar      1 857501      0.0000 
      7 C11        40.9570   27.6530   13.2560 C.ar      1 857501      0.0000 
      8 N3         40.9480   27.7800   11.8820 N.ar      1 857501      0.0000 
      9 C12        40.1950   28.5270   14.0560 C.ar      1 857501      0.0000 
     10 C13        39.4410   29.4710   13.3130 C.ar      1 857501      0.0000 
     11 C8         39.4360   29.5680   11.8620 C.ar      1 857501      0.0000 
     12 C9         40.2500   28.6630   11.1300 C.ar      1 857501      0.0000 
     13 C14        38.6950   32.6260   13.5220 C.ar      1 857501      0.0000 
     14 C15        37.8610   33.6870   13.0770 C.ar      1 857501      0.0000 
     15 C16        36.4470   33.4940   12.8460 C.ar      1 857501      0.0000 
     16 C17        35.7930   32.2230   13.1150 C.ar      1 857501      0.0000 
     17 C1         36.5820   31.1190   13.6090 C.ar      1 857501      0.0000 
     18 C18        38.0140   31.3540   13.7710 C.ar      1 857501      0.0000 
     19 C19        36.9340   35.5190   12.5550 C.2       1 857501      0.0000 
     20 N2         36.7430   36.9140   12.2430 N.pl3     1 857501      0.0000 
     21 N4         38.1380   34.9840   12.9020 N.2       1 857501      0.0000 
     22 CL         40.2450   41.0850   10.1650 Cl        1 857501      0.0000 
     23 O1         38.7070   30.2420   14.1750 O.3       1 857501      0.0000 
     24 O4         35.8870   34.6340   12.5110 O.3       1 857501      0.0000 
     25 C20        41.6870   26.5810   13.9270 C.2       1 857501      0.0000 
     26 O2         41.6550   26.4290   15.1430 O.2       1 857501      0.0000 
     27 N5         42.4110   25.7570   13.1440 N.am      1 857501      0.0000 
     28 C22        43.1400   24.7140   13.8860 C.3       1 857501      0.0000 
     29 O3         37.7660   41.5070   11.8390 O.3       1 857501      0.0000 
     30 C23        36.9760   41.7190   13.0240 C.3       1 857501      0.0000 
     31 N1         37.5600   43.9470   13.9550 N.4       1 857501      0.0000 
     32 C2         38.4760   44.8730   13.2250 C.3       1 857501      0.0000 
     33 C3         38.0680   44.7030   11.7730 C.3       1 857501      0.0000 
     34 C4         36.8280   43.8450   11.7420 C.3       1 857501      0.0000 
     35 C5         36.5800   43.1900   13.0970 C.3       1 857501      0.0000 
     36 C26        37.1500   44.3340   15.3240 C.3       1 857501      0.0000 
     37 H          40.4411   38.2963    9.9028 H         1 857501      0.0000 
     38 H          38.9882   36.4903   10.7607 H         1 857501      0.0000 
     39 H          36.4528   39.3426   12.6307 H         1 857501      0.0000 
     40 H          40.1836   28.4903   15.0322 H         1 857501      0.0000 
     41 H          38.8717   30.2557   11.4085 H         1 857501      0.0000 
     42 H          40.2821   28.7022   10.1349 H         1 857501      0.0000 
     43 H          39.6591   32.7177   13.6589 H         1 857501      0.0000 
     44 H          34.8089   32.1196   12.9583 H         1 857501      0.0000 
     45 H          36.1809   30.2470   13.8282 H         1 857501      0.0000 
     46 H          35.7255   37.2641   12.4254 H         1 857501      0.0000 
     47 H          42.4872   25.7950   12.1665 H         1 857501      0.0000 
     48 H          37.5358   41.4734   13.9281 H         1 857501      0.0000 
     49 H          36.0623   41.1223   13.0086 H         1 857501      0.0000 
     50 H          38.3668   43.0195   14.2140 H         1 857501      0.0000 
     51 H          39.4890   44.5707   13.3480 H         1 857501      0.0000 
     52 H          38.3080   45.8797   13.5266 H         1 857501      0.0000 
     53 H          38.8639   44.2170   11.2301 H         1 857501      0.0000 
     54 H          37.8558   45.6699   11.3432 H         1 857501      0.0000 
     55 H          36.9395   43.0651   10.9855 H         1 857501      0.0000 
     56 H          35.9630   44.4585   11.4803 H         1 857501      0.0000 
     57 H          35.6201   43.3406   13.4006 H         1 857501      0.0000 
     58 H          43.6674   24.1236   13.2751 H         1 857501      0.0000 
     59 H          43.7841   25.1067   14.5424 H         1 857501      0.0000 
     60 H          42.5198   24.1229   14.4017 H         1 857501      0.0000 
     61 H          37.9364   44.4287   15.9344 H         1 857501      0.0000 
     62 H          36.6649   45.2084   15.3332 H         1 857501      0.0000 
     63 H          36.5402   43.6561   15.7346 H         1 857501      0.0000 
@<TRIPOS>BOND
     1    2    1 ar   
     2    6    1 ar   
     3   37    1 1    
     4    3    2 ar   
     5   38    2 1    
     6    4    3 ar   
     7   20    3 1    
     8    5    4 ar   
     9   39    4 1    
    10    6    5 ar   
    11   29    5 1    
    12   22    6 1    
    13    8    7 ar   
    14    9    7 ar   
    15   25    7 1    
    16   12    8 ar   
    17   10    9 ar   
    18   40    9 1    
    19   11   10 ar   
    20   23   10 1    
    21   12   11 ar   
    22   41   11 1    
    23   42   12 1    
    24   14   13 ar   
    25   18   13 ar   
    26   43   13 1    
    27   15   14 ar   
    28   21   14 1    
    29   16   15 ar   
    30   24   15 1    
    31   17   16 ar   
    32   44   16 1    
    33   18   17 ar   
    34   45   17 1    
    35   23   18 1    
    36   20   19 1    
    37   21   19 2    
    38   24   19 1    
    39   46   20 1    
    40   26   25 2    
    41   27   25 am   
    42   28   27 1    
    43   47   27 1    
    44   58   28 1    
    45   59   28 1    
    46   60   28 1    
    47   30   29 1    
    48   35   30 1    
    49   48   30 1    
    50   49   30 1    
    51   32   31 1    
    52   35   31 1    
    53   36   31 1    
    54   50   31 1    
    55   33   32 1    
    56   51   32 1    
    57   52   32 1    
    58   34   33 1    
    59   53   33 1    
    60   54   33 1    
    61   35   34 1    
    62   55   34 1    
    63   56   34 1    
    64   57   35 1    
    65   61   36 1    
    66   62   36 1    
    67   63   36 1    
@<TRIPOS>SUBSTRUCTURE
     1 857501      1 GROUP   
@<TRIPOS>SET

