#    Name: 2gn6_UD1_1_INTS_M
#    Modification time : Tue Mar 25 14:47:28 2014

@<TRIPOS>MOLECULE
2gn6_UD1_1_INTS_M
   73     0    12     0     0
SMALL
NO_CHARGES


@<TRIPOS>ATOM
      1 CA          7.3360   30.5950    2.1595 C.3       4 GLC5        0.0000 
      2 CA          9.5110   30.4330    1.7090 C.3      12 GLL5        0.0000 
      3 CA          5.1610   30.7570    2.6100 C.3       8 GLP5        0.0000 
      4 CA          6.8260   31.6960    1.8425 C.3       4 GLC5        0.0000 
      5 CA          8.4910   32.6350    1.0750 C.3      12 GLL5        0.0000 
      6 CA          6.1370   31.8440    0.8150 C.3       4 GLC5        0.0000 
      7 CA          7.8980   31.9340   -0.1340 C.3      12 GLL5        0.0000 
      8 CA          4.3760   31.7540    1.7640 C.3       8 GLP5        0.0000 
      9 CA          8.7560   32.2665   -1.8285 C.3       4 GLC5        0.0000 
     10 CA          9.6140   32.5990   -3.5230 C.3       8 GLP5        0.0000 
     11 CA          8.1420   28.5405   -2.0200 C.3       4 GLC5        0.0000 
     12 CA          7.0760   29.7380   -0.9820 C.3      12 GLL5        0.0000 
     13 CA          9.2080   27.3430   -3.0580 C.3       8 GLP5        0.0000 
     14 CA         10.7925   35.7030    2.0250 C.3       4 GLC5        0.0000 
     15 CA         11.5370   34.4860    3.2480 C.3      12 GLL5        0.0000 
     16 CA         10.0480   36.9200    0.8020 C.3       8 GLP5        0.0000 
     17 CA         10.5730   35.6100    4.4185 C.3       4 GLC5        0.0000 
     18 CA          9.6090   36.7340    5.5890 C.3       8 GLP5        0.0000 
     19 O           8.5605   34.8980    2.0650 O.2       1 ALC1        0.0000 
     20 O           8.8340   33.9610    0.7000 O.2       9 ALL1        0.0000 
     21 O           8.2870   35.8350    3.4300 O.2       5 ALP1        0.0000 
     22 N           5.3900   32.5170   -1.3295 N.am      2 SEC2        0.0000 
     23 N           6.6500   32.5490   -0.4310 N.am     10 SEL2        0.0000 
     24 N           4.1300   32.4850   -2.2280 N.am      6 SEP2        0.0000 
     25 N           5.7780   29.0120    0.7495 N.am      2 SEC2        0.0000 
     26 N           6.3410   28.6290   -0.4840 N.am     10 SEL2        0.0000 
     27 N           5.2150   29.3950    1.9830 N.am      6 SEP2        0.0000 
     28 O           4.8935   28.0250   -1.1185 O.2       1 ALC1        0.0000 
     29 O           6.3410   28.6290   -0.4840 O.2       9 ALL1        0.0000 
     30 O           3.4460   27.4210   -1.7530 O.2       5 ALP1        0.0000 
     31 O           5.3045   28.8975   -1.6380 O.2       1 ALC1        0.0000 
     32 O           4.2680   29.1660   -2.7920 O.2       5 ALP1        0.0000 
     33 O          13.9630   22.3940    9.9695 O.2       1 ALC1        0.0000 
     34 O          12.8770   23.1540    9.1760 O.2       9 ALL1        0.0000 
     35 O          15.0490   21.6340   10.7630 O.2       5 ALP1        0.0000 
     36 CA         11.2505   26.4285    9.5510 C.3       4 GLC5        0.0000 
     37 CA         12.8290   25.4590    8.3830 C.3      12 GLL5        0.0000 
     38 CA          9.6720   27.3980   10.7190 C.3       8 GLP5        0.0000 
     39 CA         11.3570   22.1060    5.5335 C.3       4 GLC5        0.0000 
     40 CA         10.4810   23.3710    6.3190 C.3      12 GLL5        0.0000 
     41 CA         12.2330   20.8410    4.7480 C.3       8 GLP5        0.0000 
     42 N           8.2290   22.1125    8.3605 N.am      2 SEC2        0.0000 
     43 N           8.2810   23.0310    7.1750 N.am     10 SEL2        0.0000 
     44 N           8.1770   21.1940    9.5460 N.am      6 SEP2        0.0000 
     45 O           7.3660   23.9390    7.7275 O.2       1 ALC1        0.0000 
     46 O           8.2810   23.0310    7.1750 O.2       9 ALL1        0.0000 
     47 O           6.4510   24.8470    8.2800 O.2       5 ALP1        0.0000 
     48 CA         10.3370   22.4825    3.8870 C.3       4 GLC5        0.0000 
     49 CA          9.7660   24.1440    4.2390 C.3      12 GLL5        0.0000 
     50 CA         10.9080   20.8210    3.5350 C.3       8 GLP5        0.0000 
     51 NZ         10.4665   28.3260    7.3485 N.4       3 LYC4        0.0000 
     52 NZ         10.7720   27.8780    5.9680 N.4      11 LYL4        0.0000 
     53 NZ         10.1610   28.7740    8.7290 N.4       7 LYP4        0.0000 
     54 NZ          6.4740   28.5870    2.3495 N.4       3 LYC4        0.0000 
     55 NZ          7.7330   27.7790    2.7160 N.4      11 LYL4        0.0000 
     56 NZ          5.2150   29.3950    1.9830 N.4       7 LYP4        0.0000 
     57 N           6.4740   28.5870    2.3495 N.am      2 SEC2        0.0000 
     58 N           7.7330   27.7790    2.7160 N.am     10 SEL2        0.0000 
     59 N           8.1925   27.0005    1.4710 N.am      2 SEC2        0.0000 
     60 N           8.6520   26.2220    0.2260 N.am      6 SEP2        0.0000 
     61 N           6.8960   26.4905    2.6080 N.am      2 SEC2        0.0000 
     62 N           6.0590   25.2020    2.5000 N.am      6 SEP2        0.0000 
     63 CA          6.2640   30.4298    1.1107 C.3       4 GLC5        0.0000 
     64 CA          7.6580   30.4670    0.2050 C.3      12 GLL5        0.0000 
     65 CA          8.0475   30.8343   -2.1837 C.3       4 GLC5        0.0000 
     66 CA          8.7280   31.5660   -3.9790 C.3       8 GLP5        0.0000 
     67 CA          7.5465   22.6205    5.9798 C.3       4 GLC5        0.0000 
     68 CA          8.5970   24.3050    5.1720 C.3      12 GLL5        0.0000 
     69 CA          6.2350   21.0960    6.1100 C.3       8 GLP5        0.0000 
     70 CA          9.1935   22.2220    5.2053 C.3       4 GLC5        0.0000 
     71 CA          9.5290   20.2990    4.5610 C.3       8 GLP5        0.0000 
     72 CA          8.0023   23.7092    2.9848 C.3       4 GLC5        0.0000 
     73 CA          6.8230   23.1940    1.2640 C.3       8 GLP5        0.0000 
@<TRIPOS>BOND
@<TRIPOS>SUBSTRUCTURE
     1 ALC1       19 GROUP        1 X    ALC  0     ROOT ALC X 1
     2 SEC2       22 GROUP        1 X    SEC  0     **** SEC X 2
     3 LYC4       51 GROUP        1 X    LYC  0     **** LYC X 4
     4 GLC5        1 GROUP        1 X    GLC  0     **** GLC X 6
     5 ALP1       21 GROUP        1 Y    ALP  0     ROOT ALP Y 8
     6 SEP2       24 GROUP        1 Y    SEP  0     **** SEP Y 9
     7 LYP4       53 GROUP        1 Y    LYP  0     **** LYP Y 11
     8 GLP5        3 GROUP        1 Y    GLP  0     **** GLP Y 13
     9 ALL1       20 GROUP        1 Z    ALL  0     ROOT ALL Z 15
    10 SEL2       23 GROUP        1 Z    SEL  0     **** SEL Z 16
    11 LYL4       52 GROUP        1 Z    LYL  0     **** LYL Z 18
    12 GLL5        2 GROUP        1 Z    GLL  0     **** GLL Z 20
@<TRIPOS>SET

