#    Name: 2gn6_UD1_1_ligand
#    Modification time : Tue Mar 25 14:47:29 2014

@<TRIPOS>MOLECULE
2gn6_UD1_1_ligand
   64    66     1     0     0
SMALL
NO_CHARGES


@<TRIPOS>ATOM
      1 C1'         9.5110   30.4330    1.7090 C.3       1 UD1335      0.0000 
      2 C2'         9.7580   31.9270    1.5400 C.3       1 UD1335      0.0000 
      3 C3'         8.4910   32.6350    1.0750 C.3       1 UD1335      0.0000 
      4 C4'         7.8980   31.9340   -0.1340 C.3       1 UD1335      0.0000 
      5 C5'         7.6580   30.4670    0.2050 C.3       1 UD1335      0.0000 
      6 C6'         7.0760   29.7380   -0.9820 C.3       1 UD1335      0.0000 
      7 C7'        11.4890   33.0210    2.8890 C.2       1 UD1335      0.0000 
      8 C8'        11.5370   34.4860    3.2480 C.3       1 UD1335      0.0000 
      9 N2'        10.2180   32.5020    2.8090 N.am      1 UD1335      0.0000 
     10 O1'         8.5370   30.2080    2.7240 O.3       1 UD1335      0.0000 
     11 O3'         8.8340   33.9610    0.7000 O.3       1 UD1335      0.0000 
     12 O4'         6.6500   32.5490   -0.4310 O.3       1 UD1335      0.0000 
     13 O5'         8.9030   29.8400    0.5450 O.3       1 UD1335      0.0000 
     14 O6'         6.3410   28.6290   -0.4840 O.3       1 UD1335      0.0000 
     15 O7'        12.4860   32.3620    2.6980 O.2       1 UD1335      0.0000 
     16 N1         11.4690   23.7470    7.3580 N.am      1 UD1335      0.0000 
     17 C2         11.9460   22.7600    8.2250 C.2       1 UD1335      0.0000 
     18 N3         12.8770   23.1540    9.1760 N.am      1 UD1335      0.0000 
     19 C4         13.3790   24.4450    9.3430 C.2       1 UD1335      0.0000 
     20 C5         12.8290   25.4590    8.3830 C.2       1 UD1335      0.0000 
     21 C6         11.9170   25.0420    7.4620 C.2       1 UD1335      0.0000 
     22 O2         11.5700   21.6030    8.1610 O.2       1 UD1335      0.0000 
     23 O4         14.2020   24.7270   10.2040 O.2       1 UD1335      0.0000 
     24 C1B        10.4810   23.3710    6.3190 C.3       1 UD1335      0.0000 
     25 C2B         9.1190   23.9850    6.5270 C.3       1 UD1335      0.0000 
     26 O2'         8.2810   23.0310    7.1750 O.3       1 UD1335      0.0000 
     27 C3B         8.5970   24.3050    5.1720 C.3       1 UD1335      0.0000 
     28 C4B         9.7660   24.1440    4.2390 C.3       1 UD1335      0.0000 
     29 O4B        10.9120   23.7680    5.0140 O.3       1 UD1335      0.0000 
     30 O3B         7.6140   23.3510    4.8050 O.3       1 UD1335      0.0000 
     31 C5B        10.0300   25.4530    3.5030 C.3       1 UD1335      0.0000 
     32 O5B        11.2170   26.0520    3.9860 O.3       1 UD1335      0.0000 
     33 PA         11.1480   27.6200    4.4210 P.3       1 UD1335      0.0000 
     34 O1A        10.7720   27.8780    5.9680 O.co2     1 UD1335      0.0000 
     35 O2A        12.5900   28.2070    4.0000 O.co2     1 UD1335      0.0000 
     36 O3A        10.1340   28.3020    3.3660 O.3       1 UD1335      0.0000 
     37 PB          8.6200   28.8250    3.5700 P.3       1 UD1335      0.0000 
     38 O1B         8.1670   28.9690    5.1120 O.co2     1 UD1335      0.0000 
     39 O2B         7.7330   27.7790    2.7160 O.co2     1 UD1335      0.0000 
     40 H          10.4230   29.9402    1.9493 H         1 UD1335      0.0000 
     41 H          10.5195   32.0603    0.7798 H         1 UD1335      0.0000 
     42 H           7.7774   32.6229    1.8701 H         1 UD1335      0.0000 
     43 H           8.5811   31.9978   -0.9435 H         1 UD1335      0.0000 
     44 H           6.9631   30.4103    1.0209 H         1 UD1335      0.0000 
     45 H           7.8966   29.4254   -1.6274 H         1 UD1335      0.0000 
     46 H           6.4416   30.4324   -1.5325 H         1 UD1335      0.0000 
     47 H           9.5759   32.4971    3.5928 H         1 UD1335      0.0000 
     48 H          13.2445   22.4021    9.8423 H         1 UD1335      0.0000 
     49 H          13.1643   26.4005    8.4696 H         1 UD1335      0.0000 
     50 H          11.5249   25.7572    6.7801 H         1 UD1335      0.0000 
     51 H          10.3458   22.2793    6.3300 H         1 UD1335      0.0000 
     52 H           9.2323   24.8787    7.0893 H         1 UD1335      0.0000 
     53 H           8.2549   25.2953    5.1351 H         1 UD1335      0.0000 
     54 H           9.5251   23.3863    3.5135 H         1 UD1335      0.0000 
     55 H           9.1527   26.0995    3.6504 H         1 UD1335      0.0000 
     56 H          10.0916   25.2236    2.4292 H         1 UD1335      0.0000 
     57 H          12.4761   34.8265    3.2940 H         1 UD1335      0.0000 
     58 H          11.0537   35.0487    2.5774 H         1 UD1335      0.0000 
     59 H          11.1167   34.6643    4.1377 H         1 UD1335      0.0000 
     60 H           8.6346   34.5177    1.5064 H         1 UD1335      0.0000 
     61 H           6.8553   33.5242   -0.5133 H         1 UD1335      0.0000 
     62 H           5.5684   28.5282   -1.1108 H         1 UD1335      0.0000 
     63 H           7.5915   23.5749    7.6532 H         1 UD1335      0.0000 
     64 H           7.4105   22.8521    5.6474 H         1 UD1335      0.0000 
@<TRIPOS>BOND
     1    2    1 1    
     2   10    1 1    
     3   13    1 1    
     4   40    1 1    
     5    3    2 1    
     6    9    2 1    
     7   41    2 1    
     8    4    3 1    
     9   11    3 1    
    10   42    3 1    
    11    5    4 1    
    12   12    4 1    
    13   43    4 1    
    14    6    5 1    
    15   13    5 1    
    16   44    5 1    
    17   14    6 1    
    18   45    6 1    
    19   46    6 1    
    20    8    7 1    
    21    9    7 am   
    22   15    7 2    
    23   57    8 1    
    24   58    8 1    
    25   59    8 1    
    26   47    9 1    
    27   37   10 1    
    28   60   11 1    
    29   61   12 1    
    30   62   14 1    
    31   17   16 1    
    32   21   16 1    
    33   24   16 1    
    34   18   17 1    
    35   22   17 2    
    36   19   18 1    
    37   48   18 1    
    38   20   19 1    
    39   23   19 2    
    40   21   20 2    
    41   49   20 1    
    42   50   21 1    
    43   25   24 1    
    44   29   24 1    
    45   51   24 1    
    46   26   25 1    
    47   27   25 1    
    48   52   25 1    
    49   63   26 1    
    50   28   27 1    
    51   30   27 1    
    52   53   27 1    
    53   29   28 1    
    54   31   28 1    
    55   54   28 1    
    56   64   30 1    
    57   32   31 1    
    58   55   31 1    
    59   56   31 1    
    60   33   32 1    
    61   34   33 ar   
    62   35   33 ar   
    63   36   33 1    
    64   37   36 1    
    65   38   37 ar   
    66   39   37 ar   
@<TRIPOS>SUBSTRUCTURE
     1 UD1335      1 GROUP   
@<TRIPOS>SET

