#    Name: 1pfy_MSP_1_INTS_M
#    Modification time : Mon Mar 24 21:21:54 2014

@<TRIPOS>MOLECULE
1pfy_MSP_1_INTS_M
   73     0    12     0     0
SMALL
NO_CHARGES


@<TRIPOS>ATOM
      1 OD1        14.1575    8.6195   18.1680 O.co2     3 ASC3        0.0000 
      2 OD1        14.5910    9.0130   19.4400 O.co2    11 ASL3        0.0000 
      3 OD1        13.7240    8.2260   16.8960 O.co2     7 ASP3        0.0000 
      4 O          13.8465    8.1775   20.1510 O.2       1 ALC1        0.0000 
      5 O          14.5910    9.0130   19.4400 O.2       9 ALL1        0.0000 
      6 O          13.1020    7.3420   20.8620 O.2       5 ALP1        0.0000 
      7 O          14.1575    8.6195   18.1680 O.2       1 ALC1        0.0000 
      8 O          13.7240    8.2260   16.8960 O.2       5 ALP1        0.0000 
      9 CA         15.8820   10.4695   19.1830 C.3       4 GLC5        0.0000 
     10 CA         14.2100   10.3800   19.8280 C.3      12 GLL5        0.0000 
     11 CA         17.5540   10.5590   18.5380 C.3       8 GLP5        0.0000 
     12 CA         13.8620   11.9405   18.6670 C.3       4 GLC5        0.0000 
     13 CA         13.5140   13.5010   17.5060 C.3       8 GLP5        0.0000 
     14 CA         11.5810   10.4830   21.8845 C.3       4 GLC5        0.0000 
     15 CA         12.7120   10.5500   20.1730 C.3      12 GLL5        0.0000 
     16 CA         10.4500   10.4160   23.5960 C.3       8 GLP5        0.0000 
     17 CA         11.9970   12.1630   21.2140 C.3       4 GLC5        0.0000 
     18 CA         11.2820   13.7760   22.2550 C.3       8 GLP5        0.0000 
     19 CA         11.2860    9.4900   17.0435 C.3       4 GLC5        0.0000 
     20 CA         11.7250    9.9970   19.1310 C.3      12 GLL5        0.0000 
     21 CA         10.8470    8.9830   14.9560 C.3       8 GLP5        0.0000 
     22 CA         10.2485   10.3595   21.6490 C.3       4 GLC5        0.0000 
     23 CA         10.0470   10.3030   19.7020 C.3      12 GLL5        0.0000 
     24 CA         10.6645   12.0395   20.9785 C.3       4 GLC5        0.0000 
     25 CA          9.0975    7.9095   19.0510 C.3       4 GLC5        0.0000 
     26 CA          9.1100    9.7460   18.2620 C.3      12 GLL5        0.0000 
     27 CA          9.0850    6.0730   19.8400 C.3       8 GLP5        0.0000 
     28 CA          9.9785    9.3645   16.6090 C.3       4 GLC5        0.0000 
     29 CA          7.7955    9.6115   16.9370 C.3       4 GLC5        0.0000 
     30 CA          6.4810    9.4770   15.6120 C.3       8 GLP5        0.0000 
     31 N          16.6385    7.5645   22.4000 N.am      2 SEC2        0.0000 
     32 N          16.7810    8.7150   23.4640 N.am     10 SEL2        0.0000 
     33 N          16.4960    6.4140   21.3360 N.am      6 SEP2        0.0000 
     34 N          17.4170    8.6220   25.0460 N.am      2 SEC2        0.0000 
     35 N          18.0530    8.5290   26.6280 N.am      6 SEP2        0.0000 
     36 CA         14.5180    8.1260   23.7240 C.3       4 GLC5        0.0000 
     37 CA         14.4220   10.1500   24.5900 C.3      12 GLL5        0.0000 
     38 CA         14.6140    6.1020   22.8580 C.3       8 GLP5        0.0000 
     39 CA         12.4290   13.1500   23.6355 C.3       4 GLC5        0.0000 
     40 CA         13.5760   12.5240   25.0160 C.3      12 GLL5        0.0000 
     41 N          11.3720   14.0345   25.7125 N.am      2 SEC2        0.0000 
     42 N          12.2070   12.8910   25.1750 N.am     10 SEL2        0.0000 
     43 N          10.5370   15.1780   26.2500 N.am      6 SEP2        0.0000 
     44 O          11.5800   12.4730   26.3130 O.2       1 ALC1        0.0000 
     45 O          12.2070   12.8910   25.1750 O.2       9 ALL1        0.0000 
     46 O          10.9530   12.0550   27.4510 O.2       5 ALP1        0.0000 
     47 CA         12.9835   14.7640   26.3425 C.3       4 GLC5        0.0000 
     48 CA         14.5120   13.3740   25.8620 C.3      12 GLL5        0.0000 
     49 CA         11.4550   16.1540   26.8230 C.3       8 GLP5        0.0000 
     50 O          14.3005   15.6510   25.1855 O.2       1 ALC1        0.0000 
     51 O          14.0200   14.6940   25.9940 O.2       9 ALL1        0.0000 
     52 O          14.5810   16.6080   24.3770 O.2       5 ALP1        0.0000 
     53 CA         16.9185   16.0135   31.3310 C.3       4 GLC5        0.0000 
     54 CA         17.8080   14.1680   30.5080 C.3      12 GLL5        0.0000 
     55 CA         16.0290   17.8590   32.1540 C.3       8 GLP5        0.0000 
     56 N          16.9540   15.4620   32.5170 N.am      2 SEC2        0.0000 
     57 N          16.8550   14.6330   31.3590 N.am     10 SEL2        0.0000 
     58 N          17.0530   16.2910   33.6750 N.am      6 SEP2        0.0000 
     59 CA         12.2172   11.7722   18.7715 C.3       4 GLC5        0.0000 
     60 CA         12.2160   13.2710   17.8910 C.3       8 GLP5        0.0000 
     61 CA         10.7410    8.0910   19.7668 C.3       4 GLC5        0.0000 
     62 CA         10.5960    6.0320   20.1170 C.3       8 GLP5        0.0000 
     63 CA         10.3852   11.5523   17.9625 C.3       4 GLC5        0.0000 
     64 CA         11.1920   13.0800   16.9430 C.3       8 GLP5        0.0000 
     65 CA          7.8487    9.7437   19.7060 C.3       4 GLC5        0.0000 
     66 CA          6.1190    9.4630   20.4300 C.3       8 GLP5        0.0000 
     67 CA         15.4657    9.6078   26.1827 C.3       4 GLC5        0.0000 
     68 CA         13.7550   11.1010   25.5890 C.3      12 GLL5        0.0000 
     69 CA         16.8430    8.5900   27.2760 C.3       8 GLP5        0.0000 
     70 CA         12.1411   10.9954   24.3244 C.3       4 GLC5        0.0000 
     71 CA         17.2852   12.4713   30.9275 C.3       4 GLC5        0.0000 
     72 CA         17.4700   13.5720   29.3120 C.3      12 GLL5        0.0000 
     73 CA         17.7120   11.2720   32.3830 C.3       8 GLP5        0.0000 
@<TRIPOS>BOND
@<TRIPOS>SUBSTRUCTURE
     1 ALC1        4 GROUP        1 X    ALC  0     ROOT ALC X 1
     2 SEC2       31 GROUP        1 X    SEC  0     **** SEC X 2
     3 ASC3        1 GROUP        1 X    ASC  0     **** ASC X 3
     4 GLC5        9 GROUP        1 X    GLC  0     **** GLC X 6
     5 ALP1        6 GROUP        1 Y    ALP  0     ROOT ALP Y 8
     6 SEP2       33 GROUP        1 Y    SEP  0     **** SEP Y 9
     7 ASP3        3 GROUP        1 Y    ASP  0     **** ASP Y 10
     8 GLP5       11 GROUP        1 Y    GLP  0     **** GLP Y 13
     9 ALL1        5 GROUP        1 Z    ALL  0     ROOT ALL Z 15
    10 SEL2       32 GROUP        1 Z    SEL  0     **** SEL Z 16
    11 ASL3        2 GROUP        1 Z    ASL  0     **** ASL Z 17
    12 GLL5       10 GROUP        1 Z    GLL  0     **** GLL Z 20
@<TRIPOS>SET

