#    Name: 1pfy_MSP_1_ligand
#    Modification time : Mon Mar 24 21:21:54 2014

@<TRIPOS>MOLECULE
1pfy_MSP_1_ligand
   57    59     1     0     0
SMALL
NO_CHARGES


@<TRIPOS>ATOM
      1 N2         14.5910    9.0130   19.4400 N.4       1 MSP553      0.0000 
      2 CA         14.2100   10.3800   19.8280 C.3       1 MSP553      0.0000 
      3 CB         12.7120   10.5500   20.1730 C.3       1 MSP553      0.0000 
      4 CG         11.7250    9.9970   19.1310 C.3       1 MSP553      0.0000 
      5 SD         10.0470   10.3030   19.7020 S.3       1 MSP553      0.0000 
      6 CE          9.1100    9.7460   18.2620 C.3       1 MSP553      0.0000 
      7 C9         15.0490   10.7980   21.0490 C.2       1 MSP553      0.0000 
      8 N8         15.6200    9.7380   21.6860 N.am      1 MSP553      0.0000 
      9 S1         16.4990   10.0520   23.0040 S.o2      1 MSP553      0.0000 
     10 O1S        16.7810    8.7150   23.4640 O.2       1 MSP553      0.0000 
     11 O2S        17.6150   10.8830   22.6730 O.2       1 MSP553      0.0000 
     12 O5'        15.5980   10.7810   24.0710 O.3       1 MSP553      0.0000 
     13 C5'        14.4220   10.1500   24.5900 C.3       1 MSP553      0.0000 
     14 C4'        13.7550   11.1010   25.5890 C.3       1 MSP553      0.0000 
     15 O4'        14.6540   11.2180   26.6800 O.3       1 MSP553      0.0000 
     16 C3'        13.5760   12.5240   25.0160 C.3       1 MSP553      0.0000 
     17 O3'        12.2070   12.8910   25.1750 O.3       1 MSP553      0.0000 
     18 C2'        14.5120   13.3740   25.8620 C.3       1 MSP553      0.0000 
     19 O2'        14.0200   14.6940   25.9940 O.3       1 MSP553      0.0000 
     20 C1'        14.6640   12.5580   27.1470 C.3       1 MSP553      0.0000 
     21 N9         15.9490   12.8460   27.8080 N.pl3     1 MSP553      0.0000 
     22 C8         17.2180   12.5980   27.3900 C.2       1 MSP553      0.0000 
     23 N7         18.1640   13.0080   28.2590 N.2       1 MSP553      0.0000 
     24 C5         17.4700   13.5720   29.3120 C.2       1 MSP553      0.0000 
     25 C6         17.8080   14.1680   30.5080 C.2       1 MSP553      0.0000 
     26 N6         19.0920   14.3220   30.8670 N.pl3     1 MSP553      0.0000 
     27 N1         16.8550   14.6330   31.3590 N.2       1 MSP553      0.0000 
     28 C2         15.5410   14.5040   31.0370 C.2       1 MSP553      0.0000 
     29 N3         15.1130   13.9280   29.8850 N.pl3     1 MSP553      0.0000 
     30 C4         16.0780   13.4710   29.0340 C.3       1 MSP553      0.0000 
     31 O1         15.0680   11.9840   21.3560 O.2       1 MSP553      0.0000 
     32 H          14.4511   11.0800   19.0294 H         1 MSP553      0.0000 
     33 H          12.5068   11.6268   20.3219 H         1 MSP553      0.0000 
     34 H          12.5181   10.0572   21.1443 H         1 MSP553      0.0000 
     35 H          11.7572    8.9458   19.0415 H         1 MSP553      0.0000 
     36 H          11.7593   10.5102   18.2093 H         1 MSP553      0.0000 
     37 H          15.5702    8.7863   21.4493 H         1 MSP553      0.0000 
     38 H          14.6565    9.2238   25.1164 H         1 MSP553      0.0000 
     39 H          13.6982    9.9303   23.8040 H         1 MSP553      0.0000 
     40 H          12.8219   10.7173   25.8836 H         1 MSP553      0.0000 
     41 H          13.9096   12.5126   24.0203 H         1 MSP553      0.0000 
     42 H          15.4821   13.3365   25.3507 H         1 MSP553      0.0000 
     43 H          13.8404   12.7610   27.7708 H         1 MSP553      0.0000 
     44 H          17.4247   12.1538   26.5204 H         1 MSP553      0.0000 
     45 H          19.7737   13.9763   30.2222 H         1 MSP553      0.0000 
     46 H          19.2522   14.7687   31.7472 H         1 MSP553      0.0000 
     47 H          14.8162   14.8711   31.7187 H         1 MSP553      0.0000 
     48 H          14.1263   13.8395   29.6636 H         1 MSP553      0.0000 
     49 H          16.1711   14.7451   28.3575 H         1 MSP553      0.0000 
     50 H          14.0929    8.7044   18.6296 H         1 MSP553      0.0000 
     51 H          15.5660    8.9451   19.2282 H         1 MSP553      0.0000 
     52 H          14.4027    8.3541   20.1683 H         1 MSP553      0.0000 
     53 H           9.4641   10.1394   17.4136 H         1 MSP553      0.0000 
     54 H           9.1422    8.7518   18.1599 H         1 MSP553      0.0000 
     55 H           8.1457   10.0032   18.3242 H         1 MSP553      0.0000 
     56 H          11.9362   12.5042   26.0565 H         1 MSP553      0.0000 
     57 H          14.3969   15.1900   25.2117 H         1 MSP553      0.0000 
@<TRIPOS>BOND
     1    2    1 1    
     2   50    1 1    
     3   51    1 1    
     4   52    1 1    
     5    3    2 1    
     6    7    2 1    
     7   32    2 1    
     8    4    3 1    
     9   33    3 1    
    10   34    3 1    
    11    5    4 1    
    12   35    4 1    
    13   36    4 1    
    14    6    5 1    
    15   53    6 1    
    16   54    6 1    
    17   55    6 1    
    18    8    7 am   
    19   31    7 2    
    20    9    8 1    
    21   37    8 1    
    22   10    9 2    
    23   11    9 2    
    24   12    9 1    
    25   13   12 1    
    26   14   13 1    
    27   38   13 1    
    28   39   13 1    
    29   15   14 1    
    30   16   14 1    
    31   40   14 1    
    32   20   15 1    
    33   17   16 1    
    34   18   16 1    
    35   41   16 1    
    36   56   17 1    
    37   19   18 1    
    38   20   18 1    
    39   42   18 1    
    40   57   19 1    
    41   21   20 1    
    42   43   20 1    
    43   22   21 1    
    44   30   21 1    
    45   23   22 2    
    46   44   22 1    
    47   24   23 1    
    48   25   24 2    
    49   30   24 1    
    50   26   25 1    
    51   27   25 1    
    52   45   26 1    
    53   46   26 1    
    54   28   27 2    
    55   29   28 1    
    56   47   28 1    
    57   30   29 1    
    58   48   29 1    
    59   49   30 1    
@<TRIPOS>SUBSTRUCTURE
     1 MSP553      1 GROUP   
@<TRIPOS>SET

