#    Name: 3ruf_NAD_4_INTS_M
#    Modification time : Tue Mar 25 11:54:04 2014

@<TRIPOS>MOLECULE
3ruf_NAD_4_INTS_M
  113     0     9     0     0
SMALL
NO_CHARGES


@<TRIPOS>ATOM
      1 N         -33.1915    2.0680  -47.7620 N.am      2 SEC2        0.0000 
      2 N         -33.3920    0.8220  -48.4220 N.am      8 SEL2        0.0000 
      3 N         -32.9910    3.3140  -47.1020 N.am      5 SEP2        0.0000 
      4 N         -35.0050   -0.8055  -51.0995 N.am      2 SEC2        0.0000 
      5 N         -33.8790   -0.7090  -50.4640 N.am      8 SEL2        0.0000 
      6 N         -36.1310   -0.9020  -51.7350 N.am      5 SEP2        0.0000 
      7 CA        -36.4500    0.2230  -51.3920 C.3       3 GLC5        0.0000 
      8 CA        -36.0040    2.3440  -51.7250 C.3       9 GLL5        0.0000 
      9 CA        -36.8960   -1.8980  -51.0590 C.3       6 GLP5        0.0000 
     10 O         -36.8550    4.6055  -51.7045 O.2       1 ALC1        0.0000 
     11 O         -36.5470    3.5490  -51.1270 O.2       7 ALL1        0.0000 
     12 O         -37.1630    5.6620  -52.2820 O.2       4 ALP1        0.0000 
     13 CA        -37.6160    0.2900  -51.8590 C.3       3 GLC5        0.0000 
     14 CA        -36.8800    1.9080  -52.9040 C.3       9 GLL5        0.0000 
     15 CA        -38.3520   -1.3280  -50.8140 C.3       6 GLP5        0.0000 
     16 N         -38.5270    0.9140  -53.8000 N.am      2 SEC2        0.0000 
     17 N         -38.3280    2.0920  -52.8420 N.am      8 SEL2        0.0000 
     18 N         -38.7260   -0.2640  -54.7580 N.am      5 SEP2        0.0000 
     19 N         -38.6565    0.6450  -52.4275 N.am      2 SEC2        0.0000 
     20 N         -38.9850   -0.8020  -52.0130 N.am      5 SEP2        0.0000 
     21 N         -38.4300    1.5495  -51.4685 N.am      2 SEC2        0.0000 
     22 N         -38.5320    1.0070  -50.0950 N.am      5 SEP2        0.0000 
     23 O         -38.7050    3.3300  -52.7925 O.2       1 ALC1        0.0000 
     24 O         -38.3280    2.0920  -52.8420 O.2       7 ALL1        0.0000 
     25 O         -39.0820    4.5680  -52.7430 O.2       4 ALP1        0.0000 
     26 CA        -35.2780    4.3975  -53.7535 C.3       3 GLC5        0.0000 
     27 CA        -36.2640    2.7440  -54.0230 C.3       9 GLL5        0.0000 
     28 CA        -34.2920    6.0510  -53.4840 C.3       6 GLP5        0.0000 
     29 CA        -34.9955    3.6955  -55.5140 C.3       3 GLC5        0.0000 
     30 CA        -33.7270    4.6470  -57.0050 C.3       6 GLP5        0.0000 
     31 CA        -36.4340    3.1395  -60.0350 C.3       3 GLC5        0.0000 
     32 CA        -37.5440    2.4430  -58.7380 C.3       9 GLL5        0.0000 
     33 CA        -35.3240    3.8360  -61.3320 C.3       6 GLP5        0.0000 
     34 O         -38.6115    2.0740  -60.8700 O.2       1 ALC1        0.0000 
     35 O         -37.6660    1.6420  -59.8690 O.2       7 ALL1        0.0000 
     36 O         -39.5570    2.5060  -61.8710 O.2       4 ALP1        0.0000 
     37 O         -37.1245    0.0660  -60.1105 O.2       1 ALC1        0.0000 
     38 O         -36.5830   -1.5100  -60.3520 O.2       4 ALP1        0.0000 
     39 N         -38.0125    4.5270  -60.1460 N.am      2 SEC2        0.0000 
     40 N         -37.9860    3.7130  -58.7860 N.am      8 SEL2        0.0000 
     41 N         -38.0390    5.3410  -61.5060 N.am      5 SEP2        0.0000 
     42 CA        -38.2125    6.3800  -58.0865 C.3       3 GLC5        0.0000 
     43 CA        -37.9300    4.5540  -57.7270 C.3       9 GLL5        0.0000 
     44 CA        -38.4950    8.2060  -58.4460 C.3       6 GLP5        0.0000 
     45 CA        -38.5355    5.7285  -56.2995 C.3       3 GLC5        0.0000 
     46 CA        -39.1410    6.9030  -54.8720 C.3       6 GLP5        0.0000 
     47 CA        -39.8005    3.9790  -57.3765 C.3       3 GLC5        0.0000 
     48 CA        -41.6710    3.4040  -57.0260 C.3       6 GLP5        0.0000 
     49 CA        -39.1690    4.8720  -59.3315 C.3       3 GLC5        0.0000 
     50 CA        -40.4080    5.1900  -60.9360 C.3       6 GLP5        0.0000 
     51 CA        -36.5980    5.4105  -59.1265 C.3       3 GLC5        0.0000 
     52 CA        -35.2660    6.2670  -60.5260 C.3       6 GLP5        0.0000 
     53 CA        -35.8285    4.6005  -57.3660 C.3       3 GLC5        0.0000 
     54 N         -38.9755    4.5265  -55.9700 N.am      2 SEC2        0.0000 
     55 N         -37.4490    4.1350  -56.5330 N.am      8 SEL2        0.0000 
     56 N         -40.5020    4.9180  -55.4070 N.am      5 SEP2        0.0000 
     57 N         -30.4710    3.3500  -48.1270 N.am      2 SEC2        0.0000 
     58 N         -30.6590    2.2300  -48.9580 N.am      8 SEL2        0.0000 
     59 N         -30.2830    4.4700  -47.2960 N.am      5 SEP2        0.0000 
     60 CA        -29.4610    4.1940  -52.5335 C.3       3 GLC5        0.0000 
     61 CA        -29.2860    2.3920  -51.6720 C.3       9 GLL5        0.0000 
     62 CA        -29.6360    5.9960  -53.3950 C.3       6 GLP5        0.0000 
     63 CA        -28.8805    3.7785  -53.8585 C.3       3 GLC5        0.0000 
     64 CA        -28.3270    2.0740  -52.8630 C.3       9 GLL5        0.0000 
     65 CA        -29.4340    5.4830  -54.8540 C.3       6 GLP5        0.0000 
     66 CA        -26.3915    2.7950  -52.2125 C.3       3 GLC5        0.0000 
     67 CA        -24.4560    3.5160  -51.5620 C.3       6 GLP5        0.0000 
     68 N         -27.7250    0.7690  -56.2210 N.am      2 SEC2        0.0000 
     69 N         -28.2650    1.3310  -55.0710 N.am      8 SEL2        0.0000 
     70 N         -27.1850    0.2070  -57.3710 N.am      5 SEP2        0.0000 
     71 CA        -27.3895   -0.7735  -55.2600 C.3       3 GLC5        0.0000 
     72 CA        -28.1180   -0.2940  -53.2990 C.3       9 GLL5        0.0000 
     73 CA        -26.6610   -1.2530  -57.2210 C.3       6 GLP5        0.0000 
     74 N         -27.0770   -2.5440  -54.5560 N.am      2 SEC2        0.0000 
     75 N         -28.0340   -1.2930  -54.3410 N.am      8 SEL2        0.0000 
     76 N         -26.1200   -3.7950  -54.7710 N.am      5 SEP2        0.0000 
     77 N         -27.6095   -0.5430  -55.8560 N.am      2 SEC2        0.0000 
     78 CA        -26.2805    1.8615  -53.9285 C.3       3 GLC5        0.0000 
     79 CA        -26.7730    0.2970  -52.9090 C.3       9 GLL5        0.0000 
     80 CA        -25.7880    3.4260  -54.9480 C.3       6 GLP5        0.0000 
     81 CA        -25.3445    1.2620  -52.1380 C.3       3 GLC5        0.0000 
     82 CA        -23.9160    2.2270  -51.3670 C.3       6 GLP5        0.0000 
     83 CA        -24.4410   -0.2825  -48.5545 C.3       3 GLC5        0.0000 
     84 CA        -25.5390   -1.4990  -49.8850 C.3       9 GLL5        0.0000 
     85 CA        -23.3430    0.9340  -47.2240 C.3       6 GLP5        0.0000 
     86 N         -24.0435   -1.9035  -46.7350 N.am      2 SEC2        0.0000 
     87 N         -24.9860   -2.3750  -47.8110 N.am      8 SEL2        0.0000 
     88 N         -23.1010   -1.4320  -45.6590 N.am      5 SEP2        0.0000 
     89 CA        -34.7978    4.2815  -52.7655 C.3       3 GLC5        0.0000 
     90 CA        -34.6030    2.6800  -52.3690 C.3       9 GLL5        0.0000 
     91 CA        -35.0802    3.2535  -50.2575 C.3       3 GLC5        0.0000 
     92 CA        -34.8570    3.9950  -48.4680 C.3       6 GLP5        0.0000 
     93 CA        -37.4640    2.1275  -50.7343 C.3       3 GLC5        0.0000 
     94 CA        -38.4860    2.1290  -49.1540 C.3       6 GLP5        0.0000 
     95 CA        -35.3717    3.5368  -56.9905 C.3       3 GLC5        0.0000 
     96 CA        -37.0150    2.8520  -56.4180 C.3       9 GLL5        0.0000 
     97 CA        -35.9520    0.9000  -58.8290 C.3       3 GLC5        0.0000 
     98 CA        -37.0180    2.0010  -57.5340 C.3       9 GLL5        0.0000 
     99 CA        -34.6230   -0.4220  -59.5220 C.3       6 GLP5        0.0000 
    100 CA        -27.7278    2.4285  -50.6277 C.3       3 GLC5        0.0000 
    101 CA        -26.6490    2.6240  -48.9880 C.3       6 GLP5        0.0000 
    102 CA        -27.1725    2.4740  -54.1355 C.3       3 GLC5        0.0000 
    103 CA        -29.5347    0.1295  -55.2180 C.3       3 GLC5        0.0000 
    104 CA        -28.7870    0.9700  -53.7830 C.3       9 GLL5        0.0000 
    105 CA        -30.6170   -0.0790  -56.8950 C.3       6 GLP5        0.0000 
    106 CA        -26.2915    0.7738  -49.6340 C.3       3 GLC5        0.0000 
    107 CA        -26.3290   -0.6540  -50.6750 C.3       9 GLL5        0.0000 
    108 CA        -23.4958   -0.5898  -50.4940 C.3       3 GLC5        0.0000 
    109 CA        -21.9840    0.6910  -50.8330 C.3       6 GLP5        0.0000 
    110 CA        -23.5408   -2.4540  -53.9000 C.3       3 GLC5        0.0000 
    111 CA        -24.2230   -2.1270  -51.8180 C.3       9 GLL5        0.0000 
    112 CA        -22.4710   -3.2200  -55.6040 C.3       6 GLP5        0.0000 
    113 CA        -23.2972   -0.4985  -51.5145 C.3       3 GLC5        0.0000 
@<TRIPOS>BOND
@<TRIPOS>SUBSTRUCTURE
     1 ALC1       10 GROUP        1 X    ALC  0     ROOT ALC X 1
     2 SEC2        1 GROUP        1 X    SEC  0     **** SEC X 2
     3 GLC5        7 GROUP        1 X    GLC  0     **** GLC X 6
     4 ALP1       12 GROUP        1 Y    ALP  0     ROOT ALP Y 8
     5 SEP2        3 GROUP        1 Y    SEP  0     **** SEP Y 9
     6 GLP5        9 GROUP        1 Y    GLP  0     **** GLP Y 13
     7 ALL1       11 GROUP        1 Z    ALL  0     ROOT ALL Z 15
     8 SEL2        2 GROUP        1 Z    SEL  0     **** SEL Z 16
     9 GLL5        8 GROUP        1 Z    GLL  0     **** GLL Z 20
@<TRIPOS>SET

