#    Name: 3ruf_NAD_4_ligand
#    Modification time : Tue Mar 25 11:54:04 2014

@<TRIPOS>MOLECULE
3ruf_NAD_4_ligand
   70    74     1     0     0
SMALL
NO_CHARGES


@<TRIPOS>ATOM
      1 PA        -33.1270    0.4270  -49.8600 P.3       1 NAD344      0.0000 
      2 O1A       -33.3920    0.8220  -48.4220 O.co2     1 NAD344      0.0000 
      3 O2A       -33.8790   -0.7090  -50.4640 O.co2     1 NAD344      0.0000 
      4 O5B       -33.3150    1.6690  -50.7400 O.3       1 NAD344      0.0000 
      5 C5B       -33.4790    1.7030  -52.1430 C.3       1 NAD344      0.0000 
      6 C4B       -34.6030    2.6800  -52.3690 C.3       1 NAD344      0.0000 
      7 O4B       -34.8570    2.7720  -53.7760 O.3       1 NAD344      0.0000 
      8 C3B       -36.0040    2.3440  -51.7250 C.3       1 NAD344      0.0000 
      9 O3B       -36.5470    3.5490  -51.1270 O.3       1 NAD344      0.0000 
     10 C2B       -36.8800    1.9080  -52.9040 C.3       1 NAD344      0.0000 
     11 O2B       -38.3280    2.0920  -52.8420 O.3       1 NAD344      0.0000 
     12 C1B       -36.2640    2.7440  -54.0230 C.3       1 NAD344      0.0000 
     13 N9A       -36.5100    2.1890  -55.3930 N.pl3     1 NAD344      0.0000 
     14 C8A       -36.2000    0.9510  -55.8040 C.2       1 NAD344      0.0000 
     15 N7A       -36.5270    0.8120  -57.1180 N.2       1 NAD344      0.0000 
     16 C5A       -37.0180    2.0010  -57.5340 C.ar      1 NAD344      0.0000 
     17 C6A       -37.5440    2.4430  -58.7380 C.ar      1 NAD344      0.0000 
     18 N6A       -37.6660    1.6420  -59.8690 N.pl3     1 NAD344      0.0000 
     19 N1A       -37.9860    3.7130  -58.7860 N.ar      1 NAD344      0.0000 
     20 C2A       -37.9300    4.5540  -57.7270 C.ar      1 NAD344      0.0000 
     21 N3A       -37.4490    4.1350  -56.5330 N.ar      1 NAD344      0.0000 
     22 C4A       -37.0150    2.8520  -56.4180 C.ar      1 NAD344      0.0000 
     23 O3        -31.5660    0.0440  -49.9770 O.3       1 NAD344      0.0000 
     24 PN        -30.3040    0.9070  -49.6300 P.3       1 NAD344      0.0000 
     25 O1N       -30.6590    2.2300  -48.9580 O.co2     1 NAD344      0.0000 
     26 O2N       -29.4390   -0.0850  -48.9020 O.co2     1 NAD344      0.0000 
     27 O5D       -29.5790    1.1600  -51.0530 O.3       1 NAD344      0.0000 
     28 C5D       -29.2860    2.3920  -51.6720 C.3       1 NAD344      0.0000 
     29 C4D       -28.3270    2.0740  -52.8630 C.3       1 NAD344      0.0000 
     30 O4D       -27.0940    1.5800  -52.3570 O.3       1 NAD344      0.0000 
     31 C3D       -28.7870    0.9700  -53.7830 C.3       1 NAD344      0.0000 
     32 O3D       -28.2650    1.3310  -55.0710 O.3       1 NAD344      0.0000 
     33 C2D       -28.1180   -0.2940  -53.2990 C.3       1 NAD344      0.0000 
     34 O2D       -28.0340   -1.2930  -54.3410 O.3       1 NAD344      0.0000 
     35 C1D       -26.7730    0.2970  -52.9090 C.3       1 NAD344      0.0000 
     36 N1N       -26.0230   -0.5450  -52.0080 N.pl3     1 NAD344      0.0000 
     37 C2N       -26.3290   -0.6540  -50.6750 C.ar      1 NAD344      0.0000 
     38 C3N       -25.5390   -1.4990  -49.8850 C.ar      1 NAD344      0.0000 
     39 C7N       -25.8210   -1.6660  -48.4220 C.2       1 NAD344      0.0000 
     40 O7N       -24.9860   -2.3750  -47.8110 O.2       1 NAD344      0.0000 
     41 N7N       -26.9330   -1.0420  -47.8840 N.am      1 NAD344      0.0000 
     42 C4N       -24.4760   -2.2420  -50.4250 C.ar      1 NAD344      0.0000 
     43 C5N       -24.2230   -2.1270  -51.8180 C.ar      1 NAD344      0.0000 
     44 C6N       -24.9980   -1.2490  -52.5740 C.ar      1 NAD344      0.0000 
     45 H         -33.7717    0.7449  -52.5454 H         1 NAD344      0.0000 
     46 H         -32.5993    2.0695  -52.6503 H         1 NAD344      0.0000 
     47 H         -34.3186    3.6654  -52.0009 H         1 NAD344      0.0000 
     48 H         -35.8787    1.5551  -51.0614 H         1 NAD344      0.0000 
     49 H         -36.6020    0.8756  -53.1395 H         1 NAD344      0.0000 
     50 H         -36.6691    3.7428  -53.9566 H         1 NAD344      0.0000 
     51 H         -35.8027    0.2521  -55.2570 H         1 NAD344      0.0000 
     52 H         -38.0460    2.0834  -60.6818 H         1 NAD344      0.0000 
     53 H         -37.3632    0.6939  -59.7715 H         1 NAD344      0.0000 
     54 H         -38.2626    5.5404  -57.8324 H         1 NAD344      0.0000 
     55 H         -28.7621    3.0804  -51.0212 H         1 NAD344      0.0000 
     56 H         -30.1593    2.8749  -52.0915 H         1 NAD344      0.0000 
     57 H         -28.1663    2.9643  -53.4331 H         1 NAD344      0.0000 
     58 H         -29.8147    0.8898  -53.7578 H         1 NAD344      0.0000 
     59 H         -28.6078   -0.6088  -52.4210 H         1 NAD344      0.0000 
     60 H         -26.2246    0.4466  -53.8485 H         1 NAD344      0.0000 
     61 H         -27.1029   -0.1426  -50.2603 H         1 NAD344      0.0000 
     62 H         -27.4741   -0.4862  -48.5151 H         1 NAD344      0.0000 
     63 H         -27.0990   -1.2010  -46.9108 H         1 NAD344      0.0000 
     64 H         -23.9069   -2.8395  -49.8486 H         1 NAD344      0.0000 
     65 H         -23.4867   -2.6807  -52.2448 H         1 NAD344      0.0000 
     66 H         -24.7827   -1.1364  -53.5849 H         1 NAD344      0.0000 
     67 H         -36.6961    4.1736  -51.8935 H         1 NAD344      0.0000 
     68 H         -38.4999    2.9537  -53.3193 H         1 NAD344      0.0000 
     69 H         -27.3039    1.5535  -54.9075 H         1 NAD344      0.0000 
     70 H         -28.3205   -0.8216  -55.1750 H         1 NAD344      0.0000 
@<TRIPOS>BOND
     1    2    1 ar   
     2    3    1 ar   
     3    4    1 1    
     4   23    1 1    
     5    5    4 1    
     6    6    5 1    
     7   45    5 1    
     8   46    5 1    
     9    7    6 1    
    10    8    6 1    
    11   47    6 1    
    12   12    7 1    
    13    9    8 1    
    14   10    8 1    
    15   48    8 1    
    16   67    9 1    
    17   11   10 1    
    18   12   10 1    
    19   49   10 1    
    20   68   11 1    
    21   13   12 1    
    22   50   12 1    
    23   14   13 1    
    24   22   13 1    
    25   15   14 2    
    26   51   14 1    
    27   16   15 1    
    28   17   16 ar   
    29   22   16 ar   
    30   18   17 1    
    31   19   17 ar   
    32   52   18 1    
    33   53   18 1    
    34   20   19 ar   
    35   21   20 ar   
    36   54   20 1    
    37   22   21 ar   
    38   24   23 1    
    39   25   24 ar   
    40   26   24 ar   
    41   27   24 1    
    42   28   27 1    
    43   29   28 1    
    44   55   28 1    
    45   56   28 1    
    46   30   29 1    
    47   31   29 1    
    48   57   29 1    
    49   35   30 1    
    50   32   31 1    
    51   33   31 1    
    52   58   31 1    
    53   69   32 1    
    54   34   33 1    
    55   35   33 1    
    56   59   33 1    
    57   70   34 1    
    58   36   35 1    
    59   60   35 1    
    60   37   36 ar   
    61   44   36 ar   
    62   38   37 ar   
    63   61   37 1    
    64   39   38 1    
    65   42   38 ar   
    66   40   39 2    
    67   41   39 am   
    68   62   41 1    
    69   63   41 1    
    70   43   42 ar   
    71   64   42 1    
    72   44   43 ar   
    73   65   43 1    
    74   66   44 1    
@<TRIPOS>SUBSTRUCTURE
     1 NAD344      1 GROUP   
@<TRIPOS>SET

