#    Name: 3nzk_C90_1_INTS_M
#    Modification time : Tue Mar 25 03:00:20 2014

@<TRIPOS>MOLECULE
3nzk_C90_1_INTS_M
   74     0    12     0     0
SMALL
NO_CHARGES


@<TRIPOS>ATOM
      1 CA         -5.2660  -22.0010  -10.5380 C.3       4 GLC5        0.0000 
      2 CA         -3.3700  -22.8340   -9.7300 C.3      12 GLL5        0.0000 
      3 CA         -7.1620  -21.1680  -11.3460 C.3       8 GLP5        0.0000 
      4 CA         -8.3325  -20.9550   -2.5800 C.3       4 GLC5        0.0000 
      5 CA         -7.5580  -22.8590   -2.8100 C.3      12 GLL5        0.0000 
      6 CA         -9.1070  -19.0510   -2.3500 C.3       8 GLP5        0.0000 
      7 CA         -0.3335  -23.9665  -11.0780 C.3       4 GLC5        0.0000 
      8 CA         -0.7910  -22.0400  -12.0690 C.3      12 GLL5        0.0000 
      9 CA          0.1240  -25.8930  -10.0870 C.3       8 GLP5        0.0000 
     10 CA         -5.0035  -20.9140  -11.9180 C.3       4 GLC5        0.0000 
     11 CA         -2.8450  -20.6600  -12.4900 C.3      12 GLL5        0.0000 
     12 CA         -6.3225  -22.2430   -9.9540 C.3       4 GLC5        0.0000 
     13 CA         -5.4830  -23.3180   -8.5620 C.3      12 GLL5        0.0000 
     14 O          -8.4900  -24.2130   -6.0925 O.2       1 ALC1        0.0000 
     15 O          -7.4790  -24.6370   -5.1200 O.2       9 ALL1        0.0000 
     16 O          -9.5010  -23.7890   -7.0650 O.2       5 ALP1        0.0000 
     17 N          -9.5850  -23.3945   -5.4650 N.am      2 SEC2        0.0000 
     18 N          -9.6690  -23.0000   -3.8650 N.am     10 SEL2        0.0000 
     19 N          -9.5010  -23.7890   -7.0650 N.am      6 SEP2        0.0000 
     20 Zn        -11.3500  -25.6685   -5.1970 Zn        3 ZIC7        0.0000 
     21 Zn        -10.4490  -25.1740   -5.1430 Zn       11 ZIL7        0.0000 
     22 Zn        -12.2510  -26.1630   -5.2510 Zn        7 ZIP7        0.0000 
     23 N          -9.9750  -24.4815   -6.1040 N.am      2 SEC2        0.0000 
     24 N         -10.4490  -25.1740   -5.1430 N.am     10 SEL2        0.0000 
     25 Zn        -11.5425  -26.9310   -4.8885 Zn        3 ZIC7        0.0000 
     26 Zn        -10.8340  -27.6990   -4.5260 Zn       11 ZIL7        0.0000 
     27 O         -10.5855  -28.8865   -4.7295 O.2       1 ALC1        0.0000 
     28 O         -10.8340  -27.6990   -4.5260 O.2       9 ALL1        0.0000 
     29 O         -10.3370  -30.0740   -4.9330 O.2       5 ALP1        0.0000 
     30 CA         -2.1705  -20.8130  -15.3238 C.3       4 GLC5        0.0000 
     31 CA         -0.8190  -20.3800  -13.9420 C.3      12 GLL5        0.0000 
     32 CA         -3.8860  -21.5870  -16.1280 C.3       8 GLP5        0.0000 
     33 CA         -4.4045  -24.6977  -10.2890 C.3       4 GLC5        0.0000 
     34 CA         -5.1020  -26.2900  -11.4120 C.3       8 GLP5        0.0000 
     35 CA         -1.9530  -24.3457   -8.7740 C.3       4 GLC5        0.0000 
     36 CA         -0.1990  -25.5860   -8.3820 C.3       8 GLP5        0.0000 
     37 CA         -0.2073  -16.3250  -15.7505 C.3       4 GLC5        0.0000 
     38 CA          1.4410  -17.9080  -15.4910 C.3      12 GLL5        0.0000 
     39 CA         -2.0390  -15.4910  -16.1250 C.3       8 GLP5        0.0000 
     40 CA          0.8013  -16.8925  -11.3057 C.3       4 GLC5        0.0000 
     41 CA          0.7680  -16.4410  -13.1590 C.3      12 GLL5        0.0000 
     42 CA          0.9520  -16.5890   -9.3770 C.3       8 GLP5        0.0000 
     43 CA         -0.8207  -16.0255  -14.0823 C.3       4 GLC5        0.0000 
     44 CA         -2.2920  -14.8550  -14.9300 C.3       8 GLP5        0.0000 
     45 CA         -0.8912  -16.6565  -11.8773 C.3       4 GLC5        0.0000 
     46 CA         -2.4330  -16.1170  -10.5200 C.3       8 GLP5        0.0000 
     47 CA          0.2948  -21.4475  -10.8485 C.3       4 GLC5        0.0000 
     48 CA         -0.1260  -21.3960  -13.1790 C.3      12 GLL5        0.0000 
     49 CA          1.0480  -21.1770   -9.0730 C.3       8 GLP5        0.0000 
     50 CA         -1.7152  -23.1245  -13.2635 C.3       4 GLC5        0.0000 
     51 CA         -2.9720  -24.5310  -13.9030 C.3       8 GLP5        0.0000 
     52 CA         -3.1993  -20.9608  -14.5870 C.3       4 GLC5        0.0000 
     53 CA         -3.2933  -18.9627  -12.3775 C.3       4 GLC5        0.0000 
     54 CA         -2.1800  -20.0090  -13.6020 C.3      12 GLL5        0.0000 
     55 CA         -4.0740  -17.5910  -11.7090 C.3       8 GLP5        0.0000 
     56 CA         -2.0805  -20.4144  -10.1173 C.3       4 GLC5        0.0000 
     57 CA         -1.5020  -19.5060   -8.3930 C.3       8 GLP5        0.0000 
     58 CA         -2.8155  -22.9269  -12.8723 C.3       4 GLC5        0.0000 
     59 CA         -2.8030  -22.2980  -10.6540 C.3      12 GLL5        0.0000 
     60 CA         -6.0101  -25.4408   -8.5635 C.3       4 GLC5        0.0000 
     61 CA         -6.3730  -27.1800   -9.4250 C.3       8 GLP5        0.0000 
     62 CA         -7.7763  -23.5095   -8.7215 C.3       4 GLC5        0.0000 
     63 CA         -6.1800  -23.8040   -7.4060 C.3      12 GLL5        0.0000 
     64 CA         -9.7210  -23.4580   -9.4590 C.3       8 GLP5        0.0000 
     65 CA         -2.2032  -22.0721   -7.9623 C.3       4 GLC5        0.0000 
     66 CA         -4.0440  -23.3770   -8.6020 C.3      12 GLL5        0.0000 
     67 CA         -0.9070  -20.6340   -7.5950 C.3       8 GLP5        0.0000 
     68 CA         -2.1193  -24.9890   -5.8327 C.3       4 GLC5        0.0000 
     69 CA         -3.2920  -23.9150   -7.4930 C.3      12 GLL5        0.0000 
     70 CA         -0.6030  -25.8110   -4.7570 C.3       8 GLP5        0.0000 
     71 CA         -1.9172  -24.8765   -7.6452 C.3       4 GLC5        0.0000 
     72 CA         -3.9790  -24.4190   -6.3240 C.3      12 GLL5        0.0000 
     73 CA         -5.1054  -21.7259   -6.9775 C.3       4 GLC5        0.0000 
     74 CA         -4.7390  -19.8760   -5.9610 C.3       8 GLP5        0.0000 
@<TRIPOS>BOND
@<TRIPOS>SUBSTRUCTURE
     1 ALC1       14 GROUP        1 X    ALC  0     ROOT ALC X 1
     2 SEC2       17 GROUP        1 X    SEC  0     **** SEC X 2
     3 ZIC7       20 GROUP        1 X    ZIC  0     **** ZIC X 5
     4 GLC5        1 GROUP        1 X    GLC  0     **** GLC X 6
     5 ALP1       16 GROUP        1 Y    ALP  0     ROOT ALP Y 8
     6 SEP2       19 GROUP        1 Y    SEP  0     **** SEP Y 9
     7 ZIP7       22 GROUP        1 Y    ZIP  0     **** ZIP Y 12
     8 GLP5        3 GROUP        1 Y    GLP  0     **** GLP Y 13
     9 ALL1       15 GROUP        1 Z    ALL  0     ROOT ALL Z 15
    10 SEL2       18 GROUP        1 Z    SEL  0     **** SEL Z 16
    11 ZIL7       21 GROUP        1 Z    ZIL  0     **** ZIL Z 19
    12 GLL5        2 GROUP        1 Z    GLL  0     **** GLL Z 20
@<TRIPOS>SET

