#    Name: 3nzk_C90_1_ligand
#    Modification time : Tue Mar 25 03:00:20 2014

@<TRIPOS>MOLECULE
3nzk_C90_1_ligand
   60    62     1     0     0
SMALL
NO_CHARGES


@<TRIPOS>ATOM
      1 C5         -0.0910  -19.6980  -15.0970 C.3       1 C90501      0.0000 
      2 C6         -0.8190  -20.3800  -13.9420 C.ar      1 C90501      0.0000 
      3 C9         -2.1430  -21.6730  -11.7320 C.ar      1 C90501      0.0000 
      4 C10        -2.8030  -22.2980  -10.6540 C.1       1 C90501      0.0000 
      5 O1          1.9730  -16.1540  -13.8630 O.3       1 C90501      0.0000 
      6 C11        -3.3700  -22.8340   -9.7300 C.1       1 C90501      0.0000 
      7 C12        -4.0440  -23.3770   -8.6020 C.ar      1 C90501      0.0000 
      8 C19        -8.7250  -23.7990   -3.1500 C.3       1 C90501      0.0000 
      9 C15        -5.4430  -24.3660   -6.2780 C.ar      1 C90501      0.0000 
     10 C16        -6.1670  -24.8220   -5.1310 C.2       1 C90501      0.0000 
     11 C18        -8.3590  -25.0610   -4.0190 C.3       1 C90501      0.0000 
     12 C21        -7.5580  -22.8590   -2.8100 C.3       1 C90501      0.0000 
     13 C22        -9.5460  -25.8140   -4.6430 C.2       1 C90501      0.0000 
     14 CA1         1.8080  -16.4100  -15.2610 C.3       1 C90501      0.0000 
     15 CA2         0.7680  -16.4410  -13.1590 C.3       1 C90501      0.0000 
     16 CB1         1.4410  -17.9080  -15.4910 C.3       1 C90501      0.0000 
     17 CB2         0.5330  -17.9510  -13.3100 C.3       1 C90501      0.0000 
     18 N4          0.2410  -18.2770  -14.7240 N.4       1 C90501      0.0000 
     19 CC1        -0.1260  -21.3960  -13.1790 C.ar      1 C90501      0.0000 
     20 CC2        -2.1800  -20.0090  -13.6020 C.ar      1 C90501      0.0000 
     21 CD1        -0.7910  -22.0400  -12.0690 C.ar      1 C90501      0.0000 
     22 CD2        -2.8450  -20.6600  -12.4900 C.ar      1 C90501      0.0000 
     23 CE1        -5.4830  -23.3180   -8.5620 C.ar      1 C90501      0.0000 
     24 CE2        -3.2920  -23.9150   -7.4930 C.ar      1 C90501      0.0000 
     25 CF1        -6.1800  -23.8040   -7.4060 C.ar      1 C90501      0.0000 
     26 CF         -3.9790  -24.4190   -6.3240 C.ar      1 C90501      0.0000 
     27 O16        -5.5540  -25.2220   -4.1320 O.2       1 C90501      0.0000 
     28 N17        -7.4790  -24.6370   -5.1200 N.am      1 C90501      0.0000 
     29 O20        -9.6690  -23.0000   -3.8650 O.3       1 C90501      0.0000 
     30 N23        -9.7130  -27.0510   -4.2510 N.am      1 C90501      0.0000 
     31 O22       -10.4490  -25.1740   -5.1430 O.2       1 C90501      0.0000 
     32 O24       -10.8340  -27.6990   -4.5260 O.3       1 C90501      0.0000 
     33 H          -0.7308  -19.7092  -15.9759 H         1 C90501      0.0000 
     34 H           0.8226  -20.2460  -15.3136 H         1 C90501      0.0000 
     35 H          -9.1648  -24.1458   -2.2240 H         1 C90501      0.0000 
     36 H          -7.8081  -25.7514   -3.3834 H         1 C90501      0.0000 
     37 H           2.7233  -16.2141  -15.8276 H         1 C90501      0.0000 
     38 H           1.0023  -15.8124  -15.6980 H         1 C90501      0.0000 
     39 H          -0.0865  -15.9292  -13.5804 H         1 C90501      0.0000 
     40 H           0.8466  -16.2221  -12.1028 H         1 C90501      0.0000 
     41 H           2.3015  -18.5089  -15.1886 H         1 C90501      0.0000 
     42 H           1.2817  -18.0481  -16.5625 H         1 C90501      0.0000 
     43 H          -0.3022  -18.2347  -12.6704 H         1 C90501      0.0000 
     44 H           1.4274  -18.4737  -12.9724 H         1 C90501      0.0000 
     45 H          -0.5686  -17.6235  -15.0863 H         1 C90501      0.0000 
     46 H           0.8183  -21.6533  -13.4218 H         1 C90501      0.0000 
     47 H          -2.6594  -19.3036  -14.1353 H         1 C90501      0.0000 
     48 H          -0.3075  -22.7453  -11.5321 H         1 C90501      0.0000 
     49 H          -3.7883  -20.4080  -12.2482 H         1 C90501      0.0000 
     50 H          -5.9952  -22.9366   -9.3439 H         1 C90501      0.0000 
     51 H          -2.2815  -23.9401   -7.5325 H         1 C90501      0.0000 
     52 H          -7.1913  -23.7617   -7.3615 H         1 C90501      0.0000 
     53 H          -3.4692  -24.8004   -5.5525 H         1 C90501      0.0000 
     54 H          -7.9791  -24.1635   -5.9198 H         1 C90501      0.0000 
     55 H          -8.9503  -27.5433   -3.7096 H         1 C90501      0.0000 
     56 H          -6.8427  -23.3275   -2.2916 H         1 C90501      0.0000 
     57 H          -7.1281  -22.4878   -3.6331 H         1 C90501      0.0000 
     58 H          -7.8570  -22.0800   -2.2588 H         1 C90501      0.0000 
     59 H         -10.1608  -23.6435   -4.4516 H         1 C90501      0.0000 
     60 H         -10.5615  -28.4368   -5.1435 H         1 C90501      0.0000 
@<TRIPOS>BOND
     1    2    1 1    
     2   18    1 1    
     3   33    1 1    
     4   34    1 1    
     5   19    2 ar   
     6   20    2 ar   
     7    4    3 1    
     8   21    3 ar   
     9   22    3 ar   
    10    6    4 3    
    11   14    5 1    
    12   15    5 1    
    13    7    6 1    
    14   23    7 ar   
    15   24    7 ar   
    16   11    8 1    
    17   12    8 1    
    18   29    8 1    
    19   35    8 1    
    20   10    9 1    
    21   25    9 ar   
    22   26    9 ar   
    23   27   10 2    
    24   28   10 am   
    25   13   11 1    
    26   28   11 1    
    27   36   11 1    
    28   56   12 1    
    29   57   12 1    
    30   58   12 1    
    31   30   13 am   
    32   31   13 2    
    33   16   14 1    
    34   37   14 1    
    35   38   14 1    
    36   17   15 1    
    37   39   15 1    
    38   40   15 1    
    39   18   16 1    
    40   41   16 1    
    41   42   16 1    
    42   18   17 1    
    43   43   17 1    
    44   44   17 1    
    45   45   18 1    
    46   21   19 ar   
    47   46   19 1    
    48   22   20 ar   
    49   47   20 1    
    50   48   21 1    
    51   49   22 1    
    52   25   23 ar   
    53   50   23 1    
    54   26   24 ar   
    55   51   24 1    
    56   52   25 1    
    57   53   26 1    
    58   54   28 1    
    59   59   29 1    
    60   32   30 1    
    61   55   30 1    
    62   60   32 1    
@<TRIPOS>SUBSTRUCTURE
     1 C90501      1 GROUP   
@<TRIPOS>SET

