#    Name: 1pxm_CK5_1_INTS_M
#    Modification time : Mon Mar 24 22:23:48 2014

@<TRIPOS>MOLECULE
1pxm_CK5_1_INTS_M
   61     0     9     0     0
SMALL
NO_CHARGES


@<TRIPOS>ATOM
      1 O          18.2810   43.4525    8.0745 O.2       1 ALC1        0.0000 
      2 O          17.3240   44.2610    8.6060 O.2       7 ALL1        0.0000 
      3 O          19.2380   42.6440    7.5430 O.2       4 ALP1        0.0000 
      4 CA         19.6825   47.8485   12.8290 C.3       3 GLC5        0.0000 
      5 CA         18.2390   47.2920   11.3720 C.3       9 GLL5        0.0000 
      6 CA         21.1260   48.4050   14.2860 C.3       6 GLP5        0.0000 
      7 O          17.4795   47.3185   13.7155 O.2       1 ALC1        0.0000 
      8 O          16.4860   46.6860   12.9470 O.2       7 ALL1        0.0000 
      9 O          18.4730   47.9510   14.4840 O.2       4 ALP1        0.0000 
     10 CA         14.6395   47.1395   12.2605 C.3       3 GLC5        0.0000 
     11 CA         15.3970   46.0000   13.5540 C.3       9 GLL5        0.0000 
     12 CA         13.8820   48.2790   10.9670 C.3       6 GLP5        0.0000 
     13 CA         13.6195   47.0060   13.9950 C.3       3 GLC5        0.0000 
     14 CA         11.8420   48.0120   14.4360 C.3       6 GLP5        0.0000 
     15 CA         16.3165   44.4915   13.4165 C.3       3 GLC5        0.0000 
     16 CA         17.2360   42.9830   13.2790 C.3       6 GLP5        0.0000 
     17 N          16.1885   47.0690   15.7855 N.am      2 SEC2        0.0000 
     18 N          15.2400   46.2990   14.8440 N.am      8 SEL2        0.0000 
     19 N          17.1370   47.8390   16.7270 N.am      5 SEP2        0.0000 
     20 CA         14.7285   47.4195   16.4835 C.3       3 GLC5        0.0000 
     21 CA         14.2560   45.7080   15.5500 C.3       9 GLL5        0.0000 
     22 CA         15.2010   49.1310   17.4170 C.3       6 GLP5        0.0000 
     23 CA         11.7770   45.3090   16.2310 C.3       3 GLC5        0.0000 
     24 CA         13.3940   44.7700   14.9350 C.3       9 GLL5        0.0000 
     25 CA         10.1600   45.8480   17.5270 C.3       6 GLP5        0.0000 
     26 CA          9.4930   43.8040   15.0875 C.3       3 GLC5        0.0000 
     27 CA         10.5430   43.0470   13.9610 C.3       9 GLL5        0.0000 
     28 CA          8.4430   44.5610   16.2140 C.3       6 GLP5        0.0000 
     29 CA         11.8660   41.6345   14.6330 C.3       3 GLC5        0.0000 
     30 CA         13.1890   40.2220   15.3050 C.3       6 GLP5        0.0000 
     31 CA         13.8595   44.5605   10.1105 C.3       3 GLC5        0.0000 
     32 CA         13.6190   43.0010   11.3280 C.3       9 GLL5        0.0000 
     33 CA         14.1000   46.1200    8.8930 C.3       6 GLP5        0.0000 
     34 CA         15.4275   42.9920   12.3035 C.3       3 GLC5        0.0000 
     35 CA         10.8940   42.8365    9.4650 C.3       3 GLC5        0.0000 
     36 CA         12.3820   41.1970    9.7010 C.3       9 GLL5        0.0000 
     37 CA          9.4060   44.4760    9.2290 C.3       6 GLP5        0.0000 
     38 CA         13.0615   39.4070   10.8125 C.3       3 GLC5        0.0000 
     39 CA         13.7410   37.6170   11.9240 C.3       6 GLP5        0.0000 
     40 CA         15.6630   45.7115    9.5098 C.3       3 GLC5        0.0000 
     41 CA         16.8520   45.3760   10.7270 C.3       9 GLL5        0.0000 
     42 CA         15.7925   47.5675   11.2453 C.3       3 GLC5        0.0000 
     43 CA         17.1670   46.4200   11.6750 C.3       9 GLL5        0.0000 
     44 CA         17.2163   44.4222   12.0899 C.3       3 GLC5        0.0000 
     45 CA         20.1471   46.0201   11.0685 C.3       3 GLC5        0.0000 
     46 CA         21.6540   45.3710   12.1190 C.3       6 GLP5        0.0000 
     47 CA         18.5697   43.8148    9.7574 C.3       3 GLC5        0.0000 
     48 CA         18.6650   46.1180    9.2610 C.3       9 GLL5        0.0000 
     49 CA         19.1940   41.9190    9.8210 C.3       6 GLP5        0.0000 
     50 CA         13.4550   44.2750   16.9273 C.3       3 GLC5        0.0000 
     51 CA         13.0850   43.3110   18.6120 C.3       6 GLP5        0.0000 
     52 CA         14.8370   43.8375   15.2658 C.3       3 GLC5        0.0000 
     53 CA         15.8490   42.4360   15.2890 C.3       6 GLP5        0.0000 
     54 CA         12.7855   46.4417   14.4159 C.3       3 GLC5        0.0000 
     55 CA         14.5493   43.2353   14.2282 C.3       3 GLC5        0.0000 
     56 CA         13.6330   44.5040   13.5490 C.3       9 GLL5        0.0000 
     57 CA         11.2918   44.8462   11.6768 C.3       3 GLC5        0.0000 
     58 CA         12.8660   43.5650   12.7860 C.3       9 GLL5        0.0000 
     59 CA         10.3420   46.4470   10.5190 C.3       6 GLP5        0.0000 
     60 CA         12.7153   41.7338   14.0697 C.3       3 GLC5        0.0000 
     61 CA         11.6170   42.9260   12.8830 C.3       9 GLL5        0.0000 
@<TRIPOS>BOND
@<TRIPOS>SUBSTRUCTURE
     1 ALC1        1 GROUP        1 X    ALC  0     ROOT ALC X 1
     2 SEC2       17 GROUP        1 X    SEC  0     **** SEC X 2
     3 GLC5        4 GROUP        1 X    GLC  0     **** GLC X 6
     4 ALP1        3 GROUP        1 Y    ALP  0     ROOT ALP Y 8
     5 SEP2       19 GROUP        1 Y    SEP  0     **** SEP Y 9
     6 GLP5        6 GROUP        1 Y    GLP  0     **** GLP Y 13
     7 ALL1        2 GROUP        1 Z    ALL  0     ROOT ALL Z 15
     8 SEL2       18 GROUP        1 Z    SEL  0     **** SEL Z 16
     9 GLL5        5 GROUP        1 Z    GLL  0     **** GLL Z 20
@<TRIPOS>SET

