#    Name: 1pxm_CK5_1_ligand
#    Modification time : Mon Mar 24 22:23:48 2014

@<TRIPOS>MOLECULE
1pxm_CK5_1_ligand
   35    37     1     0     0
SMALL
NO_CHARGES


@<TRIPOS>ATOM
      1 O7B        17.3240   44.2610    8.6060 O.3       1 CK5500      0.0000 
      2 C3B        17.6000   45.2300    9.5260 C.ar      1 CK5500      0.0000 
      3 C2B        16.8520   45.3760   10.7270 C.ar      1 CK5500      0.0000 
      4 C1B        17.1670   46.4200   11.6750 C.ar      1 CK5500      0.0000 
      5 C6B        18.2390   47.2920   11.3720 C.ar      1 CK5500      0.0000 
      6 C5B        18.9920   47.1490   10.1780 C.ar      1 CK5500      0.0000 
      7 C4B        18.6650   46.1180    9.2610 C.ar      1 CK5500      0.0000 
      8 N7         16.4860   46.6860   12.9470 N.pl3     1 CK5500      0.0000 
      9 C2         15.3970   46.0000   13.5540 C.ar      1 CK5500      0.0000 
     10 N1         15.2400   46.2990   14.8440 N.ar      1 CK5500      0.0000 
     11 C6         14.2560   45.7080   15.5500 C.ar      1 CK5500      0.0000 
     12 N3         14.6440   45.1440   12.9070 N.ar      1 CK5500      0.0000 
     13 C4         13.6330   44.5040   13.5490 C.ar      1 CK5500      0.0000 
     14 C5         13.3940   44.7700   14.9350 C.ar      1 CK5500      0.0000 
     15 C5A        12.8660   43.5650   12.7860 C.2       1 CK5500      0.0000 
     16 C1A        11.6170   42.9260   12.8830 C.2       1 CK5500      0.0000 
     17 C6A        10.5430   43.0470   13.9610 C.3       1 CK5500      0.0000 
     18 S4A        13.6190   43.0010   11.3280 S.3       1 CK5500      0.0000 
     19 C3A        12.3360   42.0210   10.9520 C.2       1 CK5500      0.0000 
     20 N2A        11.3470   42.0570   11.8280 N.2       1 CK5500      0.0000 
     21 C7A        12.3820   41.1970    9.7010 C.3       1 CK5500      0.0000 
     22 H          16.0807   44.7398   10.9308 H         1 CK5500      0.0000 
     23 H          18.4790   48.0461   12.0300 H         1 CK5500      0.0000 
     24 H          19.7622   47.7828    9.9812 H         1 CK5500      0.0000 
     25 H          19.2089   46.0188    8.3980 H         1 CK5500      0.0000 
     26 H          16.8816   47.5321   13.4930 H         1 CK5500      0.0000 
     27 H          14.1054   45.9221   16.5519 H         1 CK5500      0.0000 
     28 H          12.6634   44.3181   15.4289 H         1 CK5500      0.0000 
     29 H          10.8866   42.7748   14.8598 H         1 CK5500      0.0000 
     30 H          10.2074   43.9851   14.0473 H         1 CK5500      0.0000 
     31 H           9.7511   42.4695   13.7627 H         1 CK5500      0.0000 
     32 H          12.4768   41.7665    8.8845 H         1 CK5500      0.0000 
     33 H          13.1521   40.5591    9.7045 H         1 CK5500      0.0000 
     34 H          11.5512   40.6528    9.5840 H         1 CK5500      0.0000 
     35 H          18.2098   43.8511    8.3884 H         1 CK5500      0.0000 
@<TRIPOS>BOND
     1    2    1 1    
     2   35    1 1    
     3    3    2 ar   
     4    7    2 ar   
     5    4    3 ar   
     6   22    3 1    
     7    5    4 ar   
     8    8    4 1    
     9    6    5 ar   
    10   23    5 1    
    11    7    6 ar   
    12   24    6 1    
    13   25    7 1    
    14    9    8 1    
    15   26    8 1    
    16   10    9 ar   
    17   12    9 ar   
    18   11   10 ar   
    19   14   11 ar   
    20   27   11 1    
    21   13   12 ar   
    22   14   13 ar   
    23   15   13 1    
    24   28   14 1    
    25   16   15 2    
    26   18   15 1    
    27   17   16 1    
    28   20   16 1    
    29   29   17 1    
    30   30   17 1    
    31   31   17 1    
    32   19   18 1    
    33   20   19 2    
    34   21   19 1    
    35   32   21 1    
    36   33   21 1    
    37   34   21 1    
@<TRIPOS>SUBSTRUCTURE
     1 CK5500      1 GROUP   
@<TRIPOS>SET

