#    Name: 3hv3_R49_1_INTS_M
#    Modification time : Tue Mar 25 15:05:52 2014

@<TRIPOS>MOLECULE
3hv3_R49_1_INTS_M
   96     0     9     0     0
SMALL
NO_CHARGES


@<TRIPOS>ATOM
      1 CA         -2.0475  -11.2535  -14.3975 C.3       3 GLC5        0.0000 
      2 CA         -1.3720   -9.2630  -14.9900 C.3       9 GLL5        0.0000 
      3 CA         -2.7230  -13.2440  -13.8050 C.3       6 GLP5        0.0000 
      4 CA         -0.3365   -9.4570  -16.7685 C.3       3 GLC5        0.0000 
      5 CA          0.6990   -9.6510  -18.5470 C.3       6 GLP5        0.0000 
      6 CA         -2.0345  -10.8640  -12.5240 C.3       3 GLC5        0.0000 
      7 CA         -0.9280   -9.1350  -12.5380 C.3       9 GLL5        0.0000 
      8 CA         -3.1410  -12.5930  -12.5100 C.3       6 GLP5        0.0000 
      9 CA         -0.3585   -9.0200   -9.3090 C.3       3 GLC5        0.0000 
     10 CA         -0.4180   -8.4730  -11.4230 C.3       9 GLL5        0.0000 
     11 CA         -0.2990   -9.5670   -7.1950 C.3       6 GLP5        0.0000 
     12 CA         -1.5640   -7.0810  -10.7160 C.3       3 GLC5        0.0000 
     13 CA          0.1300   -7.1870  -11.5820 C.3       9 GLL5        0.0000 
     14 CA         -3.2580   -6.9750   -9.8500 C.3       6 GLP5        0.0000 
     15 CA          0.9865   -6.2875   -9.9920 C.3       3 GLC5        0.0000 
     16 CA          1.8430   -5.3880   -8.4020 C.3       6 GLP5        0.0000 
     17 CA          3.1555   -4.6815   -9.8960 C.3       3 GLC5        0.0000 
     18 CA          4.4680   -3.9750  -11.3900 C.3       9 GLL5        0.0000 
     19 CA          5.4245   -4.3460   -9.4365 C.3       3 GLC5        0.0000 
     20 CA          6.3810   -4.7170   -7.4830 C.3       6 GLP5        0.0000 
     21 CA          3.8770   -0.1390  -12.3690 C.3       3 GLC5        0.0000 
     22 CA          4.1840   -2.1340  -13.0660 C.3       9 GLL5        0.0000 
     23 CA          3.5700    1.8560  -11.6720 C.3       6 GLP5        0.0000 
     24 CA          5.7055   -1.0830  -12.1975 C.3       3 GLC5        0.0000 
     25 CA          7.2270   -0.0320  -11.3290 C.3       6 GLP5        0.0000 
     26 CA          5.5820   -1.2840  -14.1825 C.3       3 GLC5        0.0000 
     27 CA          6.9800   -0.4340  -15.2990 C.3       6 GLP5        0.0000 
     28 CA          3.5930   -1.6930  -14.9590 C.3       3 GLC5        0.0000 
     29 CA          3.0020   -1.2520  -16.8520 C.3       6 GLP5        0.0000 
     30 CA          2.4025   -3.7305   -9.6440 C.3       3 GLC5        0.0000 
     31 CA          2.9620   -2.0730  -10.8860 C.3       9 GLL5        0.0000 
     32 CA          2.2150   -0.8165   -9.7940 C.3       3 GLC5        0.0000 
     33 CA          1.4680    0.4400   -8.7020 C.3       6 GLP5        0.0000 
     34 CA          3.2660   -0.1085  -11.2790 C.3       3 GLC5        0.0000 
     35 CA          0.7685   -1.4685  -13.8330 C.3       3 GLC5        0.0000 
     36 CA          1.2300   -3.2410  -13.3600 C.3       9 GLL5        0.0000 
     37 CA          0.3070    0.3040  -14.3060 C.3       6 GLP5        0.0000 
     38 CA          2.1160   -2.2465  -15.1060 C.3       3 GLC5        0.0000 
     39 O          -2.1160   -5.0055  -14.4085 O.2       1 ALC1        0.0000 
     40 O          -0.8250   -4.2850  -14.3110 O.2       7 ALL1        0.0000 
     41 O          -3.4070   -5.7260  -14.5060 O.2       4 ALP1        0.0000 
     42 N           1.0950   -3.2515  -16.4170 N.am      2 SEC2        0.0000 
     43 N          -0.2320   -2.8430  -15.9750 N.am      8 SEL2        0.0000 
     44 N           2.4220   -3.6600  -16.8590 N.am      5 SEP2        0.0000 
     45 O          -2.8500   -4.7005  -15.2735 O.2       1 ALC1        0.0000 
     46 O          -2.2930   -3.6750  -16.0410 O.2       7 ALL1        0.0000 
     47 O          -5.4800   -3.0730  -27.4910 O.2       1 ALC1        0.0000 
     48 O          -4.7240   -2.7260  -26.1680 O.2       7 ALL1        0.0000 
     49 O          -6.2360   -3.4200  -28.8140 O.2       4 ALP1        0.0000 
     50 CA         -4.7120    3.3230  -22.0205 C.3       3 GLC5        0.0000 
     51 CA         -3.8540    1.4130  -21.4880 C.3       9 GLL5        0.0000 
     52 CA         -5.5700    5.2330  -22.5530 C.3       6 GLP5        0.0000 
     53 CA          1.4600   -6.3433  -14.5485 C.3       3 GLC5        0.0000 
     54 CA         -0.2530   -7.2530  -13.9610 C.3       9 GLL5        0.0000 
     55 CA          2.9350   -5.7790  -15.7030 C.3       6 GLP5        0.0000 
     56 CA         -2.2240   -8.0755  -11.6122 C.3       3 GLC5        0.0000 
     57 CA         -3.7750   -7.3470  -11.2440 C.3       6 GLP5        0.0000 
     58 CA         -1.8749   -6.6990  -12.7850 C.3       3 GLC5        0.0000 
     59 CA          0.2230   -6.5620  -12.8270 C.3       9 GLL5        0.0000 
     60 CA         -3.5920   -6.1720  -12.2170 C.3       6 GLP5        0.0000 
     61 CA         -0.5395   -2.5162  -12.7915 C.3       3 GLC5        0.0000 
     62 CA          0.3300   -4.2660  -13.5560 C.3       9 GLL5        0.0000 
     63 CA         -1.8590   -1.2790  -12.1250 C.3       6 GLP5        0.0000 
     64 CA          1.8575   -4.7662  -14.5805 C.3       3 GLC5        0.0000 
     65 CA         -4.9253   -4.2248  -17.8175 C.3       3 GLC5        0.0000 
     66 CA         -2.7290   -3.2280  -17.2380 C.3       9 GLL5        0.0000 
     67 CA         -6.4640   -5.3980  -18.2630 C.3       6 GLP5        0.0000 
     68 CA         -0.5620   -1.6880  -19.5225 C.3       3 GLC5        0.0000 
     69 CA         -1.8360   -3.2950  -18.3230 C.3       9 GLL5        0.0000 
     70 CA          0.8980   -0.2580  -20.0600 C.3       6 GLP5        0.0000 
     71 CA         -0.7030   -4.6635  -19.5150 C.3       3 GLC5        0.0000 
     72 CA         -2.2080   -2.9410  -19.6470 C.3       9 GLL5        0.0000 
     73 CA          0.6160   -6.2090  -20.0450 C.3       6 GLP5        0.0000 
     74 CA         -2.4121   -1.1846  -17.2701 C.3       3 GLC5        0.0000 
     75 CA         -1.6610    0.6990  -16.8970 C.3       6 GLP5        0.0000 
     76 CA         -5.2248   -3.9743  -18.8170 C.3       3 GLC5        0.0000 
     77 CA         -4.4340   -2.5410  -18.8350 C.3       9 GLL5        0.0000 
     78 CA         -6.0663   -1.3785  -22.8652 C.3       3 GLC5        0.0000 
     79 CA         -3.9750   -1.0100  -21.7130 C.3       9 GLL5        0.0000 
     80 CA         -8.0610   -1.8360  -23.3300 C.3       6 GLP5        0.0000 
     81 CA         -5.6963    0.2870  -22.0042 C.3       3 GLC5        0.0000 
     82 CA         -4.1680   -0.8320  -23.0880 C.3       9 GLL5        0.0000 
     83 CA         -7.3210    1.4950  -21.6080 C.3       6 GLP5        0.0000 
     84 CA         -6.2575   -1.8255  -23.9802 C.3       3 GLC5        0.0000 
     85 CA         -4.3520   -1.9320  -23.9470 C.3       9 GLL5        0.0000 
     86 CA         -6.2149   -0.5929  -25.9754 C.3       3 GLC5        0.0000 
     87 CA         -4.5560   -1.6980  -25.3140 C.3       9 GLL5        0.0000 
     88 CA         -7.9390   -1.0100  -26.6980 C.3       6 GLP5        0.0000 
     89 CA         -5.8148    1.0423  -22.9390 C.3       3 GLC5        0.0000 
     90 CA         -4.4150    0.6950  -24.9490 C.3       9 GLL5        0.0000 
     91 CA         -5.5727    2.0972  -24.6065 C.3       3 GLC5        0.0000 
     92 CA         -4.2020    0.4840  -23.5910 C.3       9 GLL5        0.0000 
     93 CA         -6.8370    3.6050  -24.9430 C.3       6 GLP5        0.0000 
     94 CA         -5.5790    1.1348  -21.4073 C.3       3 GLC5        0.0000 
     95 CA         -2.7025    1.7143  -20.7252 C.3       3 GLC5        0.0000 
     96 CA         -1.5680    2.6540  -20.2440 C.3       6 GLP5        0.0000 
@<TRIPOS>BOND
@<TRIPOS>SUBSTRUCTURE
     1 ALC1       39 GROUP        1 X    ALC  0     ROOT ALC X 1
     2 SEC2       42 GROUP        1 X    SEC  0     **** SEC X 2
     3 GLC5        1 GROUP        1 X    GLC  0     **** GLC X 6
     4 ALP1       41 GROUP        1 Y    ALP  0     ROOT ALP Y 8
     5 SEP2       44 GROUP        1 Y    SEP  0     **** SEP Y 9
     6 GLP5        3 GROUP        1 Y    GLP  0     **** GLP Y 13
     7 ALL1       40 GROUP        1 Z    ALL  0     ROOT ALL Z 15
     8 SEL2       43 GROUP        1 Z    SEL  0     **** SEL Z 16
     9 GLL5        2 GROUP        1 Z    GLL  0     **** GLL Z 20
@<TRIPOS>SET

