#    Name: 3hv3_R49_1_ligand
#    Modification time : Tue Mar 25 15:05:52 2014

@<TRIPOS>MOLECULE
3hv3_R49_1_ligand
   70    74     1     0     0
SMALL
NO_CHARGES


@<TRIPOS>ATOM
      1 CAA        -1.3720   -9.2630  -14.9900 C.3       1 R49361      0.0000 
      2 CBA        -0.8240   -8.5270  -13.7970 C.ar      1 R49361      0.0000 
      3 CAR        -0.2530   -7.2530  -13.9610 C.ar      1 R49361      0.0000 
      4 CAI        -0.9280   -9.1350  -12.5380 C.ar      1 R49361      0.0000 
      5 CAG        -0.4180   -8.4730  -11.4230 C.ar      1 R49361      0.0000 
      6 CAJ         0.1300   -7.1870  -11.5820 C.ar      1 R49361      0.0000 
      7 CBE         0.2230   -6.5620  -12.8270 C.ar      1 R49361      0.0000 
      8 NBK         0.8130   -5.3420  -12.8930 N.pl3     1 R49361      0.0000 
      9 NAV         1.8900   -5.0520  -12.3070 N.2       1 R49361      0.0000 
     10 CBG         2.2050   -3.7500  -12.5710 C.2       1 R49361      0.0000 
     11 CBL         3.4570   -3.0030  -12.0130 C.3       1 R49361      0.0000 
     12 CAC         4.4680   -3.9750  -11.3900 C.3       1 R49361      0.0000 
     13 CAD         4.1840   -2.1340  -13.0660 C.3       1 R49361      0.0000 
     14 CAB         2.9620   -2.0730  -10.8860 C.3       1 R49361      0.0000 
     15 CAS         1.2300   -3.2410  -13.3600 C.2       1 R49361      0.0000 
     16 CBH         0.3300   -4.2660  -13.5560 C.2       1 R49361      0.0000 
     17 NAX        -0.8250   -4.2850  -14.3110 N.am      1 R49361      0.0000 
     18 CAZ        -1.0730   -3.5830  -15.4760 C.2       1 R49361      0.0000 
     19 OAF        -0.2320   -2.8430  -15.9750 O.2       1 R49361      0.0000 
     20 NAW        -2.2930   -3.6750  -16.0410 N.am      1 R49361      0.0000 
     21 CBC        -2.7290   -3.2280  -17.2380 C.ar      1 R49361      0.0000 
     22 CAM        -1.8360   -3.2950  -18.3230 C.ar      1 R49361      0.0000 
     23 CAO        -2.2080   -2.9410  -19.6470 C.ar      1 R49361      0.0000 
     24 CAL        -4.0440   -2.8750  -17.5060 C.ar      1 R49361      0.0000 
     25 CAN        -4.4340   -2.5410  -18.8350 C.ar      1 R49361      0.0000 
     26 CBD        -3.5370   -2.5600  -19.9070 C.ar      1 R49361      0.0000 
     27 NAY        -3.9430   -2.2400  -21.1870 N.pl3     1 R49361      0.0000 
     28 CBF        -3.9750   -1.0100  -21.7130 C.ar      1 R49361      0.0000 
     29 CBJ        -4.1680   -0.8320  -23.0880 C.ar      1 R49361      0.0000 
     30 CAT        -4.3520   -1.9320  -23.9470 C.ar      1 R49361      0.0000 
     31 CBB        -4.5560   -1.6980  -25.3140 C.ar      1 R49361      0.0000 
     32 NAE        -4.7240   -2.7260  -26.1680 N.pl3     1 R49361      0.0000 
     33 CAP        -4.5770   -0.3950  -25.7990 C.ar      1 R49361      0.0000 
     34 CAQ        -4.4150    0.6950  -24.9490 C.ar      1 R49361      0.0000 
     35 CBI        -4.2020    0.4840  -23.5910 C.ar      1 R49361      0.0000 
     36 NAU        -4.0510    1.5620  -22.7920 N.pl3     1 R49361      0.0000 
     37 CAH        -3.8540    1.4130  -21.4880 C.ar      1 R49361      0.0000 
     38 CAK        -3.8200    0.1360  -20.9250 C.ar      1 R49361      0.0000 
     39 H          -0.1829   -6.8331  -14.8840 H         1 R49361      0.0000 
     40 H          -1.3709  -10.0480  -12.4438 H         1 R49361      0.0000 
     41 H          -0.4388   -8.9090  -10.5025 H         1 R49361      0.0000 
     42 H           0.4778   -6.6865  -10.7372 H         1 R49361      0.0000 
     43 H           1.1662   -2.3678  -13.7107 H         1 R49361      0.0000 
     44 H          -1.6254   -4.9189  -13.9525 H         1 R49361      0.0000 
     45 H          -3.0579   -4.1988  -15.4286 H         1 R49361      0.0000 
     46 H          -0.8612   -3.6166  -18.1541 H         1 R49361      0.0000 
     47 H          -1.5194   -2.9645  -20.3920 H         1 R49361      0.0000 
     48 H          -4.7450   -2.8497  -16.7616 H         1 R49361      0.0000 
     49 H          -5.4243   -2.2750  -19.0020 H         1 R49361      0.0000 
     50 H          -4.2593   -3.0660  -21.8049 H         1 R49361      0.0000 
     51 H          -4.3367   -2.8790  -23.5796 H         1 R49361      0.0000 
     52 H          -4.6531   -3.6421  -25.7733 H         1 R49361      0.0000 
     53 H          -4.9046   -2.4816  -27.1207 H         1 R49361      0.0000 
     54 H          -4.7160   -0.2317  -26.8136 H         1 R49361      0.0000 
     55 H          -4.4526    1.6496  -25.3229 H         1 R49361      0.0000 
     56 H          -4.0914    2.5212  -23.2156 H         1 R49361      0.0000 
     57 H          -3.7215    2.2295  -20.8583 H         1 R49361      0.0000 
     58 H          -3.6774    0.0333  -19.9050 H         1 R49361      0.0000 
     59 H          -0.6674   -9.4285  -15.6801 H         1 R49361      0.0000 
     60 H          -1.7485  -10.1539  -14.7360 H         1 R49361      0.0000 
     61 H          -2.1057   -8.7514  -15.4371 H         1 R49361      0.0000 
     62 H           4.7963   -4.6460  -12.0548 H         1 R49361      0.0000 
     63 H           5.2714   -3.4976  -11.0342 H         1 R49361      0.0000 
     64 H           4.0703   -4.4871  -10.6287 H         1 R49361      0.0000 
     65 H           4.9796   -1.6686  -12.6782 H         1 R49361      0.0000 
     66 H           4.5111   -2.6806  -13.8368 H         1 R49361      0.0000 
     67 H           3.5850   -1.4268  -13.4415 H         1 R49361      0.0000 
     68 H           3.7125   -1.5552  -10.4753 H         1 R49361      0.0000 
     69 H           2.2948   -1.4072  -11.2201 H         1 R49361      0.0000 
     70 H           2.5212   -2.5850  -10.1487 H         1 R49361      0.0000 
@<TRIPOS>BOND
     1    2    1 1    
     2   59    1 1    
     3   60    1 1    
     4   61    1 1    
     5    3    2 ar   
     6    4    2 ar   
     7    7    3 ar   
     8   39    3 1    
     9    5    4 ar   
    10   40    4 1    
    11    6    5 ar   
    12   41    5 1    
    13    7    6 ar   
    14   42    6 1    
    15    8    7 1    
    16    9    8 1    
    17   16    8 1    
    18   10    9 2    
    19   11   10 1    
    20   15   10 1    
    21   12   11 1    
    22   13   11 1    
    23   14   11 1    
    24   62   12 1    
    25   63   12 1    
    26   64   12 1    
    27   65   13 1    
    28   66   13 1    
    29   67   13 1    
    30   68   14 1    
    31   69   14 1    
    32   70   14 1    
    33   16   15 2    
    34   43   15 1    
    35   17   16 1    
    36   18   17 am   
    37   44   17 1    
    38   19   18 2    
    39   20   18 am   
    40   21   20 1    
    41   45   20 1    
    42   22   21 ar   
    43   24   21 ar   
    44   23   22 ar   
    45   46   22 1    
    46   26   23 ar   
    47   47   23 1    
    48   25   24 ar   
    49   48   24 1    
    50   26   25 ar   
    51   49   25 1    
    52   27   26 1    
    53   28   27 1    
    54   50   27 1    
    55   29   28 ar   
    56   38   28 ar   
    57   30   29 ar   
    58   35   29 ar   
    59   31   30 ar   
    60   51   30 1    
    61   32   31 1    
    62   33   31 ar   
    63   52   32 1    
    64   53   32 1    
    65   34   33 ar   
    66   54   33 1    
    67   35   34 ar   
    68   55   34 1    
    69   36   35 ar   
    70   37   36 ar   
    71   56   36 1    
    72   38   37 ar   
    73   57   37 1    
    74   58   38 1    
@<TRIPOS>SUBSTRUCTURE
     1 R49361      1 GROUP   
@<TRIPOS>SET

