#    Name: 3g9l_J67_1_INTS_M
#    Modification time : Tue Mar 25 07:23:38 2014

@<TRIPOS>MOLECULE
3g9l_J67_1_INTS_M
   86     0     9     0     0
SMALL
NO_CHARGES


@<TRIPOS>ATOM
      1 N          17.9105    4.7930   32.8210 N.am      2 SEC2        0.0000 
      2 N          17.9830    6.2560   33.0480 N.am      8 SEL2        0.0000 
      3 N          17.8380    3.3300   32.5940 N.am      5 SEP2        0.0000 
      4 O          16.9510    6.0900   33.9565 O.2       1 ALC1        0.0000 
      5 O          17.9830    6.2560   33.0480 O.2       7 ALL1        0.0000 
      6 O          15.9190    5.9240   34.8650 O.2       4 ALP1        0.0000 
      7 N          18.7415    4.2175   31.9505 N.am      2 SEC2        0.0000 
      8 N          19.6450    5.1050   31.3070 N.am      8 SEL2        0.0000 
      9 CA         20.6945    6.8065   29.0740 C.3       3 GLC5        0.0000 
     10 CA         22.0690    5.5860   29.8960 C.3       9 GLL5        0.0000 
     11 CA         19.3200    8.0270   28.2520 C.3       6 GLP5        0.0000 
     12 CA         21.8915    1.9695   34.5495 C.3       3 GLC5        0.0000 
     13 CA         22.9570    2.0100   33.0750 C.3       9 GLL5        0.0000 
     14 CA         20.8260    1.9290   36.0240 C.3       6 GLP5        0.0000 
     15 CA         25.3890    4.3040   33.3275 C.3       3 GLC5        0.0000 
     16 CA         24.7930    3.0290   31.9410 C.3       9 GLL5        0.0000 
     17 CA         25.9850    5.5790   34.7140 C.3       6 GLP5        0.0000 
     18 CA         23.7075    8.7815   32.6860 C.3       3 GLC5        0.0000 
     19 CA         22.8600    9.9510   31.0300 C.3       9 GLL5        0.0000 
     20 CA         24.5550    7.6120   34.3420 C.3       6 GLP5        0.0000 
     21 CA         22.6285   11.5820   33.2435 C.3       3 GLC5        0.0000 
     22 CA         21.8970   10.5100   31.8590 C.3       9 GLL5        0.0000 
     23 CA         23.3600   12.6540   34.6280 C.3       6 GLP5        0.0000 
     24 CA         19.6210    8.9830   34.6885 C.3       3 GLC5        0.0000 
     25 CA         19.7460   10.2870   33.1510 C.3       9 GLL5        0.0000 
     26 CA         19.4960    7.6790   36.2260 C.3       6 GLP5        0.0000 
     27 CA         18.2130   10.5100   31.7650 C.3       3 GLC5        0.0000 
     28 CA         16.6800   10.7330   30.3790 C.3       6 GLP5        0.0000 
     29 CA         19.1730   11.6270   31.2205 C.3       3 GLC5        0.0000 
     30 CA         19.6210   11.6220   33.2210 C.3       9 GLL5        0.0000 
     31 CA         18.7250   11.6320   29.2200 C.3       6 GLP5        0.0000 
     32 CA         18.8225    9.7095   35.7390 C.3       3 GLC5        0.0000 
     33 CA         18.1490   11.7400   35.2520 C.3       9 GLL5        0.0000 
     34 CA         16.4655   10.7155   35.7545 C.3       3 GLC5        0.0000 
     35 CA         17.1780   12.3910   35.9940 C.3       9 GLL5        0.0000 
     36 CA         15.7530    9.0400   35.5150 C.3       6 GLP5        0.0000 
     37 CA         14.8580   13.3870   36.8820 C.3       3 GLC5        0.0000 
     38 CA         16.6360   13.5860   35.5310 C.3       9 GLL5        0.0000 
     39 CA         13.0800   13.1880   38.2330 C.3       6 GLP5        0.0000 
     40 CA         16.2215   11.6320   34.6600 C.3       3 GLC5        0.0000 
     41 CA         15.8070    9.6780   33.7890 C.3       6 GLP5        0.0000 
     42 CA         16.5540   15.5315   35.9155 C.3       3 GLC5        0.0000 
     43 CA         17.0570   14.1440   34.3230 C.3       9 GLL5        0.0000 
     44 CA         16.0510   16.9190   37.5080 C.3       6 GLP5        0.0000 
     45 CA         21.7868    2.6150   30.3848 C.3       3 GLC5        0.0000 
     46 CA         22.5260    3.7480   31.5350 C.3       9 GLL5        0.0000 
     47 CA         20.8080    1.0190   29.6860 C.3       6 GLP5        0.0000 
     48 CA         21.8308    3.7868   33.4698 C.3       3 GLC5        0.0000 
     49 CA         20.6860    4.2370   35.0750 C.3       6 GLP5        0.0000 
     50 CA         23.1626    5.2175   32.9594 C.3       3 GLC5        0.0000 
     51 CA         23.0050    4.6740   30.6320 C.3       9 GLL5        0.0000 
     52 CA         23.2300    6.8670   34.2800 C.3       6 GLP5        0.0000 
     53 CA         21.9995    1.7432   31.1603 C.3       3 GLC5        0.0000 
     54 CA         23.4250    2.9250   32.1940 C.3       9 GLL5        0.0000 
     55 CA         25.4659    5.5996   32.2361 C.3       3 GLC5        0.0000 
     56 CA         25.2620    3.9650   31.0260 C.3       9 GLL5        0.0000 
     57 CA         25.7520    6.7910   33.8530 C.3       6 GLP5        0.0000 
     58 CA         22.8989    4.0122   28.8916 C.3       3 GLC5        0.0000 
     59 CA         24.3620    4.7820   30.3650 C.3       9 GLL5        0.0000 
     60 CA         22.3510    3.4140   27.1510 C.3       6 GLP5        0.0000 
     61 CA         22.7410    7.5473   32.5665 C.3       3 GLC5        0.0000 
     62 CA         21.7240    7.8280   31.0670 C.3       9 GLL5        0.0000 
     63 CA         20.0395   10.8768   30.6482 C.3       3 GLC5        0.0000 
     64 CA         20.8110    9.7330   32.2940 C.3       9 GLL5        0.0000 
     65 CA         22.0027    7.9672   33.1840 C.3       3 GLC5        0.0000 
     66 CA         21.3323   10.3535   34.2713 C.3       3 GLC5        0.0000 
     67 CA         22.3860   10.6970   35.8200 C.3       6 GLP5        0.0000 
     68 CA         17.7452   10.3163   33.4875 C.3       3 GLC5        0.0000 
     69 CA         19.3245   13.1883   35.9510 C.3       3 GLC5        0.0000 
     70 CA         18.5870   12.2930   34.0320 C.3       9 GLL5        0.0000 
     71 CA         20.2810   14.3600   37.2600 C.3       6 GLP5        0.0000 
     72 CA         17.4945   11.8160   32.0900 C.3       3 GLC5        0.0000 
     73 CA         20.5062   11.2729   35.1296 C.3       3 GLC5        0.0000 
     74 CA         18.5940   13.6742   36.5112 C.3       3 GLC5        0.0000 
     75 CA         16.6050   13.9813   37.4382 C.3       3 GLC5        0.0000 
     76 CA         16.3030   14.9740   39.1140 C.3       6 GLP5        0.0000 
     77 CA         15.5202   15.5005   34.6915 C.3       3 GLC5        0.0000 
     78 CA         14.1940   17.1360   34.4560 C.3       6 GLP5        0.0000 
     79 CA         18.9140   14.8882   34.6433 C.3       3 GLC5        0.0000 
     80 CA         20.2840   15.9520   35.3400 C.3       6 GLP5        0.0000 
     81 CA         15.2345   13.2636   34.3914 C.3       3 GLC5        0.0000 
     82 CA         13.4870   12.9610   33.7400 C.3       6 GLP5        0.0000 
     83 CA         17.0033   11.2194   33.9475 C.3       3 GLC5        0.0000 
     84 CA         18.0310   13.5050   33.5700 C.3       9 GLL5        0.0000 
     85 CA         20.4080    8.1709   29.8098 C.3       3 GLC5        0.0000 
     86 CA         20.7400    8.4020   31.8820 C.3       9 GLL5        0.0000 
@<TRIPOS>BOND
@<TRIPOS>SUBSTRUCTURE
     1 ALC1        4 GROUP        1 X    ALC  0     ROOT ALC X 1
     2 SEC2        1 GROUP        1 X    SEC  0     **** SEC X 2
     3 GLC5        9 GROUP        1 X    GLC  0     **** GLC X 6
     4 ALP1        6 GROUP        1 Y    ALP  0     ROOT ALP Y 8
     5 SEP2        3 GROUP        1 Y    SEP  0     **** SEP Y 9
     6 GLP5       11 GROUP        1 Y    GLP  0     **** GLP Y 13
     7 ALL1        5 GROUP        1 Z    ALL  0     ROOT ALL Z 15
     8 SEL2        2 GROUP        1 Z    SEL  0     **** SEL Z 16
     9 GLL5       10 GROUP        1 Z    GLL  0     **** GLL Z 20
@<TRIPOS>SET

