#    Name: 3g9l_J67_1_ligand
#    Modification time : Tue Mar 25 07:23:38 2014

@<TRIPOS>MOLECULE
3g9l_J67_1_ligand
   51    55     1     0     0
SMALL
NO_CHARGES


@<TRIPOS>ATOM
      1 O1         17.9830    6.2560   33.0480 O.3       1 J671        0.0000 
      2 N2         18.7530    7.4310   32.9490 N.2       1 J671        0.0000 
      3 C3         19.7720    7.3550   32.1670 C.2       1 J671        0.0000 
      4 C4         20.2170    6.1770   31.3870 C.2       1 J671        0.0000 
      5 O5         19.6450    5.1050   31.3070 O.2       1 J671        0.0000 
      6 N6         21.3730    6.4990   30.7980 N.am      1 J671        0.0000 
      7 C7         22.0690    5.5860   29.8960 C.3       1 J671        0.0000 
      8 C8         23.0050    4.6740   30.6320 C.ar      1 J671        0.0000 
      9 C9         22.5260    3.7480   31.5350 C.ar      1 J671        0.0000 
     10 C10        23.4250    2.9250   32.1940 C.ar      1 J671        0.0000 
     11 F11        22.9570    2.0100   33.0750 F         1 J671        0.0000 
     12 C12        24.7930    3.0290   31.9410 C.ar      1 J671        0.0000 
     13 C13        25.2620    3.9650   31.0260 C.ar      1 J671        0.0000 
     14 C14        26.7330    4.1040   30.7210 C.3       1 J671        0.0000 
     15 O15        26.8710    4.6480   29.3900 O.3       1 J671        0.0000 
     16 C16        26.1800    5.8900   29.1980 C.3       1 J671        0.0000 
     17 O17        24.7740    5.7130   29.4570 O.3       1 J671        0.0000 
     18 C18        24.3620    4.7820   30.3650 C.ar      1 J671        0.0000 
     19 C19        21.7240    7.8280   31.0670 C.ar      1 J671        0.0000 
     20 C20        22.7800    8.6270   30.6390 C.ar      1 J671        0.0000 
     21 C21        22.8600    9.9510   31.0300 C.ar      1 J671        0.0000 
     22 C22        21.8970   10.5100   31.8590 C.ar      1 J671        0.0000 
     23 C23        20.8110    9.7330   32.2940 C.ar      1 J671        0.0000 
     24 C24        19.7460   10.2870   33.1510 C.2       1 J671        0.0000 
     25 C25        19.6210   11.6220   33.2210 C.2       1 J671        0.0000 
     26 C26        18.5870   12.2930   34.0320 C.ar      1 J671        0.0000 
     27 C27        18.1490   11.7400   35.2520 C.ar      1 J671        0.0000 
     28 C28        17.1780   12.3910   35.9940 C.ar      1 J671        0.0000 
     29 C29        16.6360   13.5860   35.5310 C.ar      1 J671        0.0000 
     30 C30        17.0570   14.1440   34.3230 C.ar      1 J671        0.0000 
     31 C31        18.0310   13.5050   33.5700 C.ar      1 J671        0.0000 
     32 C32        20.7400    8.4020   31.8820 C.ar      1 J671        0.0000 
     33 H          22.6460    6.1548   29.1454 H         1 J671        0.0000 
     34 H          21.3415    4.9709   29.3372 H         1 J671        0.0000 
     35 H          21.5216    3.6677   31.7177 H         1 J671        0.0000 
     36 H          25.4526    2.4127   32.4321 H         1 J671        0.0000 
     37 H          27.1986    3.1212   30.7960 H         1 J671        0.0000 
     38 H          27.1822    4.7620   31.4650 H         1 J671        0.0000 
     39 H          26.3303    6.2549   28.1658 H         1 J671        0.0000 
     40 H          26.5926    6.6643   29.8698 H         1 J671        0.0000 
     41 H          23.5066    8.2249   30.0255 H         1 J671        0.0000 
     42 H          23.6495   10.5364   30.7006 H         1 J671        0.0000 
     43 H          21.9720   11.4885   32.1575 H         1 J671        0.0000 
     44 H          19.1595    9.6298   33.6462 H         1 J671        0.0000 
     45 H          20.2593   12.2636   32.6968 H         1 J671        0.0000 
     46 H          18.5550   10.8577   35.5797 H         1 J671        0.0000 
     47 H          16.8558   11.9943   36.8865 H         1 J671        0.0000 
     48 H          15.9113   14.0687   36.0882 H         1 J671        0.0000 
     49 H          16.6444   15.0255   33.9958 H         1 J671        0.0000 
     50 H          18.3518   13.9014   32.6832 H         1 J671        0.0000 
     51 H          17.2613    6.4742   33.7050 H         1 J671        0.0000 
@<TRIPOS>BOND
     1    2    1 1    
     2   51    1 1    
     3    3    2 2    
     4    4    3 1    
     5   32    3 1    
     6    5    4 2    
     7    6    4 am   
     8    7    6 1    
     9   19    6 1    
    10    8    7 1    
    11   33    7 1    
    12   34    7 1    
    13    9    8 ar   
    14   18    8 ar   
    15   10    9 ar   
    16   35    9 1    
    17   11   10 1    
    18   12   10 ar   
    19   13   12 ar   
    20   36   12 1    
    21   14   13 1    
    22   18   13 ar   
    23   15   14 1    
    24   37   14 1    
    25   38   14 1    
    26   16   15 1    
    27   17   16 1    
    28   39   16 1    
    29   40   16 1    
    30   18   17 1    
    31   20   19 ar   
    32   32   19 ar   
    33   21   20 ar   
    34   41   20 1    
    35   22   21 ar   
    36   42   21 1    
    37   23   22 ar   
    38   43   22 1    
    39   24   23 1    
    40   32   23 ar   
    41   25   24 2    
    42   44   24 1    
    43   26   25 1    
    44   45   25 1    
    45   27   26 ar   
    46   31   26 ar   
    47   28   27 ar   
    48   46   27 1    
    49   29   28 ar   
    50   47   28 1    
    51   30   29 ar   
    52   48   29 1    
    53   31   30 ar   
    54   49   30 1    
    55   50   31 1    
@<TRIPOS>SUBSTRUCTURE
     1 J671        1 GROUP   
@<TRIPOS>SET

