#    Name: 2vut_NAD_3_INTS_M
#    Modification time : Tue Mar 25 02:57:34 2014

@<TRIPOS>MOLECULE
2vut_NAD_3_INTS_M
   70     0    12     0     0
SMALL
NO_CHARGES


@<TRIPOS>ATOM
      1 N         -81.1535  -88.6775  197.5760 N.am      2 SEC2        0.0000 
      2 N         -81.0580  -90.1880  198.3560 N.am     10 SEL2        0.0000 
      3 N         -81.2490  -87.1670  196.7960 N.am      6 SEP2        0.0000 
      4 NZ        -78.8730  -88.0570  197.9215 N.4       3 LYC4        0.0000 
      5 NZ        -78.6820  -89.4610  198.5250 N.4      11 LYL4        0.0000 
      6 NZ        -80.1630  -86.4250  196.6130 N.4       7 LYP4        0.0000 
      7 N         -77.5365  -89.0365  199.3915 N.am      2 SEC2        0.0000 
      8 N         -78.6820  -89.4610  198.5250 N.am     10 SEL2        0.0000 
      9 N         -76.3910  -88.6120  200.2580 N.am      6 SEP2        0.0000 
     10 N         -78.8730  -88.0570  197.9215 N.am      2 SEC2        0.0000 
     11 N         -79.0640  -86.6530  197.3180 N.am      6 SEP2        0.0000 
     12 CA        -77.6075  -92.0595  199.9925 C.3       4 GLC5        0.0000 
     13 CA        -79.0180  -93.1430  199.2030 C.3      12 GLL5        0.0000 
     14 CA        -76.1970  -90.9760  200.7820 C.3       8 GLP5        0.0000 
     15 CA        -80.1965  -93.4705  201.0295 C.3       4 GLC5        0.0000 
     16 CA        -81.3750  -93.7980  202.8560 C.3       8 GLP5        0.0000 
     17 N         -77.6870  -95.0480  200.5675 N.am      2 SEC2        0.0000 
     18 N         -78.0380  -95.3490  199.0770 N.am     10 SEL2        0.0000 
     19 N         -77.3360  -94.7470  202.0580 N.am      6 SEP2        0.0000 
     20 N         -81.6570  -96.5235  197.0990 N.am      2 SEC2        0.0000 
     21 N         -80.4000  -96.6400  196.5410 N.am     10 SEL2        0.0000 
     22 N         -82.9140  -96.4070  197.6570 N.am      6 SEP2        0.0000 
     23 CA        -81.6625 -100.5525  201.9860 C.3       4 GLC5        0.0000 
     24 CA        -80.3930 -100.7170  200.3930 C.3      12 GLL5        0.0000 
     25 CA        -82.9320 -100.3880  203.5790 C.3       8 GLP5        0.0000 
     26 CA        -78.6995 -100.8900  197.8195 C.3       4 GLC5        0.0000 
     27 CA        -80.4060 -100.4740  197.8560 C.3      12 GLL5        0.0000 
     28 CA        -76.9930 -101.3060  197.7830 C.3       8 GLP5        0.0000 
     29 N         -77.4730  -87.9360  202.4465 N.am      2 SEC2        0.0000 
     30 N         -78.6220  -88.9070  202.3040 N.am     10 SEL2        0.0000 
     31 N         -76.3240  -86.9650  202.5890 N.am      6 SEP2        0.0000 
     32 N         -80.5365  -86.9095  201.6130 N.am      2 SEC2        0.0000 
     33 N         -80.3730  -88.0320  200.8860 N.am     10 SEL2        0.0000 
     34 N         -80.7000  -85.7870  202.3400 N.am      6 SEP2        0.0000 
     35 N         -80.1715  -89.5835  203.9740 N.am      2 SEC2        0.0000 
     36 N         -80.9070  -89.8120  202.5600 N.am     10 SEL2        0.0000 
     37 N         -79.4360  -89.3550  205.3880 N.am      6 SEP2        0.0000 
     38 N         -85.0290  -91.0260  205.5945 N.am      2 SEC2        0.0000 
     39 N         -85.0980  -90.9800  204.0230 N.am     10 SEL2        0.0000 
     40 N         -84.9600  -91.0720  207.1660 N.am      6 SEP2        0.0000 
     41 O         -87.8090  -89.6450  204.2655 O.2       1 ALC1        0.0000 
     42 O         -86.7770  -88.9120  203.2540 O.2       9 ALL1        0.0000 
     43 O         -88.8410  -90.3780  205.2770 O.2       5 ALP1        0.0000 
     44 N         -84.2005  -81.8950  199.5065 N.am      2 SEC2        0.0000 
     45 N         -85.0460  -83.0290  199.8500 N.am     10 SEL2        0.0000 
     46 N         -83.3550  -80.7610  199.1630 N.am      6 SEP2        0.0000 
     47 N         -84.7895  -82.8140  198.3950 N.am      2 SEC2        0.0000 
     48 N         -84.5330  -82.5990  196.9400 N.am      6 SEP2        0.0000 
     49 O         -84.0395  -84.7715  197.5715 O.2       1 ALC1        0.0000 
     50 O         -84.5430  -85.0990  198.9960 O.2       9 ALL1        0.0000 
     51 O         -83.5360  -84.4440  196.1470 O.2       5 ALP1        0.0000 
     52 CA        -85.2595  -81.8645  201.4855 C.3       4 GLC5        0.0000 
     53 CA        -85.2100  -83.7430  202.5990 C.3      12 GLL5        0.0000 
     54 CA        -85.3090  -79.9860  200.3720 C.3       8 GLP5        0.0000 
     55 CA        -86.8630  -84.0825  204.8790 C.3       4 GLC5        0.0000 
     56 CA        -85.2770  -84.1740  203.9020 C.3      12 GLL5        0.0000 
     57 CA        -88.4490  -83.9910  205.8560 C.3       8 GLP5        0.0000 
     58 CA        -86.0955  -84.9305  205.6710 C.3       4 GLC5        0.0000 
     59 CA        -85.0350  -85.6020  204.2170 C.3      12 GLL5        0.0000 
     60 CA        -87.1560  -84.2590  207.1250 C.3       8 GLP5        0.0000 
     61 CA        -78.3376 -100.2895  199.4621 C.3       4 GLC5        0.0000 
     62 CA        -79.7660  -99.3230  200.3620 C.3      12 GLL5        0.0000 
     63 CA        -76.8620 -101.2070  199.1270 C.3       8 GLP5        0.0000 
     64 CA        -82.0365  -91.8893  202.7880 C.3       4 GLC5        0.0000 
     65 CA        -82.1900  -90.2490  202.1960 C.3      12 GLL5        0.0000 
     66 CA        -85.2880  -89.2434  205.1980 C.3       4 GLC5        0.0000 
     67 CA        -84.6520  -90.1350  202.9510 C.3      12 GLL5        0.0000 
     68 CA        -85.7920  -89.8430  207.1440 C.3       8 GLP5        0.0000 
     69 CA        -83.8561  -83.7651  204.6699 C.3       4 GLC5        0.0000 
     70 CA        -82.5730  -82.7500  205.6060 C.3       8 GLP5        0.0000 
@<TRIPOS>BOND
@<TRIPOS>SUBSTRUCTURE
     1 ALC1       41 GROUP        1 X    ALC  0     ROOT ALC X 1
     2 SEC2        1 GROUP        1 X    SEC  0     **** SEC X 2
     3 LYC4        4 GROUP        1 X    LYC  0     **** LYC X 4
     4 GLC5       12 GROUP        1 X    GLC  0     **** GLC X 6
     5 ALP1       43 GROUP        1 Y    ALP  0     ROOT ALP Y 8
     6 SEP2        3 GROUP        1 Y    SEP  0     **** SEP Y 9
     7 LYP4        6 GROUP        1 Y    LYP  0     **** LYP Y 11
     8 GLP5       14 GROUP        1 Y    GLP  0     **** GLP Y 13
     9 ALL1       42 GROUP        1 Z    ALL  0     ROOT ALL Z 15
    10 SEL2        2 GROUP        1 Z    SEL  0     **** SEL Z 16
    11 LYL4        5 GROUP        1 Z    LYL  0     **** LYL Z 18
    12 GLL5       13 GROUP        1 Z    GLL  0     **** GLL Z 20
@<TRIPOS>SET

