#    Name: 2vut_NAD_3_ligand
#    Modification time : Tue Mar 25 02:57:34 2014

@<TRIPOS>MOLECULE
2vut_NAD_3_ligand
   70    74     1     0     0
SMALL
NO_CHARGES


@<TRIPOS>ATOM
      1 PA        -79.7080  -90.5010  198.9060 P.3       1 NAD1355     0.0000 
      2 O1A       -81.0580  -90.1880  198.3560 O.co2     1 NAD1355     0.0000 
      3 O2A       -78.6820  -89.4610  198.5250 O.co2     1 NAD1355     0.0000 
      4 O5B       -79.2310  -91.9740  198.3530 O.3       1 NAD1355     0.0000 
      5 C5B       -79.0180  -93.1430  199.2030 C.3       1 NAD1355     0.0000 
      6 C4B       -78.3010  -94.1280  198.3140 C.3       1 NAD1355     0.0000 
      7 O4B       -78.0380  -95.3490  199.0770 O.3       1 NAD1355     0.0000 
      8 C3B       -79.0880  -94.6100  197.0740 C.3       1 NAD1355     0.0000 
      9 O3B       -78.1940  -94.8280  195.9340 O.3       1 NAD1355     0.0000 
     10 C2B       -79.7750  -95.8760  197.5860 C.3       1 NAD1355     0.0000 
     11 O2B       -80.4000  -96.6400  196.5410 O.3       1 NAD1355     0.0000 
     12 C1B       -78.5930  -96.5390  198.3540 C.3       1 NAD1355     0.0000 
     13 N9A       -78.9790  -97.4910  199.4310 N.pl3     1 NAD1355     0.0000 
     14 C8A       -78.8410  -97.3210  200.7900 C.2       1 NAD1355     0.0000 
     15 N7A       -79.3540  -98.5190  201.3790 N.2       1 NAD1355     0.0000 
     16 C5A       -79.7660  -99.3230  200.3620 C.ar      1 NAD1355     0.0000 
     17 C6A       -80.3930 -100.7170  200.3930 C.ar      1 NAD1355     0.0000 
     18 N6A       -80.6550 -101.4310  201.6250 N.pl3     1 NAD1355     0.0000 
     19 N1A       -80.7160 -101.2820  199.0060 N.ar      1 NAD1355     0.0000 
     20 C2A       -80.4060 -100.4740  197.8560 C.ar      1 NAD1355     0.0000 
     21 N3A       -79.8660  -99.2970  197.9930 N.ar      1 NAD1355     0.0000 
     22 C4A       -79.5470  -98.7240  199.2170 C.ar      1 NAD1355     0.0000 
     23 O3        -79.5600  -90.4080  200.4970 O.3       1 NAD1355     0.0000 
     24 PN        -79.8490  -89.2710  201.5500 P.3       1 NAD1355     0.0000 
     25 O1N       -78.6220  -88.9070  202.3040 O.co2     1 NAD1355     0.0000 
     26 O2N       -80.3730  -88.0320  200.8860 O.co2     1 NAD1355     0.0000 
     27 O5D       -80.9070  -89.8120  202.5600 O.3       1 NAD1355     0.0000 
     28 C5D       -82.1900  -90.2490  202.1960 C.3       1 NAD1355     0.0000 
     29 C4D       -83.2060  -89.7120  203.2440 C.3       1 NAD1355     0.0000 
     30 O4D       -83.2070  -88.2580  203.2530 O.3       1 NAD1355     0.0000 
     31 C3D       -84.6520  -90.1350  202.9510 C.3       1 NAD1355     0.0000 
     32 O3D       -85.0980  -90.9800  204.0230 O.3       1 NAD1355     0.0000 
     33 C2D       -85.4140  -88.8080  202.8170 C.3       1 NAD1355     0.0000 
     34 O2D       -86.7770  -88.9120  203.2540 O.3       1 NAD1355     0.0000 
     35 C1D       -84.5350  -87.8160  203.6200 C.3       1 NAD1355     0.0000 
     36 N1N       -84.7600  -86.4010  203.2160 N.pl3     1 NAD1355     0.0000 
     37 C2N       -84.6690  -86.0140  201.7880 C.ar      1 NAD1355     0.0000 
     38 C3N       -84.8950  -84.6930  201.4830 C.ar      1 NAD1355     0.0000 
     39 C7N       -84.8380  -84.1990  200.0850 C.2       1 NAD1355     0.0000 
     40 O7N       -85.0460  -83.0290  199.8500 O.2       1 NAD1355     0.0000 
     41 N7N       -84.5430  -85.0990  198.9960 N.am      1 NAD1355     0.0000 
     42 C4N       -85.2100  -83.7430  202.5990 C.ar      1 NAD1355     0.0000 
     43 C5N       -85.2770  -84.1740  203.9020 C.ar      1 NAD1355     0.0000 
     44 C6N       -85.0350  -85.6020  204.2170 C.ar      1 NAD1355     0.0000 
     45 H         -79.9511  -93.5670  199.5196 H         1 NAD1355     0.0000 
     46 H         -78.3930  -92.9037  200.0414 H         1 NAD1355     0.0000 
     47 H         -77.3641  -93.7211  197.9779 H         1 NAD1355     0.0000 
     48 H         -79.8406  -93.8762  196.8789 H         1 NAD1355     0.0000 
     49 H         -80.4738  -95.5384  198.3529 H         1 NAD1355     0.0000 
     50 H         -77.8915  -96.8994  197.6968 H         1 NAD1355     0.0000 
     51 H         -78.4948  -96.5990  201.2548 H         1 NAD1355     0.0000 
     52 H         -80.3976 -100.9610  202.4693 H         1 NAD1355     0.0000 
     53 H         -81.0717 -102.3350  201.5296 H         1 NAD1355     0.0000 
     54 H         -80.6396 -100.8896  196.9289 H         1 NAD1355     0.0000 
     55 H         -82.2846  -91.3361  202.1929 H         1 NAD1355     0.0000 
     56 H         -82.5091  -89.8697  201.2238 H         1 NAD1355     0.0000 
     57 H         -82.9348  -90.0873  204.2147 H         1 NAD1355     0.0000 
     58 H         -84.6480  -90.6237  202.0026 H         1 NAD1355     0.0000 
     59 H         -85.3282  -88.5161  201.7711 H         1 NAD1355     0.0000 
     60 H         -84.7145  -87.9810  204.6446 H         1 NAD1355     0.0000 
     61 H         -84.4509  -86.7176  201.1180 H         1 NAD1355     0.0000 
     62 H         -84.4822  -84.6855  198.0875 H         1 NAD1355     0.0000 
     63 H         -84.4239  -86.0613  199.2404 H         1 NAD1355     0.0000 
     64 H         -85.3691  -82.7689  202.3308 H         1 NAD1355     0.0000 
     65 H         -85.4876  -83.5558  204.6788 H         1 NAD1355     0.0000 
     66 H         -85.0984  -85.8678  205.1904 H         1 NAD1355     0.0000 
     67 H         -77.4872  -94.1261  196.0216 H         1 NAD1355     0.0000 
     68 H         -80.3291  -97.5920  196.8387 H         1 NAD1355     0.0000 
     69 H         -85.1515  -91.8960  203.6252 H         1 NAD1355     0.0000 
     70 H         -86.7939  -89.7057  203.8620 H         1 NAD1355     0.0000 
@<TRIPOS>BOND
     1    2    1 ar   
     2    3    1 ar   
     3    4    1 1    
     4   23    1 1    
     5    5    4 1    
     6    6    5 1    
     7   45    5 1    
     8   46    5 1    
     9    7    6 1    
    10    8    6 1    
    11   47    6 1    
    12   12    7 1    
    13    9    8 1    
    14   10    8 1    
    15   48    8 1    
    16   67    9 1    
    17   11   10 1    
    18   12   10 1    
    19   49   10 1    
    20   68   11 1    
    21   13   12 1    
    22   50   12 1    
    23   14   13 1    
    24   22   13 1    
    25   15   14 2    
    26   51   14 1    
    27   16   15 1    
    28   17   16 ar   
    29   22   16 ar   
    30   18   17 1    
    31   19   17 ar   
    32   52   18 1    
    33   53   18 1    
    34   20   19 ar   
    35   21   20 ar   
    36   54   20 1    
    37   22   21 ar   
    38   24   23 1    
    39   25   24 ar   
    40   26   24 ar   
    41   27   24 1    
    42   28   27 1    
    43   29   28 1    
    44   55   28 1    
    45   56   28 1    
    46   30   29 1    
    47   31   29 1    
    48   57   29 1    
    49   35   30 1    
    50   32   31 1    
    51   33   31 1    
    52   58   31 1    
    53   69   32 1    
    54   34   33 1    
    55   35   33 1    
    56   59   33 1    
    57   70   34 1    
    58   36   35 1    
    59   60   35 1    
    60   37   36 ar   
    61   44   36 ar   
    62   38   37 ar   
    63   61   37 1    
    64   39   38 1    
    65   42   38 ar   
    66   40   39 2    
    67   41   39 am   
    68   62   41 1    
    69   63   41 1    
    70   43   42 ar   
    71   64   42 1    
    72   44   43 ar   
    73   65   43 1    
    74   66   44 1    
@<TRIPOS>SUBSTRUCTURE
     1 NAD1355     1 GROUP   
@<TRIPOS>SET

