#    Name: 1oya_FMN_1_INTS_M
#    Modification time : Mon Mar 24 20:45:38 2014

@<TRIPOS>MOLECULE
1oya_FMN_1_INTS_M
   84     0    12     0     0
SMALL
NO_CHARGES


@<TRIPOS>ATOM
      1 N          37.4225   68.6620   25.0275 N.am      2 SEC2        0.0000 
      2 N          36.9330   68.1300   23.6300 N.am     10 SEL2        0.0000 
      3 N          37.9120   69.1940   26.4250 N.am      6 SEP2        0.0000 
      4 N          36.6765   66.7635   23.5610 N.am      2 SEC2        0.0000 
      5 N          36.4200   65.3970   23.4920 N.am      6 SEP2        0.0000 
      6 O          35.9490   70.2750   24.8395 O.2       1 ALC1        0.0000 
      7 O          35.3490   69.7040   23.7170 O.2       9 ALL1        0.0000 
      8 O          36.5490   70.8460   25.9620 O.2       5 ALP1        0.0000 
      9 N          32.2985   71.5785   23.4425 N.am      2 SEC2        0.0000 
     10 N          33.8970   71.4090   23.6550 N.am     10 SEL2        0.0000 
     11 N          30.7000   71.7480   23.2300 N.am      6 SEP2        0.0000 
     12 N          33.3215   72.5425   23.1140 N.am      2 SEC2        0.0000 
     13 N          32.7460   73.6760   22.5730 N.am      6 SEP2        0.0000 
     14 N          33.8755   72.3770   25.0175 N.am      2 SEC2        0.0000 
     15 N          33.8540   73.3450   26.3800 N.am      6 SEP2        0.0000 
     16 N          31.5585   70.9145   22.3705 N.am      2 SEC2        0.0000 
     17 N          32.4170   70.0810   21.5110 N.am     10 SEL2        0.0000 
     18 CA         30.4425   71.5005   21.5320 C.3       4 GLC5        0.0000 
     19 CA         30.4640   69.8470   20.1860 C.3      12 GLL5        0.0000 
     20 CA         30.4210   73.1540   22.8780 C.3       8 GLP5        0.0000 
     21 CA         29.2215   69.7305   16.9675 C.3       4 GLC5        0.0000 
     22 CA         28.2800   69.5470   18.9320 C.3      12 GLL5        0.0000 
     23 CA         30.1630   69.9140   15.0030 C.3       8 GLP5        0.0000 
     24 CA         26.7975   68.6425   19.9780 C.3       4 GLC5        0.0000 
     25 CA         25.3150   67.7380   21.0240 C.3       8 GLP5        0.0000 
     26 CA         27.1390   69.1760   17.6340 C.3       4 GLC5        0.0000 
     27 CA         25.9980   68.8050   16.3360 C.3       8 GLP5        0.0000 
     28 CA         28.5995   71.4915   18.7220 C.3       4 GLC5        0.0000 
     29 CA         28.9190   73.4360   18.5120 C.3       8 GLP5        0.0000 
     30 CA         29.6805   68.3770   16.5655 C.3       4 GLC5        0.0000 
     31 CA         29.1980   66.8400   18.1280 C.3      12 GLL5        0.0000 
     32 CA         28.1400   65.4035   18.1890 C.3       4 GLC5        0.0000 
     33 CA         27.0820   63.9670   18.2500 C.3       8 GLP5        0.0000 
     34 CA         27.5330   67.1280   17.1815 C.3       4 GLC5        0.0000 
     35 CA         25.8680   67.4160   16.2350 C.3       8 GLP5        0.0000 
     36 CA         32.2520   66.3580   18.0240 C.3       4 GLC5        0.0000 
     37 CA         31.2530   67.2140   19.5300 C.3      12 GLL5        0.0000 
     38 CA         33.2510   65.5020   16.5180 C.3       8 GLP5        0.0000 
     39 CA         33.4115   65.7715   18.6580 C.3       4 GLC5        0.0000 
     40 CA         33.5720   66.0410   20.7980 C.3      12 GLL5        0.0000 
     41 CA         31.0825   65.9540   22.1905 C.3       4 GLC5        0.0000 
     42 CA         32.8190   65.0880   21.7500 C.3      12 GLL5        0.0000 
     43 CA         29.3460   66.8200   22.6310 C.3       8 GLP5        0.0000 
     44 N          34.8290   65.3495   23.2980 N.am      2 SEC2        0.0000 
     45 N          33.2380   65.3020   23.1040 N.am     10 SEL2        0.0000 
     46 N          34.5515   64.3235   23.7040 N.am      2 SEC2        0.0000 
     47 N          35.8650   63.3450   24.3040 N.am      6 SEP2        0.0000 
     48 O          32.8005   66.5805   23.7605 O.2       1 ALC1        0.0000 
     49 O          33.2380   65.3020   23.1040 O.2       9 ALL1        0.0000 
     50 O          32.3630   67.8590   24.4170 O.2       5 ALP1        0.0000 
     51 N          35.4180   64.3400   22.5365 N.am      2 SEC2        0.0000 
     52 N          34.4160   63.2830   21.5810 N.am     10 SEL2        0.0000 
     53 N          35.1405   63.3140   22.9425 N.am      2 SEC2        0.0000 
     54 CA         32.9495   64.4370   18.2215 C.3       4 GLC5        0.0000 
     55 CA         32.6480   63.3720   19.9250 C.3      12 GLL5        0.0000 
     56 CA         33.3420   61.5710   17.7015 C.3       4 GLC5        0.0000 
     57 CA         32.6120   61.8710   19.5980 C.3      12 GLL5        0.0000 
     58 CA         34.0720   61.2710   15.8050 C.3       8 GLP5        0.0000 
     59 CA         33.0795   59.9620   19.7445 C.3       4 GLC5        0.0000 
     60 CA         33.5470   58.0530   19.8910 C.3       8 GLP5        0.0000 
     61 NZ         30.2040   60.4730   17.4675 N.4       3 LYC4        0.0000 
     62 NZ         30.3470   59.9030   18.8570 N.4      11 LYL4        0.0000 
     63 NZ         29.1730   62.0310   15.8920 N.4       7 LYP4        0.0000 
     64 N          30.8825   58.6320   18.8915 N.am      2 SEC2        0.0000 
     65 N          30.3470   59.9030   18.8570 N.am     10 SEL2        0.0000 
     66 N          31.4180   57.3610   18.9260 N.am      6 SEP2        0.0000 
     67 N          30.2040   60.4730   17.4675 N.am      2 SEC2        0.0000 
     68 N          30.0610   61.0430   16.0780 N.am      6 SEP2        0.0000 
     69 NZ         28.9755   62.2715   18.3800 N.4       3 LYC4        0.0000 
     70 NZ         29.3820   61.9990   19.7920 N.4      11 LYL4        0.0000 
     71 N          28.2620   62.5635   20.4410 N.am      2 SEC2        0.0000 
     72 N          29.3820   61.9990   19.7920 N.am     10 SEL2        0.0000 
     73 N          27.1420   63.1280   21.0900 N.am      6 SEP2        0.0000 
     74 N          28.9755   62.2715   18.3800 N.am      2 SEC2        0.0000 
     75 N          28.5690   62.5440   16.9680 N.am      6 SEP2        0.0000 
     76 N          29.1795   60.7720   22.3330 N.am      2 SEC2        0.0000 
     77 N          29.6070   60.0570   21.2280 N.am     10 SEL2        0.0000 
     78 N          28.7520   61.4870   23.4380 N.am      6 SEP2        0.0000 
     79 CA         30.6455   69.5617   22.3080 C.3       4 GLC5        0.0000 
     80 CA         31.6780   69.3120   20.6840 C.3      12 GLL5        0.0000 
     81 CA         30.2200   69.5440   24.1810 C.3       8 GLP5        0.0000 
     82 CA         29.5813   67.5950   20.9292 C.3       4 GLC5        0.0000 
     83 CA         29.6060   69.0290   19.4100 C.3      12 GLL5        0.0000 
     84 CA         30.5070   67.2092   21.2907 C.3       4 GLC5        0.0000 
@<TRIPOS>BOND
@<TRIPOS>SUBSTRUCTURE
     1 ALC1        6 GROUP        1 X    ALC  0     ROOT ALC X 1
     2 SEC2        1 GROUP        1 X    SEC  0     **** SEC X 2
     3 LYC4       61 GROUP        1 X    LYC  0     **** LYC X 4
     4 GLC5       18 GROUP        1 X    GLC  0     **** GLC X 6
     5 ALP1        8 GROUP        1 Y    ALP  0     ROOT ALP Y 8
     6 SEP2        3 GROUP        1 Y    SEP  0     **** SEP Y 9
     7 LYP4       63 GROUP        1 Y    LYP  0     **** LYP Y 11
     8 GLP5       20 GROUP        1 Y    GLP  0     **** GLP Y 13
     9 ALL1        7 GROUP        1 Z    ALL  0     ROOT ALL Z 15
    10 SEL2        2 GROUP        1 Z    SEL  0     **** SEL Z 16
    11 LYL4       62 GROUP        1 Z    LYL  0     **** LYL Z 18
    12 GLL5       19 GROUP        1 Z    GLL  0     **** GLL Z 20
@<TRIPOS>SET

