#    Name: 1oya_FMN_1_ligand
#    Modification time : Mon Mar 24 20:45:39 2014

@<TRIPOS>MOLECULE
1oya_FMN_1_ligand
   50    52     1     0     0
SMALL
NO_CHARGES


@<TRIPOS>ATOM
      1 N1         35.1790   67.8050   22.3250 N.2       1 FMN401      0.0000 
      2 C2         35.8480   68.5050   23.2240 C.2       1 FMN401      0.0000 
      3 O2         36.9330   68.1300   23.6300 O.2       1 FMN401      0.0000 
      4 N3         35.3490   69.7040   23.7170 N.am      1 FMN401      0.0000 
      5 C4         34.2440   70.3330   23.1480 C.2       1 FMN401      0.0000 
      6 O4         33.8970   71.4090   23.6550 O.2       1 FMN401      0.0000 
      7 C4A        33.5560   69.6010   22.0780 C.2       1 FMN401      0.0000 
      8 N5         32.4170   70.0810   21.5110 N.2       1 FMN401      0.0000 
      9 C5A        31.6780   69.3120   20.6840 C.ar      1 FMN401      0.0000 
     10 C6         30.4640   69.8470   20.1860 C.ar      1 FMN401      0.0000 
     11 C7         29.6060   69.0290   19.4100 C.ar      1 FMN401      0.0000 
     12 C7M        28.2800   69.5470   18.9320 C.3       1 FMN401      0.0000 
     13 C8         30.0270   67.7110   19.0450 C.ar      1 FMN401      0.0000 
     14 C8M        29.1980   66.8400   18.1280 C.3       1 FMN401      0.0000 
     15 C9         31.2530   67.2140   19.5300 C.ar      1 FMN401      0.0000 
     16 C9A        32.0830   67.9830   20.3710 C.ar      1 FMN401      0.0000 
     17 N10        33.2470   67.4880   20.9370 N.pl3     1 FMN401      0.0000 
     18 C10        34.0270   68.2810   21.7600 C.2       1 FMN401      0.0000 
     19 C1'        33.5720   66.0410   20.7980 C.3       1 FMN401      0.0000 
     20 C2'        32.8190   65.0880   21.7500 C.3       1 FMN401      0.0000 
     21 O2'        33.2380   65.3020   23.1040 O.3       1 FMN401      0.0000 
     22 C3'        33.0360   63.6350   21.3840 C.3       1 FMN401      0.0000 
     23 O3'        34.4160   63.2830   21.5810 O.3       1 FMN401      0.0000 
     24 C4'        32.6480   63.3720   19.9250 C.3       1 FMN401      0.0000 
     25 O4'        31.3680   63.9080   19.7140 O.3       1 FMN401      0.0000 
     26 C5'        32.6120   61.8710   19.5980 C.3       1 FMN401      0.0000 
     27 O5'        31.5970   61.1850   20.4770 O.3       1 FMN401      0.0000 
     28 P          30.1940   60.8150   19.9540 P.3       1 FMN401      0.0000 
     29 O1P        30.3470   59.9030   18.8570 O.co2     1 FMN401      0.0000 
     30 O2P        29.3820   61.9990   19.7920 O.co2     1 FMN401      0.0000 
     31 O3P        29.6070   60.0570   21.2280 O.co2     1 FMN401      0.0000 
     32 H          35.8142   70.1477   24.5372 H         1 FMN401      0.0000 
     33 H          30.2105   70.8111   20.3842 H         1 FMN401      0.0000 
     34 H          31.5519   66.2610   19.2625 H         1 FMN401      0.0000 
     35 H          34.6631   65.8827   20.9537 H         1 FMN401      0.0000 
     36 H          33.3698   65.7074   19.7551 H         1 FMN401      0.0000 
     37 H          31.7529   65.3042   21.6503 H         1 FMN401      0.0000 
     38 H          32.3966   63.0240   22.0113 H         1 FMN401      0.0000 
     39 H          33.3810   63.8395   19.2907 H         1 FMN401      0.0000 
     40 H          33.5973   61.4508   19.7712 H         1 FMN401      0.0000 
     41 H          32.3437   61.7461   18.5541 H         1 FMN401      0.0000 
     42 H          28.3841   70.3546   18.3515 H         1 FMN401      0.0000 
     43 H          27.7852   68.8628   18.3962 H         1 FMN401      0.0000 
     44 H          27.6868   69.8080   19.6936 H         1 FMN401      0.0000 
     45 H          29.0642   67.2651   17.2328 H         1 FMN401      0.0000 
     46 H          29.6293   65.9519   17.9693 H         1 FMN401      0.0000 
     47 H          28.2897   66.6613   18.5063 H         1 FMN401      0.0000 
     48 H          32.8242   66.1732   23.3682 H         1 FMN401      0.0000 
     49 H          34.8923   63.6456   20.7800 H         1 FMN401      0.0000 
     50 H          30.7446   63.1310   19.8011 H         1 FMN401      0.0000 
@<TRIPOS>BOND
     1    2    1 1    
     2   18    1 2    
     3    3    2 2    
     4    4    2 am   
     5    5    4 am   
     6   32    4 1    
     7    6    5 2    
     8    7    5 1    
     9    8    7 2    
    10   18    7 1    
    11    9    8 1    
    12   10    9 ar   
    13   16    9 ar   
    14   11   10 ar   
    15   33   10 1    
    16   12   11 1    
    17   13   11 ar   
    18   42   12 1    
    19   43   12 1    
    20   44   12 1    
    21   14   13 1    
    22   15   13 ar   
    23   45   14 1    
    24   46   14 1    
    25   47   14 1    
    26   16   15 ar   
    27   34   15 1    
    28   17   16 1    
    29   18   17 1    
    30   19   17 1    
    31   20   19 1    
    32   35   19 1    
    33   36   19 1    
    34   21   20 1    
    35   22   20 1    
    36   37   20 1    
    37   48   21 1    
    38   23   22 1    
    39   24   22 1    
    40   38   22 1    
    41   49   23 1    
    42   25   24 1    
    43   26   24 1    
    44   39   24 1    
    45   50   25 1    
    46   27   26 1    
    47   40   26 1    
    48   41   26 1    
    49   28   27 1    
    50   29   28 ar   
    51   30   28 ar   
    52   31   28 ar   
@<TRIPOS>SUBSTRUCTURE
     1 FMN401      1 GROUP   
@<TRIPOS>SET

