#    Name: 3jq9_AX1_2_INTS_M
#    Modification time : Tue Mar 25 17:43:17 2014

@<TRIPOS>MOLECULE
3jq9_AX1_2_INTS_M
   40     0     6     0     0
SMALL
NO_CHARGES


@<TRIPOS>ATOM
      1 CA          1.0560   16.1255   59.1765 C.3       2 GLC5        0.0000 
      2 CA          2.9240   17.3650   59.3580 C.3       6 GLL5        0.0000 
      3 CA         -0.8120   14.8860   58.9950 C.3       4 GLP5        0.0000 
      4 CA          0.1110   16.4270   58.6685 C.3       2 GLC5        0.0000 
      5 CA          1.0340   17.9680   58.3420 C.3       6 GLL5        0.0000 
      6 CA          1.9955   18.8935   57.1225 C.3       2 GLC5        0.0000 
      7 CA          2.9570   19.8190   55.9030 C.3       4 GLP5        0.0000 
      8 CA          0.6935   19.9815   58.4185 C.3       2 GLC5        0.0000 
      9 CA          0.3530   21.9950   58.4950 C.3       4 GLP5        0.0000 
     10 CA          0.5890   17.0710   60.1375 C.3       2 GLC5        0.0000 
     11 CA          2.3630   18.4450   60.0470 C.3       6 GLL5        0.0000 
     12 CA         -1.1850   15.6970   60.2280 C.3       4 GLP5        0.0000 
     13 CA          2.3330   19.8340   62.8620 C.3       2 GLC5        0.0000 
     14 CA          3.1110   19.1220   61.0000 C.3       6 GLL5        0.0000 
     15 CA          1.5550   20.5460   64.7240 C.3       4 GLP5        0.0000 
     16 O           6.9165   14.7915   60.1080 O.2       1 ALC1        0.0000 
     17 O           6.9150   16.0900   60.6540 O.2       5 ALL1        0.0000 
     18 O           6.9180   13.4930   59.5620 O.2       3 ALP1        0.0000 
     19 CA          8.6765   14.4760   62.2105 C.3       2 GLC5        0.0000 
     20 CA          8.1990   16.1470   61.0470 C.3       6 GLL5        0.0000 
     21 CA          9.1540   12.8050   63.3740 C.3       4 GLP5        0.0000 
     22 O          11.5445   13.3085   60.7110 O.2       1 ALC1        0.0000 
     23 O          11.3820   14.5850   61.4780 O.2       5 ALL1        0.0000 
     24 O          11.7070   12.0320   59.9440 O.2       3 ALP1        0.0000 
     25 O          12.2790   15.7010   62.0940 O.2       1 ALC1        0.0000 
     26 O          13.1760   16.8170   62.7100 O.2       3 ALP1        0.0000 
     27 O          10.1720   13.3900   61.8000 O.2       1 ALC1        0.0000 
     28 O           8.9620   12.1950   62.1220 O.2       3 ALP1        0.0000 
     29 O          11.9535   16.8020   62.3455 O.2       1 ALC1        0.0000 
     30 O          10.7310   16.7870   61.9810 O.2       5 ALL1        0.0000 
     31 CA          7.9075   19.4490   60.1085 C.3       2 GLC5        0.0000 
     32 CA          7.0670   19.4850   61.7630 C.3       6 GLL5        0.0000 
     33 CA          8.7480   19.4130   58.4540 C.3       4 GLP5        0.0000 
     34 CA          7.8635   21.3400   62.1100 C.3       2 GLC5        0.0000 
     35 CA          8.6600   23.1950   62.4570 C.3       4 GLP5        0.0000 
     36 CA          6.7850   17.7840   63.0780 C.3       2 GLC5        0.0000 
     37 CA          6.5030   16.0830   64.3930 C.3       4 GLP5        0.0000 
     38 CA          2.8003   18.8620   57.8027 C.3       2 GLC5        0.0000 
     39 CA          9.8745   16.7445   59.8270 C.3       2 GLC5        0.0000 
     40 CA         11.4200   16.7000   58.3680 C.3       4 GLP5        0.0000 
@<TRIPOS>BOND
@<TRIPOS>SUBSTRUCTURE
     1 ALC1       16 GROUP        1 X    ALC  0     ROOT ALC X 1
     2 GLC5        1 GROUP        1 X    GLC  0     **** GLC X 6
     3 ALP1       18 GROUP        1 Y    ALP  0     ROOT ALP Y 8
     4 GLP5        3 GROUP        1 Y    GLP  0     **** GLP Y 13
     5 ALL1       17 GROUP        1 Z    ALL  0     ROOT ALL Z 15
     6 GLL5        2 GROUP        1 Z    GLL  0     **** GLL Z 20
@<TRIPOS>SET

