#    Name: 3jq9_AX1_2_ligand
#    Modification time : Tue Mar 25 17:43:17 2014

@<TRIPOS>MOLECULE
3jq9_AX1_2_ligand
   31    34     1     0     0
SMALL
NO_CHARGES


@<TRIPOS>ATOM
      1 CAG         4.2360   16.9620   59.6300 C.ar      1 AX1270      0.0000 
      2 CAQ         2.9240   17.3650   59.3580 C.ar      1 AX1270      0.0000 
      3 OAM         1.9880   16.8890   58.4810 O.3       1 AX1270      0.0000 
      4 CAH         1.0340   17.9680   58.3420 C.3       1 AX1270      0.0000 
      5 OAL         1.0850   18.6390   59.6130 O.3       1 AX1270      0.0000 
      6 CAP         2.3630   18.4450   60.0470 C.ar      1 AX1270      0.0000 
      7 CAF         3.1110   19.1220   61.0000 C.ar      1 AX1270      0.0000 
      8 CAE         4.4160   18.7170   61.2600 C.ar      1 AX1270      0.0000 
      9 CAO         4.9940   17.6410   60.5840 C.ar      1 AX1270      0.0000 
     10 CAS         6.3150   17.2610   60.8570 C.2       1 AX1270      0.0000 
     11 NAK         6.9150   16.0900   60.6540 N.pl3     1 AX1270      0.0000 
     12 CAU         8.1990   16.1470   61.0470 C.2       1 AX1270      0.0000 
     13 NAI         9.1830   15.2210   61.0450 N.2       1 AX1270      0.0000 
     14 CAN        10.4250   15.5090   61.4920 C.2       1 AX1270      0.0000 
     15 NAB        11.3820   14.5850   61.4780 N.pl3     1 AX1270      0.0000 
     16 NAJ        10.7310   16.7870   61.9810 N.am      1 AX1270      0.0000 
     17 CAT         9.7280   17.7650   61.9990 C.2       1 AX1270      0.0000 
     18 OAC         9.9870   18.8920   62.4260 O.2       1 AX1270      0.0000 
     19 CAV         8.4590   17.4310   61.5250 C.2       1 AX1270      0.0000 
     20 CAR         7.2690   18.1170   61.3950 C.2       1 AX1270      0.0000 
     21 CAD         7.0670   19.4850   61.7630 C.1       1 AX1270      0.0000 
     22 NAA         6.8980   20.5730   62.0540 N.1       1 AX1270      0.0000 
     23 H           4.6402   16.1641   59.1250 H         1 AX1270      0.0000 
     24 H           0.0451   17.5761   58.1538 H         1 AX1270      0.0000 
     25 H           1.3298   18.6334   57.5441 H         1 AX1270      0.0000 
     26 H           2.7063   19.9143   61.5090 H         1 AX1270      0.0000 
     27 H           4.9745   19.2248   61.9723 H         1 AX1270      0.0000 
     28 H           6.4861   15.2927   60.2714 H         1 AX1270      0.0000 
     29 H          11.1314   13.6978   61.0908 H         1 AX1270      0.0000 
     30 H          12.2658   14.8611   61.8559 H         1 AX1270      0.0000 
     31 H          11.6672   17.0003   62.3175 H         1 AX1270      0.0000 
@<TRIPOS>BOND
     1    2    1 ar   
     2    9    1 ar   
     3   23    1 1    
     4    3    2 1    
     5    6    2 ar   
     6    4    3 1    
     7    5    4 1    
     8   24    4 1    
     9   25    4 1    
    10    6    5 1    
    11    7    6 ar   
    12    8    7 ar   
    13   26    7 1    
    14    9    8 ar   
    15   27    8 1    
    16   10    9 1    
    17   11   10 1    
    18   20   10 2    
    19   12   11 1    
    20   28   11 1    
    21   13   12 1    
    22   19   12 2    
    23   14   13 2    
    24   15   14 1    
    25   16   14 1    
    26   29   15 1    
    27   30   15 1    
    28   17   16 am   
    29   31   16 1    
    30   18   17 2    
    31   19   17 1    
    32   20   19 1    
    33   21   20 1    
    34   22   21 3    
@<TRIPOS>SUBSTRUCTURE
     1 AX1270      1 GROUP   
@<TRIPOS>SET

