#    Name: 3ZWO_3_CAVITY_N1_6.mol2
#    Modification time : Tue Mar 11 15:45:20 2014

@<TRIPOS>MOLECULE
3ZWO_3_CAVITY_N1_6.mol2
   68     0     6     0     0
SMALL
NO_CHARGES


@<TRIPOS>ATOM
      1 NZ        -28.8045  -24.3428   43.3459 N.2       3 LYS4        0.0000 
      2 N         -30.8340  -24.7853   42.9153 N.2       2 ALA2        0.0000 
      3 NZ        -29.5127  -25.1986   42.3379 N.2       3 LYS4        0.0000 
      4 OG        -28.1915  -25.6119   41.7605 O.2       1 SER1        0.0000 
      5 CA        -26.8702  -26.0252   41.1830 C.3       5 GLY6        0.0000 
      6 CZ        -30.2210  -26.0544   41.3299 C.ar      4 PHE5        0.0000 
      7 NZ        -28.8997  -26.4677   40.7525 N.2       3 LYS4        0.0000 
      8 CA        -27.5784  -26.8810   40.1751 C.3       5 GLY6        0.0000 
      9 CA        -31.2401  -28.1582   48.2967 C.3       5 GLY6        0.0000 
     10 O         -29.9188  -28.5715   47.7192 O.2       2 ALA2        0.0000 
     11 CZ        -28.5976  -28.9848   47.1418 C.ar      4 PHE5        0.0000 
     12 N         -30.0741  -25.0900   44.8723 N.2       2 ALA2        0.0000 
     13 CA        -28.7528  -25.5033   44.2948 C.3       5 GLY6        0.0000 
     14 N         -30.7823  -25.9458   43.8643 N.2       2 ALA2        0.0000 
     15 CA        -29.4610  -26.3591   43.2869 C.3       5 GLY6        0.0000 
     16 CA        -28.1397  -26.7724   42.7094 C.3       5 GLY6        0.0000 
     17 CZ        -26.8185  -27.1857   42.1320 C.ar      4 PHE5        0.0000 
     18 CA        -25.4972  -27.5990   41.5546 C.3       5 GLY6        0.0000 
     19 N         -31.4905  -26.8017   42.8563 N.2       2 ALA2        0.0000 
     20 CZ        -30.1692  -27.2149   42.2789 C.ar      4 PHE5        0.0000 
     21 CZ        -28.8479  -27.6282   41.7015 C.ar      4 PHE5        0.0000 
     22 NZ        -27.5267  -28.0415   41.1240 N.2       3 LYS4        0.0000 
     23 CZ        -26.2054  -28.4548   40.5466 C.ar      4 PHE5        0.0000 
     24 NZ        -28.2349  -28.8973   40.1161 N.2       3 LYS4        0.0000 
     25 CZ        -26.9136  -29.3106   39.5386 C.ar      4 PHE5        0.0000 
     26 NZ        -30.8858  -23.6248   41.9664 N.2       3 LYS4        0.0000 
     27 NZ        -29.5645  -24.0381   41.3889 N.2       3 LYS4        0.0000 
     28 CA        -28.2432  -24.4514   40.8115 C.3       5 GLY6        0.0000 
     29 O         -30.2727  -24.8939   40.3810 O.2       2 ALA2        0.0000 
     30 NZ        -28.9514  -25.3072   39.8035 N.2       3 LYS4        0.0000 
     31 OG        -31.2919  -26.9977   47.3477 O.2       1 SER1        0.0000 
     32 O         -29.9706  -27.4110   46.7702 O.2       2 ALA2        0.0000 
     33 CA        -32.0001  -27.8536   46.3397 C.3       5 GLY6        0.0000 
     34 DU        -30.6788  -28.2668   45.7623 H         6 CUB7        0.0000 
     35 CA        -29.3575  -28.6801   45.1848 C.3       5 GLY6        0.0000 
     36 CZ        -28.0362  -29.0934   44.6074 C.ar      4 PHE5        0.0000 
     37 CZ        -26.7150  -29.5067   44.0300 C.ar      4 PHE5        0.0000 
     38 CZ        -25.3937  -29.9200   43.4525 C.ar      4 PHE5        0.0000 
     39 O         -32.7083  -28.7094   45.3317 O.2       2 ALA2        0.0000 
     40 CZ        -31.3870  -29.1227   44.7543 C.ar      4 PHE5        0.0000 
     41 CZ        -30.0657  -29.5359   44.1769 C.ar      4 PHE5        0.0000 
     42 DU        -28.7445  -29.9492   43.5994 H         6 CUB7        0.0000 
     43 DU        -27.4232  -30.3625   43.0220 H         6 CUB7        0.0000 
     44 CZ        -30.7739  -30.3918   43.1689 C.ar      4 PHE5        0.0000 
     45 O         -31.9483  -29.0141   47.2887 O.2       2 ALA2        0.0000 
     46 DU        -30.6270  -29.4273   46.7112 H         6 CUB7        0.0000 
     47 CZ        -29.3058  -29.8406   46.1338 C.ar      4 PHE5        0.0000 
     48 CZ        -25.3420  -31.0805   44.4015 C.ar      4 PHE5        0.0000 
     49 O         -32.6565  -29.8699   46.2807 O.2       2 ALA2        0.0000 
     50 DU        -31.3353  -30.2832   45.7033 H         6 CUB7        0.0000 
     51 DU        -30.0140  -30.6964   45.1258 H         6 CUB7        0.0000 
     52 O         -29.8671  -29.7320   48.6682 O.2       2 ALA2        0.0000 
     53 CZ        -28.5458  -30.1453   48.0908 C.ar      4 PHE5        0.0000 
     54 O         -31.8966  -30.1746   48.2377 O.2       2 ALA2        0.0000 
     55 DU        -30.5753  -30.5878   47.6602 H         6 CUB7        0.0000 
     56 CA        -30.0223  -26.2505   45.8213 C.3       5 GLY6        0.0000 
     57 N         -30.7305  -27.1063   44.8133 N.2       2 ALA2        0.0000 
     58 CA        -29.4093  -27.5196   44.2359 C.3       5 GLY6        0.0000 
     59 CZ        -28.0880  -27.9329   43.6584 C.ar      4 PHE5        0.0000 
     60 CZ        -26.7667  -28.3462   43.0810 C.ar      4 PHE5        0.0000 
     61 CZ        -31.4387  -27.9622   43.8053 C.ar      4 PHE5        0.0000 
     62 CZ        -30.1175  -28.3754   43.2279 C.ar      4 PHE5        0.0000 
     63 CZ        -28.7962  -28.7887   42.6504 C.ar      4 PHE5        0.0000 
     64 DU        -27.4749  -29.2020   42.0730 H         6 CUB7        0.0000 
     65 CA        -26.1536  -29.6153   41.4956 C.3       5 GLY6        0.0000 
     66 CZ        -29.5044  -29.6445   41.6425 C.ar      4 PHE5        0.0000 
     67 DU        -28.1831  -30.0578   41.0650 H         6 CUB7        0.0000 
     68 CZ        -26.8619  -30.4711   40.4876 C.ar      4 PHE5        0.0000 
@<TRIPOS>BOND
@<TRIPOS>SUBSTRUCTURE
     1 SER1        4 GROUP   
     2 ALA2        2 GROUP   
     3 LYS4        1 GROUP   
     4 PHE5        6 GROUP   
     5 GLY6        5 GROUP   
     6 CUB7       34 GROUP   
@<TRIPOS>SET

