#    Name: 3zwo_G2Q_3_INTS_M
#    Modification time : Tue Mar 25 04:02:54 2014

@<TRIPOS>MOLECULE
3zwo_G2Q_3_INTS_M
   66     0     9     0     0
SMALL
NO_CHARGES


@<TRIPOS>ATOM
      1 O         -28.8895  -28.1630   37.8155 O.2       1 ALC1        0.0000 
      2 O         -28.3840  -29.2540   37.8770 O.2       7 ALL1        0.0000 
      3 O         -29.3950  -27.0720   37.7540 O.2       4 ALP1        0.0000 
      4 O         -28.4485  -30.3025   36.5640 O.2       1 ALC1        0.0000 
      5 O         -28.5130  -31.3510   35.2510 O.2       4 ALP1        0.0000 
      6 CA        -24.9045  -29.8345   40.9885 C.3       3 GLC5        0.0000 
      7 CA        -26.6710  -31.0570   40.4040 C.3       9 GLL5        0.0000 
      8 CA        -23.1380  -28.6120   41.5730 C.3       6 GLP5        0.0000 
      9 N         -26.1790  -33.4980   36.1545 N.am      2 SEC2        0.0000 
     10 N         -26.0440  -33.1860   37.5430 N.am      8 SEL2        0.0000 
     11 N         -26.3140  -33.8100   34.7660 N.am      5 SEP2        0.0000 
     12 CA        -25.1595  -29.1520   44.0730 C.3       3 GLC5        0.0000 
     13 CA        -26.4660  -30.3400   42.9220 C.3       9 GLL5        0.0000 
     14 CA        -23.8530  -27.9640   45.2240 C.3       6 GLP5        0.0000 
     15 N         -32.1375  -25.3665   47.2050 N.am      2 SEC2        0.0000 
     16 N         -30.9170  -25.7610   46.9370 N.am      8 SEL2        0.0000 
     17 N         -33.3580  -24.9720   47.4730 N.am      5 SEP2        0.0000 
     18 N         -29.9120  -24.6940   47.2800 N.am      2 SEC2        0.0000 
     19 N         -28.9070  -23.6270   47.6230 N.am      5 SEP2        0.0000 
     20 CA        -30.2615  -26.5315   41.0275 C.3       3 GLC5        0.0000 
     21 CA        -28.6920  -25.1460   41.7180 C.3       9 GLL5        0.0000 
     22 CA        -31.8310  -27.9170   40.3370 C.3       6 GLP5        0.0000 
     23 CA        -27.4945  -24.8685   40.1935 C.3       3 GLC5        0.0000 
     24 CA        -26.2970  -24.5910   38.6690 C.3       6 GLP5        0.0000 
     25 CA        -25.9725  -27.9925   43.7980 C.3       3 GLC5        0.0000 
     26 CA        -26.9860  -29.0000   42.3830 C.3       9 GLL5        0.0000 
     27 CA        -24.9590  -26.9850   45.2130 C.3       6 GLP5        0.0000 
     28 N         -34.2160  -29.6195   45.6155 N.am      2 SEC2        0.0000 
     29 N         -33.1810  -30.3380   45.4010 N.am      8 SEL2        0.0000 
     30 N         -35.2510  -28.9010   45.8300 N.am      5 SEP2        0.0000 
     31 N         -28.8735  -27.1280   48.0240 N.am      2 SEC2        0.0000 
     32 N         -29.6230  -28.0980   47.4990 N.am      8 SEL2        0.0000 
     33 N         -28.1240  -26.1580   48.5490 N.am      5 SEP2        0.0000 
     34 CA        -29.0615  -23.8740   39.3685 C.3       3 GLC5        0.0000 
     35 CA        -29.9570  -24.3330   41.2900 C.3       9 GLL5        0.0000 
     36 CA        -28.1660  -23.4150   37.4470 C.3       6 GLP5        0.0000 
     37 O         -28.8780  -22.4840   41.8415 O.2       1 ALC1        0.0000 
     38 O         -29.5110  -23.0120   40.9600 O.2       7 ALL1        0.0000 
     39 O         -28.2450  -21.9560   42.7230 O.2       4 ALP1        0.0000 
     40 CA        -30.3030  -29.0435   41.9220 C.3       3 GLC5        0.0000 
     41 CA        -28.5040  -29.1330   42.6420 C.3       9 GLL5        0.0000 
     42 CA        -32.1020  -28.9540   41.2020 C.3       6 GLP5        0.0000 
     43 N         -33.5840  -28.5880   46.0630 N.am      2 SEC2        0.0000 
     44 N         -31.9170  -28.2750   46.2960 N.am      8 SEL2        0.0000 
     45 CA        -32.1125  -22.6025   42.2395 C.3       3 GLC5        0.0000 
     46 CA        -30.9110  -24.3690   42.4920 C.3       9 GLL5        0.0000 
     47 CA        -33.3140  -20.8360   41.9870 C.3       6 GLP5        0.0000 
     48 N         -32.5595  -23.0635   42.9375 N.am      2 SEC2        0.0000 
     49 N         -31.0890  -23.0940   43.0600 N.am      8 SEL2        0.0000 
     50 N         -34.0300  -23.0330   42.8150 N.am      5 SEP2        0.0000 
     51 O         -29.6670  -22.5250   42.8915 O.2       1 ALC1        0.0000 
     52 O         -31.0890  -23.0940   43.0600 O.2       7 ALL1        0.0000 
     53 CA        -27.3455  -28.4950   45.0825 C.3       3 GLC5        0.0000 
     54 CA        -28.5780  -29.8530   44.0450 C.3       9 GLL5        0.0000 
     55 CA        -26.1130  -27.1370   46.1200 C.3       6 GLP5        0.0000 
     56 CA        -31.9885  -27.6995   43.0175 C.3       3 GLC5        0.0000 
     57 CA        -30.8010  -26.5380   43.8700 C.3       9 GLL5        0.0000 
     58 CA        -33.1760  -28.8610   42.1650 C.3       6 GLP5        0.0000 
     59 CA        -32.7350  -26.5495   44.9640 C.3       3 GLC5        0.0000 
     60 CA        -34.6690  -26.5610   46.0580 C.3       6 GLP5        0.0000 
     61 CA        -24.9320  -29.1410   42.1128 C.3       3 GLC5        0.0000 
     62 CA        -31.5073  -25.7683   41.5650 C.3       3 GLC5        0.0000 
     63 CA        -32.7100  -26.7660   40.3870 C.3       6 GLP5        0.0000 
     64 CA        -28.8390  -25.9720   44.9627 C.3       3 GLC5        0.0000 
     65 CA        -30.1750  -25.1900   43.5950 C.3       9 GLL5        0.0000 
     66 CA        -27.1900  -26.0800   46.1930 C.3       6 GLP5        0.0000 
@<TRIPOS>BOND
@<TRIPOS>SUBSTRUCTURE
     1 ALC1        1 GROUP        1 X    ALC  0     ROOT ALC X 1
     2 SEC2        9 GROUP        1 X    SEC  0     **** SEC X 2
     3 GLC5        6 GROUP        1 X    GLC  0     **** GLC X 6
     4 ALP1        3 GROUP        1 Y    ALP  0     ROOT ALP Y 8
     5 SEP2       11 GROUP        1 Y    SEP  0     **** SEP Y 9
     6 GLP5        8 GROUP        1 Y    GLP  0     **** GLP Y 13
     7 ALL1        2 GROUP        1 Z    ALL  0     ROOT ALL Z 15
     8 SEL2       10 GROUP        1 Z    SEL  0     **** SEL Z 16
     9 GLL5        7 GROUP        1 Z    GLL  0     **** GLL Z 20
@<TRIPOS>SET

