#    Name: 3zwo_G2Q_3_ligand
#    Modification time : Tue Mar 25 04:02:54 2014

@<TRIPOS>MOLECULE
3zwo_G2Q_3_ligand
   57    60     1     0     0
SMALL
NO_CHARGES


@<TRIPOS>ATOM
      1 N1        -27.2310  -31.2270   37.6860 N.2       1 G2Q301      0.0000 
      2 C2        -27.6840  -30.1730   38.4810 C.2       1 G2Q301      0.0000 
      3 N2        -28.3840  -29.2540   37.8770 N.pl3     1 G2Q301      0.0000 
      4 N3        -27.3980  -30.0850   39.7990 N.pl3     1 G2Q301      0.0000 
      5 C4        -26.6710  -31.0570   40.4040 C.2       1 G2Q301      0.0000 
      6 C5        -26.1990  -32.1570   39.6700 C.2       1 G2Q301      0.0000 
      7 C6        -26.4640  -32.2620   38.2780 C.2       1 G2Q301      0.0000 
      8 O6        -26.0440  -33.1860   37.5430 O.2       1 G2Q301      0.0000 
      9 N7        -25.5150  -32.9530   40.5450 N.2       1 G2Q301      0.0000 
     10 C8        -25.5480  -32.4030   41.7390 C.2       1 G2Q301      0.0000 
     11 N9        -26.2420  -31.2470   41.6750 N.pl3     1 G2Q301      0.0000 
     12 PA        -31.8880  -29.9510   45.9350 P.3       1 G2Q301      0.0000 
     13 PB        -30.5400  -27.2190   46.5860 P.3       1 G2Q301      0.0000 
     14 C1'       -26.4660  -30.3400   42.9220 C.3       1 G2Q301      0.0000 
     15 O1A       -31.2530  -30.5900   47.1340 O.co2     1 G2Q301      0.0000 
     16 O1B       -30.9170  -25.7610   46.9370 O.co2     1 G2Q301      0.0000 
     17 C1X       -28.6920  -25.1460   41.7180 C.3       1 G2Q301      0.0000 
     18 C2'       -26.9860  -29.0000   42.3830 C.3       1 G2Q301      0.0000 
     19 O2'       -26.4100  -27.9480   43.1340 O.3       1 G2Q301      0.0000 
     20 O2A       -33.1810  -30.3380   45.4010 O.co2     1 G2Q301      0.0000 
     21 O2B       -29.6230  -28.0980   47.4990 O.co2     1 G2Q301      0.0000 
     22 C2X       -29.9570  -24.3330   41.2900 C.3       1 G2Q301      0.0000 
     23 O2X       -29.5110  -23.0120   40.9600 O.3       1 G2Q301      0.0000 
     24 C3'       -28.5040  -29.1330   42.6420 C.3       1 G2Q301      0.0000 
     25 O3'       -29.0180  -27.7960   42.5660 O.3       1 G2Q301      0.0000 
     26 O3A       -31.9170  -28.2750   46.2960 O.3       1 G2Q301      0.0000 
     27 C3X       -30.9110  -24.3690   42.4920 C.3       1 G2Q301      0.0000 
     28 O3X       -31.0890  -23.0940   43.0600 O.3       1 G2Q301      0.0000 
     29 C4'       -28.5780  -29.8530   44.0450 C.3       1 G2Q301      0.0000 
     30 O4'       -27.4520  -30.7950   44.0200 O.3       1 G2Q301      0.0000 
     31 C4X       -30.1750  -25.1900   43.5950 C.3       1 G2Q301      0.0000 
     32 O4X       -28.7090  -25.2840   43.1890 O.3       1 G2Q301      0.0000 
     33 C5'       -29.7130  -30.8640   44.5030 C.3       1 G2Q301      0.0000 
     34 O5'       -30.9470  -30.2090   44.5690 O.3       1 G2Q301      0.0000 
     35 C5X       -30.8010  -26.5380   43.8700 C.3       1 G2Q301      0.0000 
     36 O5X       -30.0450  -27.2540   44.9730 O.3       1 G2Q301      0.0000 
     37 H         -28.9027  -29.5517   37.0755 H         1 G2Q301      0.0000 
     38 H         -28.3379  -28.3359   38.2707 H         1 G2Q301      0.0000 
     39 H         -27.7354  -29.2703   40.3528 H         1 G2Q301      0.0000 
     40 H         -25.1420  -32.7578   42.5538 H         1 G2Q301      0.0000 
     41 H         -25.4998  -30.1255   43.3730 H         1 G2Q301      0.0000 
     42 H         -27.8208  -24.6016   41.3851 H         1 G2Q301      0.0000 
     43 H         -28.7386  -26.1097   41.2331 H         1 G2Q301      0.0000 
     44 H         -26.8201  -28.9712   41.3559 H         1 G2Q301      0.0000 
     45 H         -30.3938  -24.8461   40.4740 H         1 G2Q301      0.0000 
     46 H         -28.8816  -29.7878   41.9039 H         1 G2Q301      0.0000 
     47 H         -31.7881  -24.8699   42.2513 H         1 G2Q301      0.0000 
     48 H         -28.3852  -29.1661   44.8372 H         1 G2Q301      0.0000 
     49 H         -30.2166  -24.5784   44.5110 H         1 G2Q301      0.0000 
     50 H         -29.3822  -31.2668   45.4682 H         1 G2Q301      0.0000 
     51 H         -29.6941  -31.6839   43.7745 H         1 G2Q301      0.0000 
     52 H         -30.7756  -27.1430   42.9643 H         1 G2Q301      0.0000 
     53 H         -31.8386  -26.4027   44.1734 H         1 G2Q301      0.0000 
     54 H         -26.2948  -28.3205   44.0549 H         1 G2Q301      0.0000 
     55 H         -28.6466  -22.9008   41.4503 H         1 G2Q301      0.0000 
     56 H         -28.2448  -27.2077   42.8029 H         1 G2Q301      0.0000 
     57 H         -30.3745  -22.5265   42.6508 H         1 G2Q301      0.0000 
@<TRIPOS>BOND
     1    2    1 2    
     2    7    1 1    
     3    3    2 1    
     4    4    2 1    
     5   37    3 1    
     6   38    3 1    
     7    5    4 1    
     8   39    4 1    
     9    6    5 2    
    10   11    5 1    
    11    7    6 1    
    12    9    6 1    
    13    8    7 2    
    14   10    9 2    
    15   11   10 1    
    16   40   10 1    
    17   14   11 1    
    18   15   12 ar   
    19   20   12 ar   
    20   26   12 1    
    21   34   12 1    
    22   16   13 ar   
    23   21   13 ar   
    24   26   13 1    
    25   36   13 1    
    26   18   14 1    
    27   30   14 1    
    28   41   14 1    
    29   22   17 1    
    30   32   17 1    
    31   42   17 1    
    32   43   17 1    
    33   19   18 1    
    34   24   18 1    
    35   44   18 1    
    36   54   19 1    
    37   23   22 1    
    38   27   22 1    
    39   45   22 1    
    40   55   23 1    
    41   25   24 1    
    42   29   24 1    
    43   46   24 1    
    44   56   25 1    
    45   28   27 1    
    46   31   27 1    
    47   47   27 1    
    48   57   28 1    
    49   30   29 1    
    50   33   29 1    
    51   48   29 1    
    52   32   31 1    
    53   35   31 1    
    54   49   31 1    
    55   34   33 1    
    56   50   33 1    
    57   51   33 1    
    58   36   35 1    
    59   52   35 1    
    60   53   35 1    
@<TRIPOS>SUBSTRUCTURE
     1 G2Q301      1 GROUP   
@<TRIPOS>SET

