#    Name: 3ds6_A17_4_INTS_M
#    Modification time : Tue Mar 25 00:02:17 2014

@<TRIPOS>MOLECULE
3ds6_A17_4_INTS_M
   86     0     6     0     0
SMALL
NO_CHARGES


@<TRIPOS>ATOM
      1 CA         35.2845   52.8405  119.3325 C.3       2 GLC5        0.0000 
      2 CA         36.6560   53.0900  117.5960 C.3       6 GLL5        0.0000 
      3 CA         33.9130   52.5910  121.0690 C.3       4 GLP5        0.0000 
      4 CA         36.7315   52.5055  120.3565 C.3       2 GLC5        0.0000 
      5 CA         37.5640   53.5470  118.6540 C.3       6 GLL5        0.0000 
      6 CA         35.8990   51.4640  122.0590 C.3       4 GLP5        0.0000 
      7 CA         37.1370   57.9445  116.2325 C.3       2 GLC5        0.0000 
      8 CA         35.7280   56.4110  115.9750 C.3       6 GLL5        0.0000 
      9 CA         38.5460   59.4780  116.4900 C.3       4 GLP5        0.0000 
     10 CA         33.8330   57.3015  115.6360 C.3       2 GLC5        0.0000 
     11 CA         31.9380   58.1920  115.2970 C.3       4 GLP5        0.0000 
     12 CA         35.4365   56.9540  113.9350 C.3       2 GLC5        0.0000 
     13 CA         35.1450   57.4970  111.8950 C.3       4 GLP5        0.0000 
     14 CA         40.0250   57.4775  118.2955 C.3       2 GLC5        0.0000 
     15 CA         40.1520   55.6570  119.4620 C.3       6 GLL5        0.0000 
     16 CA         39.8980   59.2980  117.1290 C.3       4 GLP5        0.0000 
     17 N          43.8010   55.5210  117.7355 N.am      1 SEC2        0.0000 
     18 N          42.7780   56.3460  118.6890 N.am      5 SEL2        0.0000 
     19 N          44.8240   54.6960  116.7820 N.am      3 SEP2        0.0000 
     20 CA         37.8740   57.6645  117.1730 C.3       2 GLC5        0.0000 
     21 CA         37.2020   55.8510  117.8560 C.3       6 GLL5        0.0000 
     22 N          33.7445   56.4340  114.1835 N.am      1 SEC2        0.0000 
     23 N          34.8250   55.9930  114.9720 N.am      5 SEL2        0.0000 
     24 N          32.6640   56.8750  113.3950 N.am      3 SEP2        0.0000 
     25 N          33.5560   55.7060  114.0670 N.am      1 SEC2        0.0000 
     26 N          34.4480   54.5370  114.7390 N.am      5 SEL2        0.0000 
     27 N          33.2030   54.4180  113.7295 N.am      1 SEC2        0.0000 
     28 N          31.9580   54.2990  112.7200 N.am      3 SEP2        0.0000 
     29 CA         36.9580   55.2665  123.0360 C.3       2 GLC5        0.0000 
     30 CA         36.9570   56.0280  121.5990 C.3       6 GLL5        0.0000 
     31 CA         36.9590   54.5050  124.4730 C.3       4 GLP5        0.0000 
     32 CA         45.6680   58.3460  118.1650 C.3       2 GLC5        0.0000 
     33 CA         45.4440   57.3600  119.7710 C.3       6 GLL5        0.0000 
     34 CA         45.8920   59.3320  116.5590 C.3       4 GLP5        0.0000 
     35 CA         45.5575   56.4830  122.9705 C.3       2 GLC5        0.0000 
     36 CA         45.8630   56.9320  121.0920 C.3       6 GLL5        0.0000 
     37 CA         45.2520   56.0340  124.8490 C.3       4 GLP5        0.0000 
     38 CA         47.7985   57.8815  121.5450 C.3       2 GLC5        0.0000 
     39 CA         49.7340   58.8310  121.9980 C.3       4 GLP5        0.0000 
     40 CA         32.3140   51.2835  117.3430 C.3       2 GLC5        0.0000 
     41 CA         33.3950   51.7800  115.7570 C.3       6 GLL5        0.0000 
     42 CA         31.2330   50.7870  118.9290 C.3       4 GLP5        0.0000 
     43 CA         32.1620   53.5815  115.9500 C.3       2 GLC5        0.0000 
     44 CA         30.9290   55.3830  116.1430 C.3       4 GLP5        0.0000 
     45 CA         37.2345   50.2190  114.8505 C.3       2 GLC5        0.0000 
     46 CA         36.7180   51.5510  113.7400 C.3       6 GLL5        0.0000 
     47 CA         37.7510   48.8870  115.9610 C.3       4 GLP5        0.0000 
     48 CA         37.5105   50.6360  112.0530 C.3       2 GLC5        0.0000 
     49 CA         38.3030   49.7210  110.3660 C.3       4 GLP5        0.0000 
     50 CA         37.0545   53.3050  112.8670 C.3       2 GLC5        0.0000 
     51 CA         37.3910   55.0590  111.9940 C.3       4 GLP5        0.0000 
     52 CA         38.2905   52.7855  114.3545 C.3       2 GLC5        0.0000 
     53 CA         39.8630   54.0200  114.9690 C.3       4 GLP5        0.0000 
     54 CA         34.4895   56.2240  117.8255 C.3       2 GLC5        0.0000 
     55 CA         36.2980   55.3750  116.8130 C.3       6 GLL5        0.0000 
     56 CA         32.9660   56.5550  119.2570 C.3       4 GLP5        0.0000 
     57 CA         37.9997   54.3425  115.8447 C.3       2 GLC5        0.0000 
     58 CA         37.8330   51.6863  118.7875 C.3       2 GLC5        0.0000 
     59 CA         38.5560   50.0540  119.4500 C.3       4 GLP5        0.0000 
     60 CA         38.4865   53.6693  116.5470 C.3       2 GLC5        0.0000 
     61 CA         41.8927   57.9447  121.8423 C.3       2 GLC5        0.0000 
     62 CA         41.1380   56.1770  120.3920 C.3       6 GLL5        0.0000 
     63 CA         42.8420   59.5010  122.6250 C.3       4 GLP5        0.0000 
     64 CA         40.2820   57.3270  123.6505 C.3       2 GLC5        0.0000 
     65 CA         39.3390   56.4780  122.0750 C.3       6 GLL5        0.0000 
     66 CA         40.5200   58.1150  125.4000 C.3       4 GLP5        0.0000 
     67 CA         38.6985   54.7155  116.6515 C.3       2 GLC5        0.0000 
     68 CA         37.8660   54.9710  118.8120 C.3       6 GLL5        0.0000 
     69 CA         39.5254   55.0057  122.8734 C.3       2 GLC5        0.0000 
     70 CA         39.2570   53.6010  124.0770 C.3       4 GLP5        0.0000 
     71 CA         37.7454   58.1442  121.1359 C.3       2 GLC5        0.0000 
     72 CA         37.5930   60.1640  120.6660 C.3       4 GLP5        0.0000 
     73 CA         45.5453   55.3440  118.7433 C.3       2 GLC5        0.0000 
     74 CA         44.9330   56.1180  120.3260 C.3       6 GLL5        0.0000 
     75 CA         45.9020   53.9490  117.4380 C.3       4 GLP5        0.0000 
     76 CA         44.2477   58.3235  121.5282 C.3       2 GLC5        0.0000 
     77 CA         32.3525   49.6433  116.8660 C.3       2 GLC5        0.0000 
     78 CA         32.9060   50.4290  115.5270 C.3       6 GLL5        0.0000 
     79 CA         31.4220   49.3380  118.6010 C.3       4 GLP5        0.0000 
     80 CA         32.3457   52.1315  114.0443 C.3       2 GLC5        0.0000 
     81 CA         31.2230   53.0500  112.5870 C.3       4 GLP5        0.0000 
     82 CA         34.0325   50.3043  112.5867 C.3       2 GLC5        0.0000 
     83 CA         33.6600   49.4680  114.7350 C.3       6 GLL5        0.0000 
     84 CA         33.7710   50.9140  110.7180 C.3       4 GLP5        0.0000 
     85 CA         34.9255   51.1625  112.3907 C.3       2 GLC5        0.0000 
     86 CA         35.4420   51.2710  114.3870 C.3       6 GLL5        0.0000 
@<TRIPOS>BOND
@<TRIPOS>SUBSTRUCTURE
     1 SEC2       17 GROUP        1 X    SEC  0     ROOT SEC X 2
     2 GLC5        1 GROUP        1 X    GLC  0     **** GLC X 6
     3 SEP2       19 GROUP        1 Y    SEP  0     ROOT SEP Y 9
     4 GLP5        3 GROUP        1 Y    GLP  0     **** GLP Y 13
     5 SEL2       18 GROUP        1 Z    SEL  0     ROOT SEL Z 16
     6 GLL5        2 GROUP        1 Z    GLL  0     **** GLL Z 20
@<TRIPOS>SET

