#    Name: 3ds6_A17_4_ligand
#    Modification time : Tue Mar 25 00:02:17 2014

@<TRIPOS>MOLECULE
3ds6_A17_4_ligand
   53    57     1     0     0
SMALL
NO_CHARGES


@<TRIPOS>ATOM
      1 C1         36.2980   55.3750  116.8130 C.ar      1 A17361      0.0000 
      2 C2         35.9750   53.9550  116.6280 C.ar      1 A17361      0.0000 
      3 C3         36.6560   53.0900  117.5960 C.ar      1 A17361      0.0000 
      4 C4         37.5640   53.5470  118.6540 C.ar      1 A17361      0.0000 
      5 C10        35.7280   56.4110  115.9750 C.ar      1 A17361      0.0000 
      6 C12        40.1520   55.6570  119.4620 C.ar      1 A17361      0.0000 
      7 C13        41.1380   56.1770  120.3920 C.ar      1 A17361      0.0000 
      8 C16        38.3380   55.9640  121.1500 C.ar      1 A17361      0.0000 
      9 O19        42.7780   56.3460  118.6890 O.2       1 A17361      0.0000 
     10 C15        39.3390   56.4780  122.0750 C.ar      1 A17361      0.0000 
     11 C5         37.8660   54.9710  118.8120 C.ar      1 A17361      0.0000 
     12 C6         37.2020   55.8510  117.8560 C.ar      1 A17361      0.0000 
     13 N7         34.8250   55.9930  114.9720 N.ar      1 A17361      0.0000 
     14 N8         34.4480   54.5370  114.7390 N.ar      1 A17361      0.0000 
     15 C9         35.0460   53.5610  115.5710 C.ar      1 A17361      0.0000 
     16 C11        38.7450   55.5340  119.8170 C.ar      1 A17361      0.0000 
     17 C14        40.7490   56.6000  121.7270 C.ar      1 A17361      0.0000 
     18 C17        36.9570   56.0280  121.5990 C.3       1 A17361      0.0000 
     19 C18        42.5640   56.2030  119.8880 C.2       1 A17361      0.0000 
     20 C20        44.9330   56.1180  120.3260 C.3       1 A17361      0.0000 
     21 C21        45.4440   57.3600  119.7710 C.3       1 A17361      0.0000 
     22 C22        45.8630   56.9320  121.0920 C.3       1 A17361      0.0000 
     23 C23        34.6670   52.2140  115.1950 C.ar      1 A17361      0.0000 
     24 C24        33.3950   51.7800  115.7570 C.ar      1 A17361      0.0000 
     25 C25        32.9060   50.4290  115.5270 C.ar      1 A17361      0.0000 
     26 C26        33.6600   49.4680  114.7350 C.ar      1 A17361      0.0000 
     27 C27        34.9280   49.9210  114.1760 C.ar      1 A17361      0.0000 
     28 C28        35.4420   51.2710  114.3870 C.ar      1 A17361      0.0000 
     29 C29        36.7180   51.5510  113.7400 C.3       1 A17361      0.0000 
     30 N30        43.5810   56.0690  120.7390 N.am      1 A17361      0.0000 
     31 H          36.4807   52.0635  117.5273 H         1 A17361      0.0000 
     32 H          37.9825   52.8744  119.2763 H         1 A17361      0.0000 
     33 H          35.9711   57.3626  116.1128 H         1 A17361      0.0000 
     34 H          40.4526   55.3678  118.5289 H         1 A17361      0.0000 
     35 H          39.0383   56.7672  123.0138 H         1 A17361      0.0000 
     36 H          37.3809   56.8652  117.9204 H         1 A17361      0.0000 
     37 H          41.4070   56.9534  122.3688 H         1 A17361      0.0000 
     38 H          45.4648   55.3878  119.9211 H         1 A17361      0.0000 
     39 H          44.7761   58.0470  119.8499 H         1 A17361      0.0000 
     40 H          46.1368   57.1668  119.1331 H         1 A17361      0.0000 
     41 H          46.7424   56.5470  121.0438 H         1 A17361      0.0000 
     42 H          45.3816   57.4271  121.7606 H         1 A17361      0.0000 
     43 H          32.8476   52.4238  116.3117 H         1 A17361      0.0000 
     44 H          32.0135   50.1482  115.9303 H         1 A17361      0.0000 
     45 H          33.3295   48.5534  114.5832 H         1 A17361      0.0000 
     46 H          35.4804   49.2672  113.6131 H         1 A17361      0.0000 
     47 H          43.4070   55.9194  121.7666 H         1 A17361      0.0000 
     48 H          36.8160   55.5083  122.4416 H         1 A17361      0.0000 
     49 H          36.6694   56.9680  121.7828 H         1 A17361      0.0000 
     50 H          36.3271   55.6568  120.9168 H         1 A17361      0.0000 
     51 H          37.4209   51.8111  114.4020 H         1 A17361      0.0000 
     52 H          37.0643   50.7559  113.2420 H         1 A17361      0.0000 
     53 H          36.6441   52.2999  113.0815 H         1 A17361      0.0000 
@<TRIPOS>BOND
     1    2    1 ar   
     2    5    1 ar   
     3   12    1 ar   
     4    3    2 ar   
     5   15    2 ar   
     6    4    3 ar   
     7   31    3 1    
     8   11    4 ar   
     9   32    4 1    
    10   13    5 ar   
    11   33    5 1    
    12    7    6 ar   
    13   16    6 ar   
    14   34    6 1    
    15   17    7 ar   
    16   19    7 1    
    17   10    8 ar   
    18   16    8 ar   
    19   18    8 1    
    20   19    9 2    
    21   17   10 ar   
    22   35   10 1    
    23   12   11 ar   
    24   16   11 1    
    25   36   12 1    
    26   14   13 ar   
    27   15   14 ar   
    28   23   15 1    
    29   37   17 1    
    30   48   18 1    
    31   49   18 1    
    32   50   18 1    
    33   30   19 am   
    34   21   20 1    
    35   22   20 1    
    36   30   20 1    
    37   38   20 1    
    38   22   21 1    
    39   39   21 1    
    40   40   21 1    
    41   41   22 1    
    42   42   22 1    
    43   24   23 ar   
    44   28   23 ar   
    45   25   24 ar   
    46   43   24 1    
    47   26   25 ar   
    48   44   25 1    
    49   27   26 ar   
    50   45   26 1    
    51   28   27 ar   
    52   46   27 1    
    53   29   28 1    
    54   51   29 1    
    55   52   29 1    
    56   53   29 1    
    57   47   30 1    
@<TRIPOS>SUBSTRUCTURE
     1 A17361      1 GROUP   
@<TRIPOS>SET

