#    Name: 4fyo_0VF_1_INTS_M
#    Modification time : Mon Mar 24 21:04:35 2014

@<TRIPOS>MOLECULE
4fyo_0VF_1_INTS_M
   81     0    12     0     0
SMALL
NO_CHARGES


@<TRIPOS>ATOM
      1 CA          3.1230    0.1640   11.8165 C.3       4 GLC5        0.0000 
      2 CA          2.5140    1.2780   13.2690 C.3      12 GLL5        0.0000 
      3 CA          3.7320   -0.9500   10.3640 C.3       8 GLP5        0.0000 
      4 CA          3.0910    1.8365   15.2660 C.3       4 GLC5        0.0000 
      5 CA          3.6680    2.3950   17.2630 C.3       8 GLP5        0.0000 
      6 CA          1.8185   -2.0920   13.2955 C.3       4 GLC5        0.0000 
      7 CA          2.2070   -0.4830   14.7610 C.3      12 GLL5        0.0000 
      8 CA          1.4300   -3.7010   11.8300 C.3       8 GLP5        0.0000 
      9 N           4.3790   -2.0390   17.3370 N.am      2 SEC2        0.0000 
     10 N           4.2650   -1.0310   16.1050 N.am     10 SEL2        0.0000 
     11 N           4.4930   -3.0470   18.5690 N.am      6 SEP2        0.0000 
     12 CA          7.4045    1.0740   16.4820 C.3       4 GLC5        0.0000 
     13 CA          5.9110    0.6030   15.2680 C.3      12 GLL5        0.0000 
     14 CA          8.8980    1.5450   17.6960 C.3       8 GLP5        0.0000 
     15 CA          7.5070    1.2580   14.3100 C.3       4 GLC5        0.0000 
     16 CA          9.1030    1.9130   13.3520 C.3       8 GLP5        0.0000 
     17 O           1.4665   -2.0715   16.8760 O.2       1 ALC1        0.0000 
     18 O           1.4150   -1.4710   15.3430 O.2       9 ALL1        0.0000 
     19 O           1.5180   -2.6720   18.4090 O.2       5 ALP1        0.0000 
     20 CA          0.7275   -2.6920   13.5275 C.3       4 GLC5        0.0000 
     21 CA          0.0250   -1.6830   15.2250 C.3      12 GLL5        0.0000 
     22 CA         -0.7255    2.1120    9.7070 C.3       4 GLC5        0.0000 
     23 CA          0.4040    3.2900   11.0390 C.3      12 GLL5        0.0000 
     24 CA         -1.8550    0.9340    8.3750 C.3       8 GLP5        0.0000 
     25 CA          1.5185    5.5290    9.7080 C.3       4 GLC5        0.0000 
     26 CA          1.8250    3.8810   10.7850 C.3      12 GLL5        0.0000 
     27 CA          1.2120    7.1770    8.6310 C.3       8 GLP5        0.0000 
     28 CA         -5.3750    4.6160   14.1245 C.3       4 GLC5        0.0000 
     29 CA         -3.7320    5.1770   12.7150 C.3      12 GLL5        0.0000 
     30 CA         -7.0180    4.0550   15.5340 C.3       8 GLP5        0.0000 
     31 CA         -2.6840    9.2500   12.6190 C.3       4 GLC5        0.0000 
     32 CA         -3.2890    7.6720   11.5260 C.3      12 GLL5        0.0000 
     33 CA         -2.0790   10.8280   13.7120 C.3       8 GLP5        0.0000 
     34 NZ         -7.6615    7.5615   13.6995 N.4       3 LYC4        0.0000 
     35 NZ         -6.1550    8.5010   13.7340 N.4      11 LYL4        0.0000 
     36 NZ         -9.1680    6.6220   13.6650 N.4       7 LYP4        0.0000 
     37 N          -6.2925    8.4290   15.0765 N.am      2 SEC2        0.0000 
     38 N          -6.1550    8.5010   13.7340 N.am     10 SEL2        0.0000 
     39 N          -6.4300    8.3570   16.4190 N.am      6 SEP2        0.0000 
     40 CA          0.1060   -3.9785   17.6615 C.3       4 GLC5        0.0000 
     41 CA         -0.4970   -2.7810   15.9060 C.3      12 GLL5        0.0000 
     42 CA          0.7090   -5.1760   19.4170 C.3       8 GLP5        0.0000 
     43 CA         -1.4195   -1.1800   11.5515 C.3       4 GLC5        0.0000 
     44 CA         -2.4740    0.2920   12.6500 C.3      12 GLL5        0.0000 
     45 CA         -0.3650   -2.6520   10.4530 C.3       8 GLP5        0.0000 
     46 CA         -2.1645    0.6130   10.5125 C.3       4 GLC5        0.0000 
     47 CA         -2.4390    1.1100   14.4740 C.3       4 GLC5        0.0000 
     48 CA         -2.4040    1.9280   16.2980 C.3       8 GLP5        0.0000 
     49 CA         -3.0855   -1.5065   17.2180 C.3       4 GLC5        0.0000 
     50 CA         -4.5980   -2.8210   16.3490 C.3      12 GLL5        0.0000 
     51 CA         -1.5730   -0.1920   18.0870 C.3       8 GLP5        0.0000 
     52 CA          4.2668   -1.5450   14.1357 C.3       4 GLC5        0.0000 
     53 CA          5.6460   -2.6780   13.3010 C.3       8 GLP5        0.0000 
     54 CA          3.2778    0.9915   16.1167 C.3       4 GLC5        0.0000 
     55 CA          3.5680   -0.3410   15.1800 C.3      12 GLL5        0.0000 
     56 CA          5.3777   -1.0172   14.1008 C.3       4 GLC5        0.0000 
     57 CA          4.3080    0.6840   14.5330 C.3      12 GLL5        0.0000 
     58 CA          4.3887    1.5192   16.0817 C.3       4 GLC5        0.0000 
     59 CA         -1.2288   -2.7492   13.2818 C.3       4 GLC5        0.0000 
     60 CA         -0.8420   -0.8760   14.4790 C.3      12 GLL5        0.0000 
     61 CA         -0.9310   -4.4750   12.1120 C.3       8 GLP5        0.0000 
     62 CA         -2.8033    4.2930   13.9913 C.3       4 GLC5        0.0000 
     63 CA         -2.3850    3.3250   15.7390 C.3       8 GLP5        0.0000 
     64 CA          1.4400   -3.5365   15.7317 C.3       4 GLC5        0.0000 
     65 CA          3.1160   -4.8410   15.8980 C.3       8 GLP5        0.0000 
     66 CA         -0.9045   -1.2120   16.8263 C.3       4 GLC5        0.0000 
     67 CA         -1.3696   -0.2426   16.0154 C.3       4 GLC5        0.0000 
     68 CA         -6.2100    6.3063   13.3533 C.3       4 GLC5        0.0000 
     69 CA         -4.5250    6.2550   13.0600 C.3      12 GLL5        0.0000 
     70 CA         -8.0020    5.7310   13.9420 C.3       8 GLP5        0.0000 
     71 CA         -3.5015    7.9627   14.1087 C.3       4 GLC5        0.0000 
     72 CA         -2.5850    9.0440   15.4530 C.3       8 GLP5        0.0000 
     73 CA          3.2455    2.4607   10.3803 C.3       4 GLC5        0.0000 
     74 CA          4.2410    1.2960    9.3810 C.3       8 GLP5        0.0000 
     75 CA          0.4788    3.8102    8.9460 C.3       4 GLC5        0.0000 
     76 CA         -0.1570    4.0350    6.9800 C.3       8 GLP5        0.0000 
     77 CA         -1.9280   -1.4327   16.7897 C.3       4 GLC5        0.0000 
     78 CA         -1.8500   -3.0770   15.8580 C.3      12 GLL5        0.0000 
     79 CA         -2.2626    0.1406   15.5436 C.3       4 GLC5        0.0000 
     80 CA         -2.7160   -2.2700   15.1270 C.3      12 GLL5        0.0000 
     81 CA         -1.1605   -3.6011   13.9056 C.3       4 GLC5        0.0000 
@<TRIPOS>BOND
@<TRIPOS>SUBSTRUCTURE
     1 ALC1       17 GROUP        1 X    ALC  0     ROOT ALC X 1
     2 SEC2        9 GROUP        1 X    SEC  0     **** SEC X 2
     3 LYC4       34 GROUP        1 X    LYC  0     **** LYC X 4
     4 GLC5        1 GROUP        1 X    GLC  0     **** GLC X 6
     5 ALP1       19 GROUP        1 Y    ALP  0     ROOT ALP Y 8
     6 SEP2       11 GROUP        1 Y    SEP  0     **** SEP Y 9
     7 LYP4       36 GROUP        1 Y    LYP  0     **** LYP Y 11
     8 GLP5        3 GROUP        1 Y    GLP  0     **** GLP Y 13
     9 ALL1       18 GROUP        1 Z    ALL  0     ROOT ALL Z 15
    10 SEL2       10 GROUP        1 Z    SEL  0     **** SEL Z 16
    11 LYL4       35 GROUP        1 Z    LYL  0     **** LYL Z 18
    12 GLL5        2 GROUP        1 Z    GLL  0     **** GLL Z 20
@<TRIPOS>SET

