#    Name: 4fyo_0VF_1_ligand
#    Modification time : Mon Mar 24 21:04:35 2014

@<TRIPOS>MOLECULE
4fyo_0VF_1_ligand
   60    64     1     0     0
SMALL
NO_CHARGES


@<TRIPOS>ATOM
      1 C1          2.5140    1.2780   13.2690 C.ar      1 0VF701      0.0000 
      2 N2          1.7520    0.3320   13.8200 N.ar      1 0VF701      0.0000 
      3 N3          3.7800    1.4470   13.6160 N.ar      1 0VF701      0.0000 
      4 C4          2.2070   -0.4830   14.7610 C.ar      1 0VF701      0.0000 
      5 C5          4.3080    0.6840   14.5330 C.ar      1 0VF701      0.0000 
      6 C6          3.5680   -0.3410   15.1800 C.ar      1 0VF701      0.0000 
      7 N7          2.0050    2.0970   12.2860 N.3       1 0VF701      0.0000 
      8 N8          4.2650   -1.0310   16.1050 N.2       1 0VF701      0.0000 
      9 S9          5.9110    0.6030   15.2680 S.3       1 0VF701      0.0000 
     10 C10        -1.8510    4.2110   11.3750 C.2       1 0VF701      0.0000 
     11 N11         1.4150   -1.4710   15.3430 N.pl3     1 0VF701      0.0000 
     12 C12         5.5180   -0.7570   16.3650 C.2       1 0VF701      0.0000 
     13 N13        -0.5120    4.3600   11.4340 N.am      1 0VF701      0.0000 
     14 C14        -5.1640    8.6610   12.8400 C.2       1 0VF701      0.0000 
     15 C15        -0.8420   -0.8760   14.4790 C.ar      1 0VF701      0.0000 
     16 C16        -2.2110   -1.1710   14.4240 C.ar      1 0VF701      0.0000 
     17 C17         0.5590    2.2540   12.1730 C.3       1 0VF701      0.0000 
     18 C18        -2.7110    5.3450   11.7720 C.ar      1 0VF701      0.0000 
     19 C19         0.0250   -1.6830   15.2250 C.ar      1 0VF701      0.0000 
     20 C20        -4.3110    7.5080   12.4690 C.ar      1 0VF701      0.0000 
     21 C21         2.6750    3.3700   11.9740 C.3       1 0VF701      0.0000 
     22 C22         0.4040    3.2900   11.0390 C.3       1 0VF701      0.0000 
     23 C23        -2.7160   -2.2700   15.1270 C.ar      1 0VF701      0.0000 
     24 O24        -2.3540    3.1720   10.9880 O.2       1 0VF701      0.0000 
     25 O25        -4.9780    9.7510   12.3360 O.co2     1 0VF701      0.0000 
     26 C26         1.8250    3.8810   10.7850 C.3       1 0VF701      0.0000 
     27 C27        -3.7320    5.1770   12.7150 C.ar      1 0VF701      0.0000 
     28 C28        -2.4960    6.5980   11.1790 C.ar      1 0VF701      0.0000 
     29 C29        -3.2890    7.6720   11.5260 C.ar      1 0VF701      0.0000 
     30 C30        -4.5250    6.2550   13.0600 C.ar      1 0VF701      0.0000 
     31 C31        -1.8500   -3.0770   15.8580 C.ar      1 0VF701      0.0000 
     32 O32        -6.1550    8.5010   13.7340 O.co2     1 0VF701      0.0000 
     33 C33        -0.4970   -2.7810   15.9060 C.ar      1 0VF701      0.0000 
     34 O34        -3.1070   -0.4140   13.7190 O.3       1 0VF701      0.0000 
     35 O35        -4.0570   -2.5450   15.0520 O.3       1 0VF701      0.0000 
     36 C36        -2.4740    0.2920   12.6500 C.3       1 0VF701      0.0000 
     37 C37        -4.5980   -2.8210   16.3490 C.3       1 0VF701      0.0000 
     38 H           1.9378   -2.1843   15.9811 H         1 0VF701      0.0000 
     39 H           6.2136   -0.9896   16.8651 H         1 0VF701      0.0000 
     40 H          -0.0709    5.2407   11.7624 H         1 0VF701      0.0000 
     41 H          -0.4739   -0.0638   13.9694 H         1 0VF701      0.0000 
     42 H           0.1340    2.6615   13.0601 H         1 0VF701      0.0000 
     43 H           0.0848    1.3505   11.8691 H         1 0VF701      0.0000 
     44 H           3.6647    3.2182   11.6385 H         1 0VF701      0.0000 
     45 H           2.5905    4.0605   12.7684 H         1 0VF701      0.0000 
     46 H           0.0929    2.7915   10.1591 H         1 0VF701      0.0000 
     47 H           2.2077    3.4926    9.8795 H         1 0VF701      0.0000 
     48 H           1.7736    4.9365   10.8104 H         1 0VF701      0.0000 
     49 H          -3.8838    4.2577   13.1420 H         1 0VF701      0.0000 
     50 H          -1.7436    6.7053   10.4859 H         1 0VF701      0.0000 
     51 H          -3.1375    8.5942   11.0987 H         1 0VF701      0.0000 
     52 H          -5.2787    6.1463   13.7534 H         1 0VF701      0.0000 
     53 H          -2.2175   -3.8955   16.3637 H         1 0VF701      0.0000 
     54 H           0.1404   -3.3847   16.4570 H         1 0VF701      0.0000 
     55 H          -1.7606    0.9085   12.9831 H         1 0VF701      0.0000 
     56 H          -2.0420   -0.3310   11.9979 H         1 0VF701      0.0000 
     57 H          -3.1259    0.8490   12.1354 H         1 0VF701      0.0000 
     58 H          -4.1523   -3.6068   16.7778 H         1 0VF701      0.0000 
     59 H          -4.4865   -2.0456   16.9706 H         1 0VF701      0.0000 
     60 H          -5.5760   -3.0253   16.3077 H         1 0VF701      0.0000 
@<TRIPOS>BOND
     1    2    1 ar   
     2    3    1 ar   
     3    7    1 1    
     4    4    2 ar   
     5    5    3 ar   
     6    6    4 ar   
     7   11    4 1    
     8    6    5 ar   
     9    9    5 1    
    10    8    6 1    
    11   17    7 1    
    12   21    7 1    
    13   12    8 2    
    14   12    9 1    
    15   13   10 am   
    16   18   10 1    
    17   24   10 2    
    18   19   11 1    
    19   38   11 1    
    20   39   12 1    
    21   22   13 1    
    22   40   13 1    
    23   20   14 1    
    24   25   14 ar   
    25   32   14 ar   
    26   16   15 ar   
    27   19   15 ar   
    28   41   15 1    
    29   23   16 ar   
    30   34   16 1    
    31   22   17 1    
    32   42   17 1    
    33   43   17 1    
    34   27   18 ar   
    35   28   18 ar   
    36   33   19 ar   
    37   29   20 ar   
    38   30   20 ar   
    39   26   21 1    
    40   44   21 1    
    41   45   21 1    
    42   26   22 1    
    43   46   22 1    
    44   31   23 ar   
    45   35   23 1    
    46   47   26 1    
    47   48   26 1    
    48   30   27 ar   
    49   49   27 1    
    50   29   28 ar   
    51   50   28 1    
    52   51   29 1    
    53   52   30 1    
    54   33   31 ar   
    55   53   31 1    
    56   54   33 1    
    57   36   34 1    
    58   37   35 1    
    59   55   36 1    
    60   56   36 1    
    61   57   36 1    
    62   58   37 1    
    63   59   37 1    
    64   60   37 1    
@<TRIPOS>SUBSTRUCTURE
     1 0VF701      1 GROUP   
@<TRIPOS>SET

