#    Name: 3zkp_ERB_1_INTS_M
#    Modification time : Tue Mar 25 03:37:23 2014

@<TRIPOS>MOLECULE
3zkp_ERB_1_INTS_M
   99     0     9     0     0
SMALL
NO_CHARGES


@<TRIPOS>ATOM
      1 O           7.8440   -5.6335   24.5355 O.2       1 ALC1        0.0000 
      2 O           8.6290   -6.8780   24.4300 O.2       7 ALL1        0.0000 
      3 O           7.0590   -4.3890   24.6410 O.2       4 ALP1        0.0000 
      4 N          12.1330   -3.6360   31.8690 N.am      2 SEC2        0.0000 
      5 N          12.5580   -5.0080   30.8920 N.am      8 SEL2        0.0000 
      6 N          11.7080   -2.2640   32.8460 N.am      5 SEP2        0.0000 
      7 N          11.4050   -3.7105   33.2225 N.am      2 SEC2        0.0000 
      8 N          11.1020   -5.1570   33.5990 N.am      8 SEL2        0.0000 
      9 O           8.4600   -5.0025   32.7405 O.2       1 ALC1        0.0000 
     10 O           8.6210   -6.2890   32.9340 O.2       7 ALL1        0.0000 
     11 O           8.2990   -3.7160   32.5470 O.2       4 ALP1        0.0000 
     12 O          10.1525   -4.2875   24.0265 O.2       1 ALC1        0.0000 
     13 O          10.2890   -4.6940   25.4200 O.2       7 ALL1        0.0000 
     14 O          10.0160   -3.8810   22.6330 O.2       4 ALP1        0.0000 
     15 N          18.8355   -1.8020   26.9355 N.am      2 SEC2        0.0000 
     16 N          17.6510   -1.1440   27.2250 N.am      8 SEL2        0.0000 
     17 N          20.0200   -2.4600   26.6460 N.am      5 SEP2        0.0000 
     18 CA         13.6080   -8.0480   33.1570 C.3       3 GLC5        0.0000 
     19 CA         12.3370   -6.9010   32.4680 C.3       9 GLL5        0.0000 
     20 CA         14.8790   -9.1950   33.8460 C.3       6 GLP5        0.0000 
     21 CA         12.9360   -8.2950   34.1835 C.3       3 GLC5        0.0000 
     22 CA         10.9930   -7.3950   34.5210 C.3       9 GLL5        0.0000 
     23 CA         10.2445   -4.7200   36.9285 C.3       3 GLC5        0.0000 
     24 CA         10.7660   -4.6820   34.9150 C.3       9 GLL5        0.0000 
     25 CA          9.7230   -4.7580   38.9420 C.3       6 GLP5        0.0000 
     26 CA         10.5825   -3.0750   35.8505 C.3       3 GLC5        0.0000 
     27 CA         10.3990   -1.4680   36.7860 C.3       6 GLP5        0.0000 
     28 CA         11.8920   -4.5815   24.4410 C.3       3 GLC5        0.0000 
     29 CA         10.6910   -6.0760   25.5860 C.3       9 GLL5        0.0000 
     30 CA         13.0930   -3.0870   23.2960 C.3       6 GLP5        0.0000 
     31 CA          9.3555   -9.8840   24.7755 C.3       3 GLC5        0.0000 
     32 CA          9.9770   -8.4860   25.8820 C.3       9 GLL5        0.0000 
     33 CA          8.7340  -11.2820   23.6690 C.3       6 GLP5        0.0000 
     34 CA         13.0345  -10.3140   28.4885 C.3       3 GLC5        0.0000 
     35 CA         11.5480   -9.9470   27.2390 C.3       9 GLL5        0.0000 
     36 CA         14.5210  -10.6810   29.7380 C.3       6 GLP5        0.0000 
     37 CA         11.7515  -11.8975   26.8985 C.3       3 GLC5        0.0000 
     38 CA         11.9550  -13.8480   26.5580 C.3       6 GLP5        0.0000 
     39 CA          9.2315   -9.1545   22.5580 C.3       3 GLC5        0.0000 
     40 CA          9.2260   -7.3270   23.1380 C.3       9 GLL5        0.0000 
     41 CA          9.2370  -10.9820   21.9780 C.3       6 GLP5        0.0000 
     42 CA         10.9485   -8.4395   22.7330 C.3       3 GLC5        0.0000 
     43 CA         12.6710   -9.5520   22.3280 C.3       6 GLP5        0.0000 
     44 CA          8.0410   -9.4320   24.1425 C.3       3 GLC5        0.0000 
     45 CA          7.3480   -7.5820   24.6160 C.3       9 GLL5        0.0000 
     46 CA          5.6210   -8.1985   24.4645 C.3       3 GLC5        0.0000 
     47 CA          3.8940   -8.8150   24.3130 C.3       6 GLP5        0.0000 
     48 CA         16.0085   -2.7780   33.5910 C.3       3 GLC5        0.0000 
     49 CA         14.8070   -3.6740   32.4370 C.3       9 GLL5        0.0000 
     50 CA         17.2100   -1.8820   34.7450 C.3       6 GLP5        0.0000 
     51 CA         16.2730   -5.0015   32.5040 C.3       3 GLC5        0.0000 
     52 CA         17.7390   -6.3290   32.5710 C.3       6 GLP5        0.0000 
     53 CA         11.7790   -2.4290   30.2385 C.3       3 GLC5        0.0000 
     54 CA         12.1250   -3.5150   28.6120 C.3       9 GLL5        0.0000 
     55 CA         11.4330   -1.3430   31.8650 C.3       6 GLP5        0.0000 
     56 CA         14.6525   -7.2170   24.7300 C.3       3 GLC5        0.0000 
     57 CA         15.2510   -6.9660   26.6130 C.3       9 GLL5        0.0000 
     58 CA         14.0540   -7.4680   22.8470 C.3       6 GLP5        0.0000 
     59 CA         19.1580   -5.5405   24.6525 C.3       3 GLC5        0.0000 
     60 CA         17.4210   -4.9050   25.0000 C.3       9 GLL5        0.0000 
     61 CA         20.8950   -6.1760   24.3050 C.3       6 GLP5        0.0000 
     62 CA         17.5125   -5.4165   23.1265 C.3       3 GLC5        0.0000 
     63 CA         17.6040   -5.9280   21.2530 C.3       6 GLP5        0.0000 
     64 CA         13.2450   -0.4435   25.6865 C.3       3 GLC5        0.0000 
     65 CA         14.0160   -0.0800   27.5620 C.3       9 GLL5        0.0000 
     66 CA         12.4740   -0.8070   23.8110 C.3       6 GLP5        0.0000 
     67 CA         15.1570    2.0495   33.3720 C.3       3 GLC5        0.0000 
     68 CA         15.9160    0.8870   31.6050 C.3       9 GLL5        0.0000 
     69 CA         14.3980    3.2120   35.1390 C.3       6 GLP5        0.0000 
     70 CA         15.9695   -0.0190   33.3170 C.3       3 GLC5        0.0000 
     71 CA         16.0230   -0.9250   35.0290 C.3       6 GLP5        0.0000 
     72 CA         15.7248   -7.5862   28.2817 C.3       3 GLC5        0.0000 
     73 CA         15.0500   -5.5510   27.1820 C.3       9 GLL5        0.0000 
     74 CA         16.2990   -8.9140   29.6660 C.3       6 GLP5        0.0000 
     75 CA         14.4710   -3.6410   24.5990 C.3       3 GLC5        0.0000 
     76 CA         15.1600   -4.5000   26.0570 C.3       9 GLL5        0.0000 
     77 CA         17.7392   -0.9120   24.2097 C.3       3 GLC5        0.0000 
     78 CA         15.8670   -1.3020   25.6210 C.3       9 GLL5        0.0000 
     79 CA         19.3820   -1.1580   23.1620 C.3       6 GLP5        0.0000 
     80 CA         14.7733   -0.5100   24.0887 C.3       3 GLC5        0.0000 
     81 CA         16.3260   -0.0300   24.8940 C.3       9 GLL5        0.0000 
     82 CA         13.4500   -0.3540   22.9200 C.3       6 GLP5        0.0000 
     83 CA         11.9285   -8.5768   31.9960 C.3       3 GLC5        0.0000 
     84 CA         12.3630   -6.4280   30.9980 C.3       9 GLL5        0.0000 
     85 CA         11.5070  -10.4890   32.2590 C.3       6 GLP5        0.0000 
     86 CA          9.3080   -8.4158   30.2632 C.3       3 GLC5        0.0000 
     87 CA          9.9800   -6.1790   30.9240 C.3       9 GLL5        0.0000 
     88 CA          9.2380  -10.5180   30.0520 C.3       6 GLP5        0.0000 
     89 CA         11.1098   -8.7583   32.9548 C.3       3 GLC5        0.0000 
     90 CA         11.0440   -6.5430   33.2310 C.3       9 GLL5        0.0000 
     91 CA         10.2380   -9.8837   28.6055 C.3       3 GLC5        0.0000 
     92 CA         11.9811   -9.7490   25.2564 C.3       3 GLC5        0.0000 
     93 CA         12.9620  -10.2650   23.6530 C.3       6 GLP5        0.0000 
     94 CA         12.9241   -2.5801   31.6996 C.3       3 GLC5        0.0000 
     95 CA         14.2850   -3.3500   31.0290 C.3       9 GLL5        0.0000 
     96 CA         13.8055    1.0825   31.2653 C.3       3 GLC5        0.0000 
     97 CA         11.8970    1.2060   31.6540 C.3       6 GLP5        0.0000 
     98 CA         17.5700    0.5544   30.5651 C.3       3 GLC5        0.0000 
     99 CA         19.3540    0.4740   30.4410 C.3       6 GLP5        0.0000 
@<TRIPOS>BOND
@<TRIPOS>SUBSTRUCTURE
     1 ALC1        1 GROUP        1 X    ALC  0     ROOT ALC X 1
     2 SEC2        4 GROUP        1 X    SEC  0     **** SEC X 2
     3 GLC5       18 GROUP        1 X    GLC  0     **** GLC X 6
     4 ALP1        3 GROUP        1 Y    ALP  0     ROOT ALP Y 8
     5 SEP2        6 GROUP        1 Y    SEP  0     **** SEP Y 9
     6 GLP5       20 GROUP        1 Y    GLP  0     **** GLP Y 13
     7 ALL1        2 GROUP        1 Z    ALL  0     ROOT ALL Z 15
     8 SEL2        5 GROUP        1 Z    SEL  0     **** SEL Z 16
     9 GLL5       19 GROUP        1 Z    GLL  0     **** GLL Z 20
@<TRIPOS>SET

