#    Name: 3zkp_ERB_1_ligand
#    Modification time : Tue Mar 25 03:37:24 2014

@<TRIPOS>MOLECULE
3zkp_ERB_1_ligand
  118   120     1     0     0
SMALL
NO_CHARGES


@<TRIPOS>ATOM
      1 C1         15.3110   -2.5370   30.2640 C.2       1 ERB413      0.0000 
      2 N1          8.6290   -6.8780   24.4300 N.4       1 ERB413      0.0000 
      3 O1         16.4040   -2.9500   29.8950 O.2       1 ERB413      0.0000 
      4 C2         14.2850   -3.3500   31.0290 C.3       1 ERB413      0.0000 
      5 O2         14.8960   -1.1940   29.9780 O.3       1 ERB413      0.0000 
      6 C3         13.7620   -4.5710   30.2340 C.3       1 ERB413      0.0000 
      7 O3         12.5580   -5.0080   30.8920 O.3       1 ERB413      0.0000 
      8 C4         13.4850   -4.2210   28.7620 C.3       1 ERB413      0.0000 
      9 O4         11.1340   -6.7610   30.3240 O.3       1 ERB413      0.0000 
     10 C5         13.6580   -5.4430   27.8190 C.3       1 ERB413      0.0000 
     11 O5         11.1020   -5.1570   33.5990 O.3       1 ERB413      0.0000 
     12 C6         15.0500   -5.5510   27.1820 C.3       1 ERB413      0.0000 
     13 O6          8.6210   -6.2890   32.9340 O.3       1 ERB413      0.0000 
     14 C7         15.1600   -4.5000   26.0570 C.3       1 ERB413      0.0000 
     15 O7         12.7190   -5.4040   26.7380 O.3       1 ERB413      0.0000 
     16 C8         16.5380   -3.8900   25.7470 C.3       1 ERB413      0.0000 
     17 O8         10.2890   -4.6940   25.4200 O.3       1 ERB413      0.0000 
     18 C9         16.3970   -2.5840   24.9740 C.2       1 ERB413      0.0000 
     19 O9         12.0010   -7.6230   26.8790 O.3       1 ERB413      0.0000 
     20 C10        15.8670   -1.3020   25.6210 C.3       1 ERB413      0.0000 
     21 O10        16.0610   -5.3630   28.1770 O.3       1 ERB413      0.0000 
     22 C11        16.2250   -1.2540   27.1100 C.3       1 ERB413      0.0000 
     23 O11        16.6900   -2.5420   23.7940 O.2       1 ERB413      0.0000 
     24 C12        15.5160   -0.1390   27.8980 C.3       1 ERB413      0.0000 
     25 O12        17.6510   -1.1440   27.2250 O.3       1 ERB413      0.0000 
     26 C13        15.8000   -0.2660   29.3990 C.3       1 ERB413      0.0000 
     27 C14        12.3630   -6.4280   30.9980 C.3       1 ERB413      0.0000 
     28 C15        12.3370   -6.9010   32.4680 C.3       1 ERB413      0.0000 
     29 C16        11.0440   -6.5430   33.2310 C.3       1 ERB413      0.0000 
     30 C17         9.8200   -6.7770   32.3290 C.3       1 ERB413      0.0000 
     31 C18         9.9800   -6.1790   30.9240 C.3       1 ERB413      0.0000 
     32 C19        10.9930   -7.3950   34.5210 C.3       1 ERB413      0.0000 
     33 C20        10.7660   -4.6820   34.9150 C.3       1 ERB413      0.0000 
     34 C21         8.7760   -6.4480   30.0250 C.3       1 ERB413      0.0000 
     35 C22        11.5710   -6.2610   26.8240 C.3       1 ERB413      0.0000 
     36 C23        10.6910   -6.0760   25.5860 C.3       1 ERB413      0.0000 
     37 C24         9.4910   -7.0420   25.6430 C.3       1 ERB413      0.0000 
     38 C25         9.9770   -8.4860   25.8820 C.3       1 ERB413      0.0000 
     39 C26        10.9280   -8.5520   27.0790 C.3       1 ERB413      0.0000 
     40 C27        11.5480   -9.9470   27.2390 C.3       1 ERB413      0.0000 
     41 C28         9.2260   -7.3270   23.1380 C.3       1 ERB413      0.0000 
     42 C29         7.3480   -7.5820   24.6160 C.3       1 ERB413      0.0000 
     43 C30        14.8070   -3.6740   32.4370 C.3       1 ERB413      0.0000 
     44 C31        12.1250   -3.5150   28.6120 C.3       1 ERB413      0.0000 
     45 C32        15.2510   -6.9660   26.6130 C.3       1 ERB413      0.0000 
     46 C33        17.4210   -4.9050   25.0000 C.3       1 ERB413      0.0000 
     47 C34        16.3260   -0.0300   24.8940 C.3       1 ERB413      0.0000 
     48 C35        14.0160   -0.0800   27.5620 C.3       1 ERB413      0.0000 
     49 C36        15.5120    1.0310   30.1480 C.3       1 ERB413      0.0000 
     50 C37        15.9160    0.8870   31.6050 C.3       1 ERB413      0.0000 
     51 H           8.3850   -5.7958   24.3279 H         1 ERB413      0.0000 
     52 H          13.3979   -2.6673   31.1791 H         1 ERB413      0.0000 
     53 H          14.5182   -5.3355   30.2766 H         1 ERB413      0.0000 
     54 H          14.2647   -3.4762   28.4649 H         1 ERB413      0.0000 
     55 H          13.5003   -6.3489   28.4090 H         1 ERB413      0.0000 
     56 H          14.4494   -3.6643   26.2900 H         1 ERB413      0.0000 
     57 H          14.7562   -4.9545   25.1147 H         1 ERB413      0.0000 
     58 H          17.0224   -3.6705   26.7049 H         1 ERB413      0.0000 
     59 H          14.7609   -1.3353   25.5587 H         1 ERB413      0.0000 
     60 H          15.9061   -2.2191   27.5457 H         1 ERB413      0.0000 
     61 H          15.9652    0.8196   27.5597 H         1 ERB413      0.0000 
     62 H          16.8055   -0.5422   29.5620 H         1 ERB413      0.0000 
     63 H          13.1934   -6.9488   30.5091 H         1 ERB413      0.0000 
     64 H          13.1948   -6.4580   32.9972 H         1 ERB413      0.0000 
     65 H          12.4705   -7.9936   32.4902 H         1 ERB413      0.0000 
     66 H           9.7331   -7.8780   32.1912 H         1 ERB413      0.0000 
     67 H          10.1033   -5.1109   31.0242 H         1 ERB413      0.0000 
     68 H          10.9743   -6.0158   27.6864 H         1 ERB413      0.0000 
     69 H          11.3035   -6.3908   24.7174 H         1 ERB413      0.0000 
     70 H           8.9014   -6.7466   26.5338 H         1 ERB413      0.0000 
     71 H          10.4922   -8.8371   24.9911 H         1 ERB413      0.0000 
     72 H           9.1152   -9.1221   26.0694 H         1 ERB413      0.0000 
     73 H          10.3816   -8.3197   27.9722 H         1 ERB413      0.0000 
     74 H          14.4506    1.2528   30.0858 H         1 ERB413      0.0000 
     75 H          16.0757    1.8404   29.6933 H         1 ERB413      0.0000 
     76 H          11.7999   -7.2504   35.0937 H         1 ERB413      0.0000 
     77 H          10.1935   -7.1750   35.0800 H         1 ERB413      0.0000 
     78 H          10.9488   -8.3733   34.3185 H         1 ERB413      0.0000 
     79 H          11.3515   -5.0875   35.6169 H         1 ERB413      0.0000 
     80 H          10.8650   -3.6896   34.9881 H         1 ERB413      0.0000 
     81 H           9.8213   -4.9011   35.1589 H         1 ERB413      0.0000 
     82 H           8.8965   -6.0522   29.1146 H         1 ERB413      0.0000 
     83 H           8.6172   -7.4274   29.9001 H         1 ERB413      0.0000 
     84 H           7.9356   -6.0608   30.4041 H         1 ERB413      0.0000 
     85 H          12.0751  -10.2139   26.4322 H         1 ERB413      0.0000 
     86 H          12.1686   -9.9900   28.0220 H         1 ERB413      0.0000 
     87 H          10.8504  -10.6496   27.3790 H         1 ERB413      0.0000 
     88 H          10.0667   -6.8294   22.9246 H         1 ERB413      0.0000 
     89 H           9.4571   -8.2998   23.1539 H         1 ERB413      0.0000 
     90 H           8.5998   -7.1870   22.3710 H         1 ERB413      0.0000 
     91 H           7.4811   -8.5613   24.7685 H         1 ERB413      0.0000 
     92 H           6.8411   -7.2291   25.4024 H         1 ERB413      0.0000 
     93 H           6.7532   -7.4879   23.8177 H         1 ERB413      0.0000 
     94 H          15.6584   -4.1976   32.4061 H         1 ERB413      0.0000 
     95 H          14.9918   -2.8448   32.9645 H         1 ERB413      0.0000 
     96 H          14.1493   -4.2146   32.9616 H         1 ERB413      0.0000 
     97 H          12.0872   -2.6659   29.1389 H         1 ERB413      0.0000 
     98 H          11.9327   -3.2778   27.6598 H         1 ERB413      0.0000 
     99 H          11.3709   -4.0904   28.9288 H         1 ERB413      0.0000 
    100 H          16.1506   -7.0716   26.1893 H         1 ERB413      0.0000 
    101 H          15.1776   -7.6659   27.3235 H         1 ERB413      0.0000 
    102 H          14.5703   -7.1854   25.9141 H         1 ERB413      0.0000 
    103 H          18.3218   -4.5271   24.7863 H         1 ERB413      0.0000 
    104 H          17.5712   -5.7339   25.5388 H         1 ERB413      0.0000 
    105 H          17.0093   -5.1889   24.1340 H         1 ERB413      0.0000 
    106 H          17.3226    0.0510   24.8806 H         1 ERB413      0.0000 
    107 H          16.0179   -0.0142   23.9428 H         1 ERB413      0.0000 
    108 H          15.9706    0.7963   25.3310 H         1 ERB413      0.0000 
    109 H          13.8597    0.1007   26.5910 H         1 ERB413      0.0000 
    110 H          13.5528   -0.9394   27.7784 H         1 ERB413      0.0000 
    111 H          13.5490    0.6415   28.0732 H         1 ERB413      0.0000 
    112 H          16.8900    0.6822   31.7018 H         1 ERB413      0.0000 
    113 H          15.7394    1.7235   32.1238 H         1 ERB413      0.0000 
    114 H          15.4150    0.1497   32.0582 H         1 ERB413      0.0000 
    115 H           8.3609   -5.4930   32.3874 H         1 ERB413      0.0000 
    116 H          10.2725   -4.5464   24.4311 H         1 ERB413      0.0000 
    117 H          15.8816   -4.4569   28.5601 H         1 ERB413      0.0000 
    118 H          17.8425   -0.1660   27.1421 H         1 ERB413      0.0000 
@<TRIPOS>BOND
     1    3    1 2    
     2    4    1 1    
     3    5    1 1    
     4   37    2 1    
     5   41    2 1    
     6   42    2 1    
     7   51    2 1    
     8    6    4 1    
     9   43    4 1    
    10   52    4 1    
    11   26    5 1    
    12    7    6 1    
    13    8    6 1    
    14   53    6 1    
    15   27    7 1    
    16   10    8 1    
    17   44    8 1    
    18   54    8 1    
    19   27    9 1    
    20   31    9 1    
    21   12   10 1    
    22   15   10 1    
    23   55   10 1    
    24   29   11 1    
    25   33   11 1    
    26   14   12 1    
    27   21   12 1    
    28   45   12 1    
    29   30   13 1    
    30  115   13 1    
    31   16   14 1    
    32   56   14 1    
    33   57   14 1    
    34   35   15 1    
    35   18   16 1    
    36   46   16 1    
    37   58   16 1    
    38   36   17 1    
    39  116   17 1    
    40   20   18 1    
    41   23   18 2    
    42   35   19 1    
    43   39   19 1    
    44   22   20 1    
    45   47   20 1    
    46   59   20 1    
    47  117   21 1    
    48   24   22 1    
    49   25   22 1    
    50   60   22 1    
    51   26   24 1    
    52   48   24 1    
    53   61   24 1    
    54  118   25 1    
    55   49   26 1    
    56   62   26 1    
    57   28   27 1    
    58   63   27 1    
    59   29   28 1    
    60   64   28 1    
    61   65   28 1    
    62   30   29 1    
    63   32   29 1    
    64   31   30 1    
    65   66   30 1    
    66   34   31 1    
    67   67   31 1    
    68   76   32 1    
    69   77   32 1    
    70   78   32 1    
    71   79   33 1    
    72   80   33 1    
    73   81   33 1    
    74   82   34 1    
    75   83   34 1    
    76   84   34 1    
    77   36   35 1    
    78   68   35 1    
    79   37   36 1    
    80   69   36 1    
    81   38   37 1    
    82   70   37 1    
    83   39   38 1    
    84   71   38 1    
    85   72   38 1    
    86   40   39 1    
    87   73   39 1    
    88   85   40 1    
    89   86   40 1    
    90   87   40 1    
    91   88   41 1    
    92   89   41 1    
    93   90   41 1    
    94   91   42 1    
    95   92   42 1    
    96   93   42 1    
    97   94   43 1    
    98   95   43 1    
    99   96   43 1    
   100   97   44 1    
   101   98   44 1    
   102   99   44 1    
   103  100   45 1    
   104  101   45 1    
   105  102   45 1    
   106  103   46 1    
   107  104   46 1    
   108  105   46 1    
   109  106   47 1    
   110  107   47 1    
   111  108   47 1    
   112  109   48 1    
   113  110   48 1    
   114  111   48 1    
   115   50   49 1    
   116   74   49 1    
   117   75   49 1    
   118  112   50 1    
   119  113   50 1    
   120  114   50 1    
@<TRIPOS>SUBSTRUCTURE
     1 ERB413      1 GROUP   
@<TRIPOS>SET

