#    Name: 3cv9_VDX_1_INTS_M
#    Modification time : Mon Mar 24 22:21:51 2014

@<TRIPOS>MOLECULE
3cv9_VDX_1_INTS_M
   89     0     9     0     0
SMALL
NO_CHARGES


@<TRIPOS>ATOM
      1 N          -5.8475    8.2470   10.1485 N.am      2 SEC2        0.0000 
      2 N          -4.6780    7.5120    9.6720 N.am      8 SEL2        0.0000 
      3 N          -7.0170    8.9820   10.6250 N.am      5 SEP2        0.0000 
      4 N          -5.5865    8.6170    9.1020 N.am      2 SEC2        0.0000 
      5 N          -6.4950    9.7220    8.5320 N.am      5 SEP2        0.0000 
      6 N           2.3970   -3.3420   16.1850 N.am      2 SEC2        0.0000 
      7 N           3.3890   -2.9790   15.1370 N.am      8 SEL2        0.0000 
      8 N           1.4050   -3.7050   17.2330 N.am      5 SEP2        0.0000 
      9 O           4.8320   -2.5345   14.9000 O.2       1 ALC1        0.0000 
     10 O           3.3890   -2.9790   15.1370 O.2       7 ALL1        0.0000 
     11 O           6.2750   -2.0900   14.6630 O.2       4 ALP1        0.0000 
     12 CA          0.3360    9.8345   10.6345 C.3       3 GLC5        0.0000 
     13 CA         -1.0580    8.2230   10.7020 C.3       9 GLL5        0.0000 
     14 CA          1.7300   11.4460   10.5670 C.3       6 GLP5        0.0000 
     15 CA         -2.9085    9.3685    8.1135 C.3       3 GLC5        0.0000 
     16 CA         -2.4240    8.4130   10.0230 C.3       9 GLL5        0.0000 
     17 CA         -3.3930   10.3240    6.2040 C.3       6 GLP5        0.0000 
     18 CA         -3.4095    9.8390   11.2520 C.3       3 GLC5        0.0000 
     19 CA         -4.3950   11.2650   12.4810 C.3       6 GLP5        0.0000 
     20 CA         -4.0350    5.2655   10.5380 C.3       3 GLC5        0.0000 
     21 CA         -3.4450    7.3330   10.3990 C.3       9 GLL5        0.0000 
     22 CA         -4.6250    3.1980   10.6770 C.3       6 GLP5        0.0000 
     23 CA         -5.3690    8.0095   12.4790 C.3       3 GLC5        0.0000 
     24 CA         -3.7060    7.3580   11.9080 C.3       9 GLL5        0.0000 
     25 CA         -7.0320    8.6610   13.0500 C.3       6 GLP5        0.0000 
     26 CA         -4.0505    9.3115   12.1945 C.3       3 GLC5        0.0000 
     27 CA         -2.5170    6.6150   16.1685 C.3       3 GLC5        0.0000 
     28 CA         -1.0920    5.1380   15.4690 C.3       9 GLL5        0.0000 
     29 CA         -3.9420    8.0920   16.8680 C.3       6 GLP5        0.0000 
     30 CA         -3.6535    5.7330   16.2940 C.3       3 GLC5        0.0000 
     31 CA         -2.3090    4.4130   16.0380 C.3       9 GLL5        0.0000 
     32 CA         -4.9980    7.0530   16.5500 C.3       6 GLP5        0.0000 
     33 CA         -3.5010    2.0330   17.6535 C.3       3 GLC5        0.0000 
     34 CA         -1.9970    2.9170   16.2980 C.3       9 GLL5        0.0000 
     35 CA         -5.0050    1.1490   19.0090 C.3       6 GLP5        0.0000 
     36 CA         -3.1360    1.3835   15.5045 C.3       3 GLC5        0.0000 
     37 CA         -4.2750   -0.1500   14.7110 C.3       6 GLP5        0.0000 
     38 CA         -0.9790    1.2420   15.1335 C.3       3 GLC5        0.0000 
     39 CA         -0.5960    2.5660   16.8540 C.3       9 GLL5        0.0000 
     40 CA         -1.3620   -0.0820   13.4130 C.3       6 GLP5        0.0000 
     41 CA          3.9765    5.1570   17.9085 C.3       3 GLC5        0.0000 
     42 CA          2.5990    4.5690   16.3120 C.3       9 GLL5        0.0000 
     43 CA          5.3540    5.7450   19.5050 C.3       6 GLP5        0.0000 
     44 CA          0.0880    1.5410   13.5385 C.3       3 GLC5        0.0000 
     45 CA          0.6770    2.8580   14.7110 C.3       9 GLL5        0.0000 
     46 CA         -0.5010    0.2240   12.3660 C.3       6 GLP5        0.0000 
     47 CA         -0.8975    3.0185   13.3650 C.3       3 GLC5        0.0000 
     48 CA         -2.4720    3.1790   12.0190 C.3       6 GLP5        0.0000 
     49 CA         -1.7090   10.5045   12.7985 C.3       3 GLC5        0.0000 
     50 CA         -0.4700    8.6670   13.0460 C.3       9 GLL5        0.0000 
     51 CA         -2.9480   12.3420   12.5510 C.3       6 GLP5        0.0000 
     52 CA          0.6300   10.0565   11.8065 C.3       3 GLC5        0.0000 
     53 CA         -0.7375   10.0180   14.4385 C.3       3 GLC5        0.0000 
     54 CA         -1.0050   11.3690   15.8310 C.3       6 GLP5        0.0000 
     55 CA          4.0695    0.0845   18.1965 C.3       3 GLC5        0.0000 
     56 CA          3.8780    2.2130   17.9970 C.3       9 GLL5        0.0000 
     57 CA          4.2610   -2.0440   18.3960 C.3       6 GLP5        0.0000 
     58 CA          3.5735    1.9530   19.8420 C.3       3 GLC5        0.0000 
     59 CA          3.2690    1.6930   21.6870 C.3       6 GLP5        0.0000 
     60 CA          4.6160    3.9790   18.7510 C.3       3 GLC5        0.0000 
     61 CA          5.3475   -0.1455   14.0830 C.3       3 GLC5        0.0000 
     62 CA          3.2640   -0.6670   14.3610 C.3       9 GLL5        0.0000 
     63 CA          7.4310    0.3760   13.8050 C.3       6 GLP5        0.0000 
     64 CA          1.2240   -2.7645   11.9575 C.3       3 GLC5        0.0000 
     65 CA          1.3710   -2.3510   14.0030 C.3       9 GLL5        0.0000 
     66 CA          1.0770   -3.1780    9.9120 C.3       6 GLP5        0.0000 
     67 CA         -0.0110   -3.8665   13.8115 C.3       3 GLC5        0.0000 
     68 CA         -1.3930   -5.3820   13.6200 C.3       6 GLP5        0.0000 
     69 CA          1.3475   -3.7240   15.7805 C.3       3 GLC5        0.0000 
     70 CA          1.3240   -5.0970   17.5580 C.3       6 GLP5        0.0000 
     71 CA          2.3185   -2.8485   11.3440 C.3       3 GLC5        0.0000 
     72 CA          3.5600   -2.5190   12.7760 C.3       9 GLL5        0.0000 
     73 CA          4.4640   -3.3235   11.5400 C.3       3 GLC5        0.0000 
     74 CA          5.3680   -4.1280   10.3040 C.3       6 GLP5        0.0000 
     75 CA         -2.7577    5.2290   12.1423 C.3       3 GLC5        0.0000 
     76 CA         -2.3810    7.2000   12.6230 C.3       9 GLL5        0.0000 
     77 CA         -3.4207    8.1715   13.9962 C.3       3 GLC5        0.0000 
     78 CA         -3.7980    9.0640   15.7270 C.3       6 GLP5        0.0000 
     79 CA         -2.1007    4.6560   13.0183 C.3       3 GLC5        0.0000 
     80 CA         -2.3230    6.2880   13.6290 C.3       9 GLL5        0.0000 
     81 CA         -2.7637    7.5985   14.8723 C.3       3 GLC5        0.0000 
     82 CA         -2.3310    8.7108   14.1702 C.3       3 GLC5        0.0000 
     83 CA         -1.2580    8.0480   12.1810 C.3       9 GLL5        0.0000 
     84 CA         -2.1604    3.5126   14.0224 C.3       3 GLC5        0.0000 
     85 CA          0.6417    6.6920   17.3173 C.3       3 GLC5        0.0000 
     86 CA          0.2020    4.8470   16.1890 C.3       9 GLL5        0.0000 
     87 CA          0.4240    8.2040   18.6530 C.3       6 GLP5        0.0000 
     88 CA          3.7103   -1.0290   16.7269 C.3       3 GLC5        0.0000 
     89 CA          0.8614   -0.8252   13.2408 C.3       3 GLC5        0.0000 
@<TRIPOS>BOND
@<TRIPOS>SUBSTRUCTURE
     1 ALC1        9 GROUP        1 X    ALC  0     ROOT ALC X 1
     2 SEC2        1 GROUP        1 X    SEC  0     **** SEC X 2
     3 GLC5       12 GROUP        1 X    GLC  0     **** GLC X 6
     4 ALP1       11 GROUP        1 Y    ALP  0     ROOT ALP Y 8
     5 SEP2        3 GROUP        1 Y    SEP  0     **** SEP Y 9
     6 GLP5       14 GROUP        1 Y    GLP  0     **** GLP Y 13
     7 ALL1       10 GROUP        1 Z    ALL  0     ROOT ALL Z 15
     8 SEL2        2 GROUP        1 Z    SEL  0     **** SEL Z 16
     9 GLL5       13 GROUP        1 Z    GLL  0     **** GLL Z 20
@<TRIPOS>SET

