#    Name: 3cv9_VDX_1_ligand
#    Modification time : Mon Mar 24 22:21:51 2014

@<TRIPOS>MOLECULE
3cv9_VDX_1_ligand
   72    74     1     0     0
SMALL
NO_CHARGES


@<TRIPOS>ATOM
      1 O2         -4.6780    7.5120    9.6720 O.3       1 VDX501      0.0000 
      2 O3          3.3890   -2.9790   15.1370 O.3       1 VDX501      0.0000 
      3 C1         -1.0580    8.2230   10.7020 C.3       1 VDX501      0.0000 
      4 C2         -2.4240    8.4130   10.0230 C.3       1 VDX501      0.0000 
      5 C3         -3.4450    7.3330   10.3990 C.3       1 VDX501      0.0000 
      6 C4         -3.7060    7.3580   11.9080 C.3       1 VDX501      0.0000 
      7 C5         -2.3810    7.2000   12.6230 C.2       1 VDX501      0.0000 
      8 C6         -2.3230    6.2880   13.6290 C.2       1 VDX501      0.0000 
      9 C7         -1.1360    5.9780   14.4060 C.2       1 VDX501      0.0000 
     10 C8         -1.0920    5.1380   15.4690 C.2       1 VDX501      0.0000 
     11 C9         -2.3090    4.4130   16.0380 C.3       1 VDX501      0.0000 
     12 C10        -1.2580    8.0480   12.1810 C.2       1 VDX501      0.0000 
     13 C11        -1.9970    2.9170   16.2980 C.3       1 VDX501      0.0000 
     14 C12        -0.5960    2.5660   16.8540 C.3       1 VDX501      0.0000 
     15 C13         0.5230    3.3470   16.1670 C.3       1 VDX501      0.0000 
     16 C14         0.2020    4.8470   16.1890 C.3       1 VDX501      0.0000 
     17 C15         1.5170    5.5130   15.7740 C.3       1 VDX501      0.0000 
     18 C16         2.5990    4.5690   16.3120 C.3       1 VDX501      0.0000 
     19 C17         1.8660    3.3570   16.9050 C.3       1 VDX501      0.0000 
     20 C18         0.6770    2.8580   14.7110 C.3       1 VDX501      0.0000 
     21 C19        -0.4700    8.6670   13.0460 C.2       1 VDX501      0.0000 
     22 C20         2.6800    2.0290   17.0590 C.3       1 VDX501      0.0000 
     23 C21         3.8780    2.2130   17.9970 C.3       1 VDX501      0.0000 
     24 C22         3.2360    1.3770   15.7920 C.3       1 VDX501      0.0000 
     25 C23         2.8740   -0.0990   15.7170 C.3       1 VDX501      0.0000 
     26 C24         3.2640   -0.6670   14.3610 C.3       1 VDX501      0.0000 
     27 C25         2.8890   -2.1290   14.0950 C.3       1 VDX501      0.0000 
     28 C26         1.3710   -2.3510   14.0030 C.3       1 VDX501      0.0000 
     29 C27         3.5600   -2.5190   12.7760 C.3       1 VDX501      0.0000 
     30 O1         -0.5030    7.0160   10.2040 O.3       1 VDX501      0.0000 
     31 H          -0.4545    9.0593   10.5088 H         1 VDX501      0.0000 
     32 H          -2.2827    8.4083    8.9341 H         1 VDX501      0.0000 
     33 H          -2.8248    9.3967   10.3012 H         1 VDX501      0.0000 
     34 H          -3.0007    6.3654   10.1614 H         1 VDX501      0.0000 
     35 H          -4.3632    6.5420   12.1678 H         1 VDX501      0.0000 
     36 H          -4.1568    8.3019   12.1743 H         1 VDX501      0.0000 
     37 H          -3.1918    5.7417   13.8948 H         1 VDX501      0.0000 
     38 H          -0.2491    6.4683   14.0854 H         1 VDX501      0.0000 
     39 H          -3.1357    4.4792   15.3342 H         1 VDX501      0.0000 
     40 H          -2.6037    4.8757   16.9773 H         1 VDX501      0.0000 
     41 H          -2.1473    2.3582   15.3463 H         1 VDX501      0.0000 
     42 H          -2.7638    2.5170   17.0000 H         1 VDX501      0.0000 
     43 H          -0.4258    1.4931   16.7196 H         1 VDX501      0.0000 
     44 H          -0.5826    2.7802   17.9273 H         1 VDX501      0.0000 
     45 H           0.0680    5.0726   17.2830 H         1 VDX501      0.0000 
     46 H           1.6034    6.4601   16.2428 H         1 VDX501      0.0000 
     47 H           1.5774    5.5604   14.7165 H         1 VDX501      0.0000 
     48 H           3.1554    5.0618   17.0811 H         1 VDX501      0.0000 
     49 H           3.2278    4.2485   15.5084 H         1 VDX501      0.0000 
     50 H           1.5963    3.7047   17.9692 H         1 VDX501      0.0000 
     51 H           2.0254    1.2846   17.5549 H         1 VDX501      0.0000 
     52 H           4.3232    1.4841   15.7836 H         1 VDX501      0.0000 
     53 H           2.8320    1.8938   14.9184 H         1 VDX501      0.0000 
     54 H           1.8026   -0.2154   15.8626 H         1 VDX501      0.0000 
     55 H           3.4006   -0.6397   16.4999 H         1 VDX501      0.0000 
     56 H           4.3653   -0.5574   14.2287 H         1 VDX501      0.0000 
     57 H           2.8079   -0.0368   13.5627 H         1 VDX501      0.0000 
     58 H           1.4020    3.3498   14.2288 H         1 VDX501      0.0000 
     59 H           0.9041    1.8851   14.6680 H         1 VDX501      0.0000 
     60 H          -0.1639    2.9862   14.1853 H         1 VDX501      0.0000 
     61 H           4.4044    1.3687   18.0971 H         1 VDX501      0.0000 
     62 H           4.5082    2.9133   17.6616 H         1 VDX501      0.0000 
     63 H           3.5923    2.4908   18.9142 H         1 VDX501      0.0000 
     64 H           1.1470   -3.3016   13.7882 H         1 VDX501      0.0000 
     65 H           0.9103   -2.1283   14.8622 H         1 VDX501      0.0000 
     66 H           0.9552   -1.7840   13.2919 H         1 VDX501      0.0000 
     67 H           4.5539   -2.4180   12.8208 H         1 VDX501      0.0000 
     68 H           3.3728   -3.4703   12.5312 H         1 VDX501      0.0000 
     69 H           3.2418   -1.9526   12.0157 H         1 VDX501      0.0000 
     70 H          -5.3008    6.8246   10.0457 H         1 VDX501      0.0000 
     71 H           4.3644   -2.7673   15.1978 H         1 VDX501      0.0000 
     72 H          -0.8914    6.9111    9.2885 H         1 VDX501      0.0000 
@<TRIPOS>BOND
     1    5    1 1    
     2   70    1 1    
     3   27    2 1    
     4   71    2 1    
     5    4    3 1    
     6   12    3 1    
     7   30    3 1    
     8   31    3 1    
     9    5    4 1    
    10   32    4 1    
    11   33    4 1    
    12    6    5 1    
    13   34    5 1    
    14    7    6 1    
    15   35    6 1    
    16   36    6 1    
    17    8    7 2    
    18   12    7 1    
    19    9    8 1    
    20   37    8 1    
    21   10    9 2    
    22   38    9 1    
    23   11   10 1    
    24   16   10 1    
    25   13   11 1    
    26   39   11 1    
    27   40   11 1    
    28   21   12 2    
    29   14   13 1    
    30   41   13 1    
    31   42   13 1    
    32   15   14 1    
    33   43   14 1    
    34   44   14 1    
    35   16   15 1    
    36   19   15 1    
    37   20   15 1    
    38   17   16 1    
    39   45   16 1    
    40   18   17 1    
    41   46   17 1    
    42   47   17 1    
    43   19   18 1    
    44   48   18 1    
    45   49   18 1    
    46   22   19 1    
    47   50   19 1    
    48   58   20 1    
    49   59   20 1    
    50   60   20 1    
    51   23   22 1    
    52   24   22 1    
    53   51   22 1    
    54   61   23 1    
    55   62   23 1    
    56   63   23 1    
    57   25   24 1    
    58   52   24 1    
    59   53   24 1    
    60   26   25 1    
    61   54   25 1    
    62   55   25 1    
    63   27   26 1    
    64   56   26 1    
    65   57   26 1    
    66   28   27 1    
    67   29   27 1    
    68   64   28 1    
    69   65   28 1    
    70   66   28 1    
    71   67   29 1    
    72   68   29 1    
    73   69   29 1    
    74   72   30 1    
@<TRIPOS>SUBSTRUCTURE
     1 VDX501      1 GROUP   
@<TRIPOS>SET

