#    Name: 3b0t_MCZ_1_INTS_M
#    Modification time : Mon Mar 24 18:33:05 2014

@<TRIPOS>MOLECULE
3b0t_MCZ_1_INTS_M
  121     0     9     0     0
SMALL
NO_CHARGES


@<TRIPOS>ATOM
      1 CA        -14.3590   -8.3950   28.5715 C.3       3 GLC5        0.0000 
      2 CA        -14.1500   -8.1260   30.4680 C.3       9 GLL5        0.0000 
      3 CA        -14.5680   -8.6640   26.6750 C.3       6 GLP5        0.0000 
      4 CA        -15.5950   -6.9510   29.6620 C.3       3 GLC5        0.0000 
      5 CA        -17.0400   -5.7760   28.8560 C.3       6 GLP5        0.0000 
      6 N         -13.1630  -10.1050   29.0035 N.am      2 SEC2        0.0000 
      7 N         -13.1550   -8.7840   29.6780 N.am      8 SEL2        0.0000 
      8 N         -13.1710  -11.4260   28.3290 N.am      5 SEP2        0.0000 
      9 O         -11.9280   -9.2120   30.2045 O.2       1 ALC1        0.0000 
     10 O         -13.1550   -8.7840   29.6780 O.2       7 ALL1        0.0000 
     11 O         -10.7010   -9.6400   30.7310 O.2       4 ALP1        0.0000 
     12 CA        -17.0915   -9.7280   31.0895 C.3       3 GLC5        0.0000 
     13 CA        -15.8680   -8.4220   32.2920 C.3       9 GLL5        0.0000 
     14 CA        -18.3150  -11.0340   29.8870 C.3       6 GLP5        0.0000 
     15 CA        -17.0115   -9.8310   32.9830 C.3       3 GLC5        0.0000 
     16 CA        -18.1550  -11.2400   33.6740 C.3       6 GLP5        0.0000 
     17 CA        -16.4540   -7.0990   30.5740 C.3       3 GLC5        0.0000 
     18 N         -17.8185   -8.9195   31.0360 N.am      2 SEC2        0.0000 
     19 N         -16.9410   -7.9140   31.4650 N.am      8 SEL2        0.0000 
     20 N         -18.6960   -9.9250   30.6070 N.am      5 SEP2        0.0000 
     21 O         -17.8290   -7.0845   32.1775 O.2       1 ALC1        0.0000 
     22 O         -16.9410   -7.9140   31.4650 O.2       7 ALL1        0.0000 
     23 O         -18.7170   -6.2550   32.8900 O.2       4 ALP1        0.0000 
     24 CA        -13.3810   -7.9930   33.8365 C.3       3 GLC5        0.0000 
     25 CA        -15.2130   -7.2980   33.1190 C.3       9 GLL5        0.0000 
     26 CA        -11.5490   -8.6880   34.5540 C.3       6 GLP5        0.0000 
     27 CA        -15.3475   -1.8075   32.0205 C.3       3 GLC5        0.0000 
     28 CA        -13.5920   -2.6910   32.2760 C.3       9 GLL5        0.0000 
     29 CA        -17.1030   -0.9240   31.7650 C.3       6 GLP5        0.0000 
     30 CA        -15.6915   -1.6275   33.3655 C.3       3 GLC5        0.0000 
     31 CA        -14.1270   -2.1260   33.5710 C.3       9 GLL5        0.0000 
     32 CA        -17.2560   -1.1290   33.1600 C.3       6 GLP5        0.0000 
     33 CA        -12.5725   -7.8230   32.8895 C.3       3 GLC5        0.0000 
     34 CA        -13.5960   -6.9580   31.2250 C.3       9 GLL5        0.0000 
     35 CA        -11.6620   -2.3775   35.8365 C.3       3 GLC5        0.0000 
     36 CA        -12.9080   -1.6270   34.3860 C.3       9 GLL5        0.0000 
     37 CA        -10.4160   -3.1280   37.2870 C.3       6 GLP5        0.0000 
     38 CA        -14.9170   -0.8545   34.2105 C.3       3 GLC5        0.0000 
     39 CA        -16.9260   -0.0820   34.0350 C.3       6 GLP5        0.0000 
     40 CA        -10.7820   -0.7005   35.4055 C.3       3 GLC5        0.0000 
     41 CA        -12.0510   -0.6190   33.6160 C.3       9 GLL5        0.0000 
     42 CA         -9.5130   -0.7820   37.1950 C.3       6 GLP5        0.0000 
     43 CA        -14.7315   -0.6845   31.3850 C.3       3 GLC5        0.0000 
     44 CA        -12.8270   -1.6430   31.5340 C.3       9 GLL5        0.0000 
     45 CA        -16.6360    0.2740   31.2360 C.3       6 GLP5        0.0000 
     46 CA         -9.2875   -3.4680   32.0315 C.3       3 GLC5        0.0000 
     47 CA        -10.5960   -2.3120   32.4680 C.3       9 GLL5        0.0000 
     48 CA         -7.9790   -4.6240   31.5950 C.3       6 GLP5        0.0000 
     49 CA        -11.5450   -6.9725   32.8295 C.3       3 GLC5        0.0000 
     50 CA        -12.3060   -6.5770   31.1160 C.3       9 GLL5        0.0000 
     51 CA        -10.7840   -7.3680   34.5430 C.3       6 GLP5        0.0000 
     52 CA        -11.1065   -8.0995   30.3395 C.3       3 GLC5        0.0000 
     53 CA         -9.9070   -9.6220   29.5630 C.3       6 GLP5        0.0000 
     54 CA        -11.6015   -5.5715   29.5505 C.3       3 GLC5        0.0000 
     55 CA        -10.8970   -4.5660   27.9850 C.3       6 GLP5        0.0000 
     56 CA         -7.9920    2.6365   31.7510 C.3       3 GLC5        0.0000 
     57 CA         -9.6180    1.7850   30.6390 C.3       9 GLL5        0.0000 
     58 CA         -6.3660    3.4880   32.8630 C.3       6 GLP5        0.0000 
     59 CA         -9.1390    3.3810   29.8695 C.3       3 GLC5        0.0000 
     60 CA         -8.6600    4.9770   29.1000 C.3       6 GLP5        0.0000 
     61 CA        -11.6355    2.0965   30.1195 C.3       3 GLC5        0.0000 
     62 CA        -13.6530    2.4080   29.6000 C.3       6 GLP5        0.0000 
     63 CA         -7.8760    1.8255   29.4240 C.3       3 GLC5        0.0000 
     64 CA         -6.1340    1.8660   28.2090 C.3       6 GLP5        0.0000 
     65 CA         -6.9215    1.7555   32.3830 C.3       3 GLC5        0.0000 
     66 CA         -7.4770    0.0230   31.9030 C.3       9 GLL5        0.0000 
     67 CA         -7.2060   -2.8365   31.6015 C.3       3 GLC5        0.0000 
     68 CA         -6.4330   -1.0490   31.6080 C.3       9 GLL5        0.0000 
     69 CA         -3.9125   -0.3845   34.9100 C.3       3 GLC5        0.0000 
     70 CA         -4.8270   -0.3290   33.4310 C.3       9 GLL5        0.0000 
     71 CA         -2.9980   -0.4400   36.3890 C.3       6 GLP5        0.0000 
     72 CA         -3.2170    1.1795   33.8335 C.3       3 GLC5        0.0000 
     73 CA         -1.6070    2.6880   34.2360 C.3       6 GLP5        0.0000 
     74 CA         -5.1360   -3.5685   30.7480 C.3       3 GLC5        0.0000 
     75 CA         -4.0580   -1.7820   31.5150 C.3       9 GLL5        0.0000 
     76 CA         -6.2140   -5.3550   29.9810 C.3       6 GLP5        0.0000 
     77 CA         -2.4015   -0.5605   30.7055 C.3       3 GLC5        0.0000 
     78 CA         -0.7450    0.6610   29.8960 C.3       6 GLP5        0.0000 
     79 CA         -2.4650   -2.9755   31.2365 C.3       3 GLC5        0.0000 
     80 CA         -0.8720   -4.1690   30.9580 C.3       6 GLP5        0.0000 
     81 CA         -3.7255   -2.6290   29.4880 C.3       3 GLC5        0.0000 
     82 CA         -3.3930   -3.4760   27.4610 C.3       6 GLP5        0.0000 
     83 N          -4.8975    0.6765   29.8650 N.am      2 SEC2        0.0000 
     84 N          -4.5510    0.4900   31.2270 N.am      8 SEL2        0.0000 
     85 N          -5.2440    0.8630   28.5030 N.am      5 SEP2        0.0000 
     86 O          -5.0465    1.7570   31.5500 O.2       1 ALC1        0.0000 
     87 O          -4.5510    0.4900   31.2270 O.2       7 ALL1        0.0000 
     88 O          -5.5420    3.0240   31.8730 O.2       4 ALP1        0.0000 
     89 CA        -15.8545   -9.7900   30.0048 C.3       3 GLC5        0.0000 
     90 CA        -17.2300  -10.9600   29.0570 C.3       6 GLP5        0.0000 
     91 CA        -17.6197   -7.5255   32.9873 C.3       3 GLC5        0.0000 
     92 CA        -19.6990   -7.1910   33.2690 C.3       6 GLP5        0.0000 
     93 CA        -16.4602   -7.7995   34.3498 C.3       3 GLC5        0.0000 
     94 CA        -17.3800   -7.7390   35.9940 C.3       6 GLP5        0.0000 
     95 CA        -14.6968   -9.3880   33.9059 C.3       3 GLC5        0.0000 
     96 CA        -14.1180  -10.7430   35.3200 C.3       6 GLP5        0.0000 
     97 CA        -15.9935   -3.7400   32.1280 C.3       3 GLC5        0.0000 
     98 CA        -14.5090   -5.0050   32.5270 C.3       9 GLL5        0.0000 
     99 CA        -17.8410   -3.0050   32.0860 C.3       6 GLP5        0.0000 
    100 CA        -12.8840   -5.5060   33.5691 C.3       3 GLC5        0.0000 
    101 CA        -13.7830   -3.9450   31.8130 C.3       9 GLL5        0.0000 
    102 CA        -11.6400   -6.2050   35.0370 C.3       6 GLP5        0.0000 
    103 CA        -14.8948   -3.9910   30.6863 C.3       3 GLC5        0.0000 
    104 CA        -16.1020   -4.6640   29.3280 C.3       6 GLP5        0.0000 
    105 CA        -14.3667   -1.9002   35.8512 C.3       3 GLC5        0.0000 
    106 CA        -15.2160   -1.9240   37.7240 C.3       6 GLP5        0.0000 
    107 CA        -15.0683   -5.4887   30.5676 C.3       3 GLC5        0.0000 
    108 CA        -14.4370   -6.3330   32.2520 C.3       9 GLL5        0.0000 
    109 CA        -12.4973    0.7285   34.6810 C.3       3 GLC5        0.0000 
    110 CA        -12.5150    2.5800   35.3610 C.3       6 GLP5        0.0000 
    111 CA        -11.3573   -2.9537   28.9947 C.3       3 GLC5        0.0000 
    112 CA        -11.2850   -0.8030   29.9000 C.3       9 GLL5        0.0000 
    113 CA        -12.2347   -0.9917   27.9147 C.3       3 GLC5        0.0000 
    114 CA        -12.3500   -1.8800   30.1090 C.3       9 GLL5        0.0000 
    115 CA        -12.6520   -0.6420   25.8250 C.3       6 GLP5        0.0000 
    116 CA        -12.4275    0.9732   30.0920 C.3       3 GLC5        0.0000 
    117 CA        -10.0980    2.3860   32.6700 C.3       3 GLC5        0.0000 
    118 CA        -10.5090    3.6090   34.2610 C.3       6 GLP5        0.0000 
    119 CA         -6.5445    0.6765   29.9823 C.3       3 GLC5        0.0000 
    120 CA         -5.6378    1.4965   32.7772 C.3       3 GLC5        0.0000 
    121 CA         -4.9920   -0.6610   31.9520 C.3       9 GLL5        0.0000 
@<TRIPOS>BOND
@<TRIPOS>SUBSTRUCTURE
     1 ALC1        9 GROUP        1 X    ALC  0     ROOT ALC X 1
     2 SEC2        6 GROUP        1 X    SEC  0     **** SEC X 2
     3 GLC5        1 GROUP        1 X    GLC  0     **** GLC X 6
     4 ALP1       11 GROUP        1 Y    ALP  0     ROOT ALP Y 8
     5 SEP2        8 GROUP        1 Y    SEP  0     **** SEP Y 9
     6 GLP5        3 GROUP        1 Y    GLP  0     **** GLP Y 13
     7 ALL1       10 GROUP        1 Z    ALL  0     ROOT ALL Z 15
     8 SEL2        7 GROUP        1 Z    SEL  0     **** SEL Z 16
     9 GLL5        2 GROUP        1 Z    GLL  0     **** GLL Z 20
@<TRIPOS>SET

