#    Name: 3b0t_MCZ_1_ligand
#    Modification time : Mon Mar 24 18:33:05 2014

@<TRIPOS>MOLECULE
3b0t_MCZ_1_ligand
   70    72     1     0     0
SMALL
NO_CHARGES


@<TRIPOS>ATOM
      1 C1        -14.1500   -8.1260   30.4680 C.3       1 MCZ1        0.0000 
      2 O1        -13.1550   -8.7840   29.6780 O.3       1 MCZ1        0.0000 
      3 C2        -14.8080   -9.1140   31.4370 C.3       1 MCZ1        0.0000 
      4 C3        -15.8680   -8.4220   32.2920 C.3       1 MCZ1        0.0000 
      5 O3        -16.9410   -7.9140   31.4650 O.3       1 MCZ1        0.0000 
      6 C4        -15.2130   -7.2980   33.1190 C.3       1 MCZ1        0.0000 
      7 C5        -14.4370   -6.3330   32.2520 C.2       1 MCZ1        0.0000 
      8 C6        -14.5090   -5.0050   32.5270 C.2       1 MCZ1        0.0000 
      9 C7        -13.7830   -3.9450   31.8130 C.2       1 MCZ1        0.0000 
     10 C8        -13.5920   -2.6910   32.2760 C.2       1 MCZ1        0.0000 
     11 C9        -14.1270   -2.1260   33.5710 C.3       1 MCZ1        0.0000 
     12 C10       -13.5960   -6.9580   31.2250 C.2       1 MCZ1        0.0000 
     13 C11       -12.9080   -1.6270   34.3860 C.3       1 MCZ1        0.0000 
     14 C12       -12.0510   -0.6190   33.6160 C.3       1 MCZ1        0.0000 
     15 C13       -11.5960   -1.1700   32.2750 C.3       1 MCZ1        0.0000 
     16 C14       -12.8270   -1.6430   31.5340 C.3       1 MCZ1        0.0000 
     17 C15       -12.3500   -1.8800   30.1090 C.3       1 MCZ1        0.0000 
     18 C16       -11.2850   -0.8030   29.9000 C.3       1 MCZ1        0.0000 
     19 C17       -11.1190   -0.1200   31.2680 C.3       1 MCZ1        0.0000 
     20 C18       -10.5960   -2.3120   32.4680 C.3       1 MCZ1        0.0000 
     21 C19       -12.3060   -6.5770   31.1160 C.2       1 MCZ1        0.0000 
     22 C20        -9.7560    0.5410   31.5190 C.3       1 MCZ1        0.0000 
     23 C21        -9.6180    1.7850   30.6390 C.3       1 MCZ1        0.0000 
     24 O22        -8.6910   -0.3610   31.2430 O.3       1 MCZ1        0.0000 
     25 C23        -7.4770    0.0230   31.9030 C.3       1 MCZ1        0.0000 
     26 C24        -6.4330   -1.0490   31.6080 C.3       1 MCZ1        0.0000 
     27 C25        -4.9920   -0.6610   31.9520 C.3       1 MCZ1        0.0000 
     28 C26        -4.8270   -0.3290   33.4310 C.3       1 MCZ1        0.0000 
     29 C27        -4.0580   -1.7820   31.5150 C.3       1 MCZ1        0.0000 
     30 O28        -4.5510    0.4900   31.2270 O.3       1 MCZ1        0.0000 
     31 H         -14.9580   -7.7496   29.8167 H         1 MCZ1        0.0000 
     32 H         -14.0437   -9.5403   32.0858 H         1 MCZ1        0.0000 
     33 H         -15.2732   -9.9172   30.8666 H         1 MCZ1        0.0000 
     34 H         -16.2500   -9.1613   32.9994 H         1 MCZ1        0.0000 
     35 H         -14.5439   -7.7528   33.8561 H         1 MCZ1        0.0000 
     36 H         -15.9984   -6.7601   33.6590 H         1 MCZ1        0.0000 
     37 H         -15.1296   -4.6597   33.3156 H         1 MCZ1        0.0000 
     38 H         -13.3991   -4.2328   30.8692 H         1 MCZ1        0.0000 
     39 H         -14.6288   -2.8901   34.1322 H         1 MCZ1        0.0000 
     40 H         -14.7759   -1.2946   33.3754 H         1 MCZ1        0.0000 
     41 H         -12.2934   -2.4908   34.6593 H         1 MCZ1        0.0000 
     42 H         -13.2711   -1.1633   35.3089 H         1 MCZ1        0.0000 
     43 H         -11.1754   -0.3630   34.2196 H         1 MCZ1        0.0000 
     44 H         -12.6334    0.2929   33.4554 H         1 MCZ1        0.0000 
     45 H         -13.4771   -0.7049   31.4762 H         1 MCZ1        0.0000 
     46 H         -13.1495   -1.7286   29.4289 H         1 MCZ1        0.0000 
     47 H         -11.9073   -2.8404   30.0296 H         1 MCZ1        0.0000 
     48 H         -11.6271   -0.0899   29.1862 H         1 MCZ1        0.0000 
     49 H         -10.3637   -1.2560   29.6151 H         1 MCZ1        0.0000 
     50 H         -11.9087    0.6844   31.2813 H         1 MCZ1        0.0000 
     51 H          -9.7352    0.8700   32.5534 H         1 MCZ1        0.0000 
     52 H          -7.6046    0.0831   32.9806 H         1 MCZ1        0.0000 
     53 H          -7.0996    0.9731   31.5339 H         1 MCZ1        0.0000 
     54 H          -6.4823   -1.3118   30.5339 H         1 MCZ1        0.0000 
     55 H          -6.6951   -1.9683   32.1660 H         1 MCZ1        0.0000 
     56 H         -10.2831   -2.6834   31.5938 H         1 MCZ1        0.0000 
     57 H          -9.7828   -2.0131   32.9674 H         1 MCZ1        0.0000 
     58 H         -10.9939   -3.0710   32.9833 H         1 MCZ1        0.0000 
     59 H          -8.7405    2.2436   30.7792 H         1 MCZ1        0.0000 
     60 H          -9.6794    1.5606   29.6664 H         1 MCZ1        0.0000 
     61 H         -10.3336    2.4567   30.8306 H         1 MCZ1        0.0000 
     62 H          -3.8859   -0.0726   33.6513 H         1 MCZ1        0.0000 
     63 H          -5.4111    0.4340   33.7078 H         1 MCZ1        0.0000 
     64 H          -5.0635   -1.1058   34.0146 H         1 MCZ1        0.0000 
     65 H          -3.1029   -1.5727   31.7250 H         1 MCZ1        0.0000 
     66 H          -4.2758   -2.6454   31.9700 H         1 MCZ1        0.0000 
     67 H          -4.1121   -1.9478   30.5303 H         1 MCZ1        0.0000 
     68 H         -12.4139   -8.9922   30.3163 H         1 MCZ1        0.0000 
     69 H         -17.4371   -7.2725   32.0501 H         1 MCZ1        0.0000 
     70 H          -5.2005    1.2426   31.3362 H         1 MCZ1        0.0000 
@<TRIPOS>BOND
     1    2    1 1    
     2    3    1 1    
     3   12    1 1    
     4   31    1 1    
     5   68    2 1    
     6    4    3 1    
     7   32    3 1    
     8   33    3 1    
     9    5    4 1    
    10    6    4 1    
    11   34    4 1    
    12   69    5 1    
    13    7    6 1    
    14   35    6 1    
    15   36    6 1    
    16    8    7 2    
    17   12    7 1    
    18    9    8 1    
    19   37    8 1    
    20   10    9 2    
    21   38    9 1    
    22   11   10 1    
    23   16   10 1    
    24   13   11 1    
    25   39   11 1    
    26   40   11 1    
    27   21   12 2    
    28   14   13 1    
    29   41   13 1    
    30   42   13 1    
    31   15   14 1    
    32   43   14 1    
    33   44   14 1    
    34   16   15 1    
    35   19   15 1    
    36   20   15 1    
    37   17   16 1    
    38   45   16 1    
    39   18   17 1    
    40   46   17 1    
    41   47   17 1    
    42   19   18 1    
    43   48   18 1    
    44   49   18 1    
    45   22   19 1    
    46   50   19 1    
    47   56   20 1    
    48   57   20 1    
    49   58   20 1    
    50   23   22 1    
    51   24   22 1    
    52   51   22 1    
    53   59   23 1    
    54   60   23 1    
    55   61   23 1    
    56   25   24 1    
    57   26   25 1    
    58   52   25 1    
    59   53   25 1    
    60   27   26 1    
    61   54   26 1    
    62   55   26 1    
    63   28   27 1    
    64   29   27 1    
    65   30   27 1    
    66   62   28 1    
    67   63   28 1    
    68   64   28 1    
    69   65   29 1    
    70   66   29 1    
    71   67   29 1    
    72   70   30 1    
@<TRIPOS>SUBSTRUCTURE
     1 MCZ1        1 GROUP   
@<TRIPOS>SET

