#    Name: 3l9l_L9L_2_INTS_M
#    Modification time : Mon Mar 24 21:11:27 2014

@<TRIPOS>MOLECULE
3l9l_L9L_2_INTS_M
   82     0    12     0     0
SMALL
NO_CHARGES


@<TRIPOS>ATOM
      1 CA         73.1015   88.7050   27.2950 C.3       4 GLC5        0.0000 
      2 CA         73.1950   90.4010   26.4080 C.3      12 GLL5        0.0000 
      3 CA         73.0080   87.0090   28.1820 C.3       8 GLP5        0.0000 
      4 CA         79.8380   92.6415   24.0385 C.3       4 GLC5        0.0000 
      5 CA         78.4460   93.7320   24.3840 C.3      12 GLL5        0.0000 
      6 CA         81.2300   91.5510   23.6930 C.3       8 GLP5        0.0000 
      7 CA         79.9310   94.6025   25.1640 C.3       4 GLC5        0.0000 
      8 CA         81.4160   95.4730   25.9440 C.3       8 GLP5        0.0000 
      9 CA         78.6715   92.7620   26.0170 C.3       4 GLC5        0.0000 
     10 CA         78.8970   91.7920   27.6500 C.3       8 GLP5        0.0000 
     11 N          75.7000   88.0270   20.7075 N.am      2 SEC2        0.0000 
     12 N          76.1080   88.9700   21.6290 N.am     10 SEL2        0.0000 
     13 N          75.2920   87.0840   19.7860 N.am      6 SEP2        0.0000 
     14 CA         71.8710   88.2430   24.7255 C.3       4 GLC5        0.0000 
     15 CA         73.3310   89.3800   25.4000 C.3      12 GLL5        0.0000 
     16 CA         70.4110   87.1060   24.0510 C.3       8 GLP5        0.0000 
     17 CA         79.9965   95.3920   24.3165 C.3       4 GLC5        0.0000 
     18 CA         78.5770   95.3110   22.6890 C.3      12 GLL5        0.0000 
     19 CA         79.2755   94.2935   21.3925 C.3       4 GLC5        0.0000 
     20 CA         79.9740   93.2760   20.0960 C.3       8 GLP5        0.0000 
     21 N          72.9590   93.5975   30.8590 N.am      2 SEC2        0.0000 
     22 N          72.9650   93.7070   29.4420 N.am     10 SEL2        0.0000 
     23 N          72.9530   93.4880   32.2760 N.am      6 SEP2        0.0000 
     24 CA         75.5965   93.6000   21.3815 C.3       4 GLC5        0.0000 
     25 CA         76.9290   93.7350   22.6830 C.3      12 GLL5        0.0000 
     26 CA         74.2640   93.4650   20.0800 C.3       8 GLP5        0.0000 
     27 OD1        71.9645   98.0310   28.9725 O.co2     3 ASC3        0.0000 
     28 OD1        72.6480   98.6170   28.0160 O.co2    11 ASL3        0.0000 
     29 OD1        71.2810   97.4450   29.9290 O.co2     7 ASP3        0.0000 
     30 O          71.7665   98.7090   26.9745 O.2       1 ALC1        0.0000 
     31 O          72.6480   98.6170   28.0160 O.2       9 ALL1        0.0000 
     32 O          70.8850   98.8010   25.9330 O.2       5 ALP1        0.0000 
     33 O          71.9645   98.0310   28.9725 O.2       1 ALC1        0.0000 
     34 O          71.2810   97.4450   29.9290 O.2       5 ALP1        0.0000 
     35 O          74.3085   87.5170   23.2455 O.2       1 ALC1        0.0000 
     36 O          74.6400   88.9170   23.3400 O.2       9 ALL1        0.0000 
     37 O          73.9770   86.1170   23.1510 O.2       5 ALP1        0.0000 
     38 CA         75.8690   92.0135   27.4550 C.3       4 GLC5        0.0000 
     39 CA         73.9960   91.6190   26.4690 C.3      12 GLL5        0.0000 
     40 CA         77.7420   92.4080   28.4410 C.3       8 GLP5        0.0000 
     41 CA         71.8010   96.7020   28.0510 C.3       4 GLC5        0.0000 
     42 CA         73.5870   97.6380   27.4310 C.3      12 GLL5        0.0000 
     43 CA         70.0150   95.7660   28.6710 C.3       8 GLP5        0.0000 
     44 CA         73.7885   92.1130   30.3655 C.3       4 GLC5        0.0000 
     45 CA         73.0250   92.5620   28.6730 C.3      12 GLL5        0.0000 
     46 CA         74.5520   91.6640   32.0580 C.3       8 GLP5        0.0000 
     47 CA         71.1965   93.4800   28.8080 C.3       4 GLC5        0.0000 
     48 CA         69.3680   94.3980   28.9430 C.3       8 GLP5        0.0000 
     49 CA         75.6490   97.2045   29.9035 C.3       4 GLC5        0.0000 
     50 CA         74.4910   97.0770   28.5370 C.3      12 GLL5        0.0000 
     51 CA         76.8070   97.3320   31.2700 C.3       8 GLP5        0.0000 
     52 CA         79.4345   96.0040   25.5555 C.3       4 GLC5        0.0000 
     53 CA         77.4530   96.5350   25.1670 C.3      12 GLL5        0.0000 
     54 CA         78.2045   90.0300   23.2890 C.3       4 GLC5        0.0000 
     55 CA         76.1790   90.7270   23.3230 C.3      12 GLL5        0.0000 
     56 CA         80.2300   89.3330   23.2550 C.3       8 GLP5        0.0000 
     57 CA         77.2820   90.6885   25.0540 C.3       4 GLC5        0.0000 
     58 CA         78.3850   90.6500   26.7850 C.3       8 GLP5        0.0000 
     59 CA         77.4755   91.6545   21.7460 C.3       4 GLC5        0.0000 
     60 CA         78.7720   92.5820   20.1690 C.3       8 GLP5        0.0000 
     61 CA         72.1195   90.9567   24.9480 C.3       4 GLC5        0.0000 
     62 CA         70.9760   92.0230   23.9920 C.3       8 GLP5        0.0000 
     63 CA         75.9510   92.9470   27.9457 C.3       4 GLC5        0.0000 
     64 CA         74.4970   94.2760   27.3910 C.3      12 GLL5        0.0000 
     65 CA         75.3305   88.4098   24.8873 C.3       4 GLC5        0.0000 
     66 CA         74.3470   89.6450   24.4170 C.3      12 GLL5        0.0000 
     67 CA         76.8220   87.3070   24.8660 C.3       8 GLP5        0.0000 
     68 CA         73.4305   87.8427   25.9177 C.3       4 GLC5        0.0000 
     69 CA         73.0220   86.1730   26.9270 C.3       8 GLP5        0.0000 
     70 CA         77.1568   95.3632   21.4201 C.3       4 GLC5        0.0000 
     71 CA         76.7620   96.4070   19.9630 C.3       8 GLP5        0.0000 
     72 CA         78.1454   93.2534   21.7350 C.3       4 GLC5        0.0000 
     73 CA         76.7385   90.9780   25.8607 C.3       4 GLC5        0.0000 
     74 CA         75.1690   90.8020   24.4350 C.3      12 GLL5        0.0000 
     75 CA         76.2480   89.0358   24.3725 C.3       4 GLC5        0.0000 
     76 CA         72.9312   91.5199   24.4620 C.3       4 GLC5        0.0000 
     77 CA         72.0491   92.6139   26.5086 C.3       4 GLC5        0.0000 
     78 CA         70.6310   92.8680   25.1860 C.3       8 GLP5        0.0000 
     79 CA         76.4562   95.9652   22.0630 C.3       4 GLC5        0.0000 
     80 CA         75.4190   95.5350   24.0720 C.3      12 GLL5        0.0000 
     81 CA         74.2818   91.0566   22.6163 C.3       4 GLC5        0.0000 
     82 CA         73.0950   91.6380   21.3580 C.3       8 GLP5        0.0000 
@<TRIPOS>BOND
@<TRIPOS>SUBSTRUCTURE
     1 ALC1       30 GROUP        1 X    ALC  0     ROOT ALC X 1
     2 SEC2       11 GROUP        1 X    SEC  0     **** SEC X 2
     3 ASC3       27 GROUP        1 X    ASC  0     **** ASC X 3
     4 GLC5        1 GROUP        1 X    GLC  0     **** GLC X 6
     5 ALP1       32 GROUP        1 Y    ALP  0     ROOT ALP Y 8
     6 SEP2       13 GROUP        1 Y    SEP  0     **** SEP Y 9
     7 ASP3       29 GROUP        1 Y    ASP  0     **** ASP Y 10
     8 GLP5        3 GROUP        1 Y    GLP  0     **** GLP Y 13
     9 ALL1       31 GROUP        1 Z    ALL  0     ROOT ALL Z 15
    10 SEL2       12 GROUP        1 Z    SEL  0     **** SEL Z 16
    11 ASL3       28 GROUP        1 Z    ASL  0     **** ASL Z 17
    12 GLL5        2 GROUP        1 Z    GLL  0     **** GLL Z 20
@<TRIPOS>SET

