#    Name: 3l9l_L9L_2_ligand
#    Modification time : Mon Mar 24 21:11:27 2014

@<TRIPOS>MOLECULE
3l9l_L9L_2_ligand
   50    53     1     0     0
SMALL
NO_CHARGES


@<TRIPOS>ATOM
      1 C1         73.1950   90.4010   26.4080 C.ar      1 L9L351      0.0000 
      2 F1         78.4460   93.7320   24.3840 F         1 L9L351      0.0000 
      3 N1         73.8210   96.0850   29.3760 N.pl3     1 L9L351      0.0000 
      4 O1         76.1080   88.9700   21.6290 O.2       1 L9L351      0.0000 
      5 S1         74.4970   94.2760   27.3910 S.3       1 L9L351      0.0000 
      6 C2         73.3310   89.3800   25.4000 C.ar      1 L9L351      0.0000 
      7 F2         78.5770   95.3110   22.6890 F         1 L9L351      0.0000 
      8 N2         72.9650   93.7070   29.4420 N.2       1 L9L351      0.0000 
      9 C3         74.3470   89.6450   24.4170 C.ar      1 L9L351      0.0000 
     10 F3         76.9290   93.7350   22.6830 F         1 L9L351      0.0000 
     11 N3         72.6480   98.6170   28.0160 N.4       1 L9L351      0.0000 
     12 C4         75.1690   90.8020   24.4350 C.ar      1 L9L351      0.0000 
     13 N4         74.6400   88.9170   23.3400 N.am      1 L9L351      0.0000 
     14 C5         75.0150   91.8100   25.4380 C.ar      1 L9L351      0.0000 
     15 C6         73.9960   91.6190   26.4690 C.ar      1 L9L351      0.0000 
     16 C7         73.5870   97.6380   27.4310 C.3       1 L9L351      0.0000 
     17 C8         75.6600   89.4430   22.6480 C.2       1 L9L351      0.0000 
     18 C9         73.8230   92.6960   27.5100 C.2       1 L9L351      0.0000 
     19 C10        73.0250   92.5620   28.6730 C.2       1 L9L351      0.0000 
     20 C11        73.7240   94.7120   28.8710 C.2       1 L9L351      0.0000 
     21 C12        74.4910   97.0770   28.5370 C.3       1 L9L351      0.0000 
     22 C13        74.5800   96.5550   24.6330 C.ar      1 L9L351      0.0000 
     23 C14        75.4190   95.5350   24.0720 C.ar      1 L9L351      0.0000 
     24 C15        76.8820   95.5120   24.2540 C.ar      1 L9L351      0.0000 
     25 C16        77.4530   96.5350   25.1670 C.ar      1 L9L351      0.0000 
     26 C17        76.6270   97.5170   25.8240 C.ar      1 L9L351      0.0000 
     27 C18        75.2230   97.4470   25.5390 C.ar      1 L9L351      0.0000 
     28 C19        77.7710   94.4970   23.4540 C.3       1 L9L351      0.0000 
     29 C20        74.3100   98.3480   26.2830 C.3       1 L9L351      0.0000 
     30 C21        76.1790   90.7270   23.3230 C.3       1 L9L351      0.0000 
     31 H          72.4745   90.2661   27.1500 H         1 L9L351      0.0000 
     32 H          73.4445   96.3302   30.2565 H         1 L9L351      0.0000 
     33 H          72.7806   88.5786   25.3868 H         1 L9L351      0.0000 
     34 H          74.1640   88.0869   23.0789 H         1 L9L351      0.0000 
     35 H          75.5838   92.6313   25.4465 H         1 L9L351      0.0000 
     36 H          73.0029   96.8203   27.0092 H         1 L9L351      0.0000 
     37 H          72.5641   91.7232   28.8955 H         1 L9L351      0.0000 
     38 H          75.3842   96.6405   28.0540 H         1 L9L351      0.0000 
     39 H          74.8464   97.9277   29.1466 H         1 L9L351      0.0000 
     40 H          73.6270   96.6291   24.4046 H         1 L9L351      0.0000 
     41 H          74.9969   94.7798   23.5160 H         1 L9L351      0.0000 
     42 H          78.4597   96.5273   25.3215 H         1 L9L351      0.0000 
     43 H          77.0063   98.1921   26.4299 H         1 L9L351      0.0000 
     44 H          74.8724   99.1971   26.7020 H         1 L9L351      0.0000 
     45 H          73.5510   98.7657   25.6030 H         1 L9L351      0.0000 
     46 H          77.1335   90.5564   23.7003 H         1 L9L351      0.0000 
     47 H          76.0700   91.5286   22.6688 H         1 L9L351      0.0000 
     48 H          72.0656   98.2013   28.7146 H         1 L9L351      0.0000 
     49 H          73.1286   99.3788   28.4504 H         1 L9L351      0.0000 
     50 H          72.0417   99.0093   27.3242 H         1 L9L351      0.0000 
@<TRIPOS>BOND
     1    6    1 ar   
     2   15    1 ar   
     3   31    1 1    
     4   28    2 1    
     5   20    3 1    
     6   21    3 1    
     7   32    3 1    
     8   17    4 2    
     9   18    5 1    
    10   20    5 1    
    11    9    6 ar   
    12   33    6 1    
    13   28    7 1    
    14   19    8 1    
    15   20    8 2    
    16   12    9 ar   
    17   13    9 1    
    18   28   10 1    
    19   16   11 1    
    20   48   11 1    
    21   49   11 1    
    22   50   11 1    
    23   14   12 ar   
    24   30   12 1    
    25   17   13 am   
    26   34   13 1    
    27   15   14 ar   
    28   35   14 1    
    29   18   15 1    
    30   21   16 1    
    31   29   16 1    
    32   36   16 1    
    33   30   17 1    
    34   19   18 2    
    35   37   19 1    
    36   38   21 1    
    37   39   21 1    
    38   23   22 ar   
    39   27   22 ar   
    40   40   22 1    
    41   24   23 ar   
    42   41   23 1    
    43   25   24 ar   
    44   28   24 1    
    45   26   25 ar   
    46   42   25 1    
    47   27   26 ar   
    48   43   26 1    
    49   29   27 1    
    50   44   29 1    
    51   45   29 1    
    52   46   30 1    
    53   47   30 1    
@<TRIPOS>SUBSTRUCTURE
     1 L9L351      1 GROUP   
@<TRIPOS>SET

