#    Name: 1j7k_ATP_1_INTS_M
#    Modification time : Tue Mar 25 08:38:02 2014

@<TRIPOS>MOLECULE
1j7k_ATP_1_INTS_M
   89     0    12     0     0
SMALL
NO_CHARGES


@<TRIPOS>ATOM
      1 NZ         66.8545  -18.0515  -24.3815 N.4       3 LYC4        0.0000 
      2 NZ         67.1330  -19.1660  -25.8050 N.4      11 LYL4        0.0000 
      3 NZ         66.5760  -16.9370  -22.9580 N.4       7 LYP4        0.0000 
      4 N          67.5820  -20.1750  -24.9630 N.am      2 SEC2        0.0000 
      5 N          67.1330  -19.1660  -25.8050 N.am     10 SEL2        0.0000 
      6 N          68.0310  -21.1840  -24.1210 N.am      6 SEP2        0.0000 
      7 NZ         65.8360  -17.9235  -23.7340 N.4       3 LYC4        0.0000 
      8 NZ         65.0960  -18.9100  -24.5100 N.4      11 LYL4        0.0000 
      9 N          65.3345  -20.2940  -23.6750 N.am      2 SEC2        0.0000 
     10 N          65.0960  -18.9100  -24.5100 N.am     10 SEL2        0.0000 
     11 N          65.5730  -21.6780  -22.8400 N.am      6 SEP2        0.0000 
     12 N          64.1200  -20.0180  -24.2415 N.am      2 SEC2        0.0000 
     13 N          63.1440  -21.1260  -23.9730 N.am      6 SEP2        0.0000 
     14 N          63.7435  -18.7055  -24.6470 N.am      2 SEC2        0.0000 
     15 N          62.3910  -18.5010  -24.7840 N.am      6 SEP2        0.0000 
     16 N          65.8360  -17.9235  -23.7340 N.am      2 SEC2        0.0000 
     17 N          66.5760  -16.9370  -22.9580 N.am      6 SEP2        0.0000 
     18 N          63.8945  -17.7095  -27.1450 N.am      2 SEC2        0.0000 
     19 N          65.2410  -18.0840  -26.9120 N.am     10 SEL2        0.0000 
     20 N          62.5480  -17.3350  -27.3780 N.am      6 SEP2        0.0000 
     21 N          64.9815  -17.5580  -28.0910 N.am      2 SEC2        0.0000 
     22 N          64.7220  -17.0320  -29.2700 N.am      6 SEP2        0.0000 
     23 N          64.7605  -20.8810  -30.1465 N.am      2 SEC2        0.0000 
     24 N          65.3690  -20.8350  -28.8090 N.am     10 SEL2        0.0000 
     25 N          64.1520  -20.9270  -31.4840 N.am      6 SEP2        0.0000 
     26 N          66.7395  -21.1380  -28.5300 N.am      2 SEC2        0.0000 
     27 N          68.1100  -21.4410  -28.2510 N.am      6 SEP2        0.0000 
     28 N          61.9795  -19.8325  -28.1765 N.am      2 SEC2        0.0000 
     29 N          63.0810  -20.5660  -27.7140 N.am     10 SEL2        0.0000 
     30 N          60.8780  -19.0990  -28.6390 N.am      6 SEP2        0.0000 
     31 N          61.9720  -21.3070  -28.2350 N.am      2 SEC2        0.0000 
     32 N          60.8630  -22.0480  -28.7560 N.am      6 SEP2        0.0000 
     33 N          64.1910  -20.8420  -25.1395 N.am      2 SEC2        0.0000 
     34 N          65.2380  -20.5580  -26.3060 N.am     10 SEL2        0.0000 
     35 NZ         63.9245  -22.2240  -30.4875 N.4       3 LYC4        0.0000 
     36 NZ         63.6970  -23.5210  -29.4910 N.4      11 LYL4        0.0000 
     37 NZ         62.9750  -21.2490  -31.9960 N.4       7 LYP4        0.0000 
     38 N          63.0160  -22.9240  -30.5250 N.am      2 SEC2        0.0000 
     39 N          63.6970  -23.5210  -29.4910 N.am     10 SEL2        0.0000 
     40 N          62.3350  -22.3270  -31.5590 N.am      6 SEP2        0.0000 
     41 N          63.9245  -22.2240  -30.4875 N.am      2 SEC2        0.0000 
     42 NZ         67.2525  -23.9565  -28.1540 N.4       3 LYC4        0.0000 
     43 NZ         65.9640  -24.2820  -28.6270 N.4      11 LYL4        0.0000 
     44 NZ         68.9100  -22.3560  -27.7150 N.4       7 LYP4        0.0000 
     45 N          67.2525  -23.9565  -28.1540 N.am      2 SEC2        0.0000 
     46 N          65.9640  -24.2820  -28.6270 N.am     10 SEL2        0.0000 
     47 N          68.5410  -23.6310  -27.6810 N.am      6 SEP2        0.0000 
     48 CA         62.7075  -27.0770  -27.2450 C.3       4 GLC5        0.0000 
     49 CA         62.4130  -24.9760  -27.3220 C.3      12 GLL5        0.0000 
     50 CA         63.0020  -29.1780  -27.1680 C.3       8 GLP5        0.0000 
     51 CA         62.0180  -22.7115  -25.3240 C.3       4 GLC5        0.0000 
     52 CA         62.1130  -24.5280  -25.9210 C.3      12 GLL5        0.0000 
     53 CA         61.9230  -20.8950  -24.7270 C.3       8 GLP5        0.0000 
     54 CA         64.7090  -26.2490  -25.1570 C.3       4 GLC5        0.0000 
     55 CA         62.6460  -25.4540  -24.8330 C.3      12 GLL5        0.0000 
     56 CA         66.7720  -27.0440  -25.4810 C.3       8 GLP5        0.0000 
     57 N          61.8210  -24.2800  -22.6745 N.am      2 SEC2        0.0000 
     58 N          63.1230  -24.6140  -23.7550 N.am     10 SEL2        0.0000 
     59 N          60.5190  -23.9460  -21.5940 N.am      6 SEP2        0.0000 
     60 O          64.3855  -24.2370  -23.5685 O.2       1 ALC1        0.0000 
     61 O          63.1230  -24.6140  -23.7550 O.2       9 ALL1        0.0000 
     62 O          65.6480  -23.8600  -23.3820 O.2       5 ALP1        0.0000 
     63 CA         60.8020  -27.5915  -23.0260 C.3       4 GLC5        0.0000 
     64 CA         61.4420  -26.2540  -24.4760 C.3      12 GLL5        0.0000 
     65 CA         60.1620  -28.9290  -21.5760 C.3       8 GLP5        0.0000 
     66 CA         59.1535  -23.8595  -23.9900 C.3       4 GLC5        0.0000 
     67 CA         60.2530  -25.3260  -24.6920 C.3      12 GLL5        0.0000 
     68 CA         58.0540  -22.3930  -23.2880 C.3       8 GLP5        0.0000 
     69 N          55.8730  -26.6960  -23.8755 N.am      2 SEC2        0.0000 
     70 N          56.8610  -26.7330  -24.8400 N.am     10 SEL2        0.0000 
     71 N          54.8850  -26.6590  -22.9110 N.am      6 SEP2        0.0000 
     72 O          54.6035  -28.1545  -26.3775 O.2       1 ALC1        0.0000 
     73 O          55.8460  -28.9150  -26.6990 O.2       9 ALL1        0.0000 
     74 O          53.3610  -27.3940  -26.0560 O.2       5 ALP1        0.0000 
     75 CA         58.2500  -26.8370  -28.3220 C.3       4 GLC5        0.0000 
     76 CA         59.2450  -28.5080  -27.6310 C.3      12 GLL5        0.0000 
     77 CA         57.2550  -25.1660  -29.0130 C.3       8 GLP5        0.0000 
     78 CA         60.0925  -29.6020  -25.8745 C.3       4 GLC5        0.0000 
     79 CA         60.9400  -30.6960  -24.1180 C.3       8 GLP5        0.0000 
     80 CA         61.1235  -28.8430  -27.3995 C.3       4 GLC5        0.0000 
     81 CA         63.2350  -26.6935  -23.5912 C.3       4 GLC5        0.0000 
     82 CA         64.4260  -27.5330  -22.5280 C.3       8 GLP5        0.0000 
     83 CA         62.5230  -27.5160  -25.9112 C.3       4 GLC5        0.0000 
     84 CA         60.8897  -25.2550  -22.5620 C.3       4 GLC5        0.0000 
     85 CA         60.9320  -24.7200  -20.5400 C.3       8 GLP5        0.0000 
     86 CA         56.4020  -29.3278  -24.9200 C.3       4 GLC5        0.0000 
     87 CA         57.5210  -27.4410  -25.8350 C.3      12 GLL5        0.0000 
     88 CA         55.4980  -30.7030  -23.5570 C.3       8 GLP5        0.0000 
     89 CA         57.6628  -26.3324  -27.5652 C.3       4 GLC5        0.0000 
@<TRIPOS>BOND
@<TRIPOS>SUBSTRUCTURE
     1 ALC1       60 GROUP        1 X    ALC  0     ROOT ALC X 1
     2 SEC2        4 GROUP        1 X    SEC  0     **** SEC X 2
     3 LYC4        1 GROUP        1 X    LYC  0     **** LYC X 4
     4 GLC5       48 GROUP        1 X    GLC  0     **** GLC X 6
     5 ALP1       62 GROUP        1 Y    ALP  0     ROOT ALP Y 8
     6 SEP2        6 GROUP        1 Y    SEP  0     **** SEP Y 9
     7 LYP4        3 GROUP        1 Y    LYP  0     **** LYP Y 11
     8 GLP5       50 GROUP        1 Y    GLP  0     **** GLP Y 13
     9 ALL1       61 GROUP        1 Z    ALL  0     ROOT ALL Z 15
    10 SEL2        5 GROUP        1 Z    SEL  0     **** SEL Z 16
    11 LYL4        2 GROUP        1 Z    LYL  0     **** LYL Z 18
    12 GLL5       49 GROUP        1 Z    GLL  0     **** GLL Z 20
@<TRIPOS>SET

