#    Name: 1j7k_ATP_1_ligand
#    Modification time : Tue Mar 25 08:38:02 2014

@<TRIPOS>MOLECULE
1j7k_ATP_1_ligand
   43    45     1     0     0
SMALL
NO_CHARGES


@<TRIPOS>ATOM
      1 PG         65.6880  -19.0860  -25.8400 P.3       1 ATP2060     0.0000 
      2 O1G        67.1330  -19.1660  -25.8050 O.co2     1 ATP2060     0.0000 
      3 O2G        65.0960  -18.9100  -24.5100 O.co2     1 ATP2060     0.0000 
      4 O3G        65.2410  -18.0840  -26.9120 O.co2     1 ATP2060     0.0000 
      5 PB         64.4610  -21.0860  -27.6470 P.3       1 ATP2060     0.0000 
      6 O1B        65.3690  -20.8350  -28.8090 O.co2     1 ATP2060     0.0000 
      7 O2B        63.0810  -20.5660  -27.7140 O.co2     1 ATP2060     0.0000 
      8 O3B        65.2380  -20.5580  -26.3060 O.3       1 ATP2060     0.0000 
      9 PA         64.5650  -23.8640  -28.3630 P.3       1 ATP2060     0.0000 
     10 O1A        63.6970  -23.5210  -29.4910 O.co2     1 ATP2060     0.0000 
     11 O2A        65.9640  -24.2820  -28.6270 O.co2     1 ATP2060     0.0000 
     12 O3A        64.4850  -22.6140  -27.3960 O.3       1 ATP2060     0.0000 
     13 O5'        63.8360  -24.9710  -27.5200 O.3       1 ATP2060     0.0000 
     14 C5'        62.4130  -24.9760  -27.3220 C.3       1 ATP2060     0.0000 
     15 C4'        62.1130  -24.5280  -25.9210 C.3       1 ATP2060     0.0000 
     16 O4'        60.6560  -24.5450  -25.8150 O.3       1 ATP2060     0.0000 
     17 C3'        62.6460  -25.4540  -24.8330 C.3       1 ATP2060     0.0000 
     18 O3'        63.1230  -24.6140  -23.7550 O.3       1 ATP2060     0.0000 
     19 C2'        61.4420  -26.2540  -24.4760 C.3       1 ATP2060     0.0000 
     20 O2'        61.4250  -26.7210  -23.1400 O.3       1 ATP2060     0.0000 
     21 C1'        60.2530  -25.3260  -24.6920 C.3       1 ATP2060     0.0000 
     22 N9         59.0100  -26.0740  -24.9940 N.pl3     1 ATP2060     0.0000 
     23 C8         57.7890  -25.9510  -24.3900 C.2       1 ATP2060     0.0000 
     24 N7         56.8610  -26.7330  -24.8400 N.2       1 ATP2060     0.0000 
     25 C5         57.5210  -27.4410  -25.8350 C.ar      1 ATP2060     0.0000 
     26 C6         57.0910  -28.4640  -26.7310 C.ar      1 ATP2060     0.0000 
     27 N6         55.8460  -28.9150  -26.6990 N.pl3     1 ATP2060     0.0000 
     28 N1         57.9910  -28.9800  -27.6180 N.ar      1 ATP2060     0.0000 
     29 C2         59.2450  -28.5080  -27.6310 C.ar      1 ATP2060     0.0000 
     30 N3         59.7770  -27.5530  -26.8440 N.ar      1 ATP2060     0.0000 
     31 C4         58.8350  -27.0450  -25.9520 C.ar      1 ATP2060     0.0000 
     32 H          61.9964  -25.9781  -27.4652 H         1 ATP2060     0.0000 
     33 H          61.9132  -24.2974  -28.0205 H         1 ATP2060     0.0000 
     34 H          62.4694  -23.5393  -25.7642 H         1 ATP2060     0.0000 
     35 H          63.3856  -26.0603  -25.2572 H         1 ATP2060     0.0000 
     36 H          61.3342  -27.0600  -25.1926 H         1 ATP2060     0.0000 
     37 H          60.1451  -24.7189  -23.8265 H         1 ATP2060     0.0000 
     38 H          57.6560  -25.2762  -23.6374 H         1 ATP2060     0.0000 
     39 H          55.1549  -28.2757  -26.3619 H         1 ATP2060     0.0000 
     40 H          55.7099  -29.8540  -27.0148 H         1 ATP2060     0.0000 
     41 H          59.9231  -28.9518  -28.3720 H         1 ATP2060     0.0000 
     42 H          64.0503  -24.9373  -23.5660 H         1 ATP2060     0.0000 
     43 H          62.1072  -26.1665  -22.6635 H         1 ATP2060     0.0000 
@<TRIPOS>BOND
     1    2    1 ar   
     2    3    1 ar   
     3    4    1 ar   
     4    8    1 1    
     5    6    5 ar   
     6    7    5 ar   
     7    8    5 1    
     8   12    5 1    
     9   10    9 ar   
    10   11    9 ar   
    11   12    9 1    
    12   13    9 1    
    13   14   13 1    
    14   15   14 1    
    15   32   14 1    
    16   33   14 1    
    17   16   15 1    
    18   17   15 1    
    19   34   15 1    
    20   21   16 1    
    21   18   17 1    
    22   19   17 1    
    23   35   17 1    
    24   42   18 1    
    25   20   19 1    
    26   21   19 1    
    27   36   19 1    
    28   43   20 1    
    29   22   21 1    
    30   37   21 1    
    31   23   22 1    
    32   31   22 1    
    33   24   23 2    
    34   38   23 1    
    35   25   24 1    
    36   26   25 ar   
    37   31   25 ar   
    38   27   26 1    
    39   28   26 ar   
    40   39   27 1    
    41   40   27 1    
    42   29   28 ar   
    43   30   29 ar   
    44   41   29 1    
    45   31   30 ar   
@<TRIPOS>SUBSTRUCTURE
     1 ATP2060     1 GROUP   
@<TRIPOS>SET

