#    Name: 2cem_2AH_1_INTS_M
#    Modification time : Mon Mar 24 23:36:42 2014

@<TRIPOS>MOLECULE
2cem_2AH_1_INTS_M
  119     0     9     0     0
SMALL
NO_CHARGES


@<TRIPOS>ATOM
      1 O          17.1225   22.1135    5.2305 O.2       1 ALC1        0.0000 
      2 O          15.7910   21.0870    5.1640 O.2       7 ALL1        0.0000 
      3 O          18.4540   23.1400    5.2970 O.2       4 ALP1        0.0000 
      4 CA         17.1035   15.5170    2.2080 C.3       3 GLC5        0.0000 
      5 CA         17.3540   17.5290    2.1640 C.3       9 GLL5        0.0000 
      6 CA         16.8530   13.5050    2.2520 C.3       6 GLP5        0.0000 
      7 CA         17.7275   20.2615    3.0285 C.3       3 GLC5        0.0000 
      8 CA         17.1400   18.1880    3.4090 C.3       9 GLL5        0.0000 
      9 CA         18.3150   22.3350    2.6480 C.3       6 GLP5        0.0000 
     10 CA         16.4740   16.0565    3.3470 C.3       3 GLC5        0.0000 
     11 CA         15.8080   13.9250    3.2850 C.3       6 GLP5        0.0000 
     12 CA         19.8695   18.4840    3.9645 C.3       3 GLC5        0.0000 
     13 CA         17.8920   17.9870    4.7040 C.3       9 GLL5        0.0000 
     14 CA         21.8470   18.9810    3.2250 C.3       6 GLP5        0.0000 
     15 N          19.3290   20.4500    3.9140 N.am      2 SEC2        0.0000 
     16 N          18.5520   20.2300    5.1140 N.am      8 SEL2        0.0000 
     17 N          20.1060   20.6700    2.7140 N.am      5 SEP2        0.0000 
     18 O          18.5030   21.6850    5.2055 O.2       1 ALC1        0.0000 
     19 O          18.5520   20.2300    5.1140 O.2       7 ALL1        0.0000 
     20 CA         13.3390   21.6700   10.6625 C.3       3 GLC5        0.0000 
     21 CA         15.1370   20.8470    9.7380 C.3       9 GLL5        0.0000 
     22 CA         11.5410   22.4930   11.5870 C.3       6 GLP5        0.0000 
     23 CA         17.5890   21.2545   11.3990 C.3       3 GLC5        0.0000 
     24 CA         16.4910   21.2770    9.9200 C.3       9 GLL5        0.0000 
     25 CA         18.6870   21.2320   12.8780 C.3       6 GLP5        0.0000 
     26 CA         17.5735   22.5045   11.1220 C.3       3 GLC5        0.0000 
     27 CA         17.0070   22.3760    9.1590 C.3       9 GLL5        0.0000 
     28 CA         18.1400   22.6330   13.0850 C.3       6 GLP5        0.0000 
     29 O          15.4130   25.0210    5.8190 O.2       1 ALC1        0.0000 
     30 O          15.2390   23.8640    5.1170 O.2       7 ALL1        0.0000 
     31 O          15.5870   26.1780    6.5210 O.2       4 ALP1        0.0000 
     32 O          11.3990   26.0345    4.3240 O.2       1 ALC1        0.0000 
     33 O          11.3060   24.8080    5.1770 O.2       7 ALL1        0.0000 
     34 O          11.4920   27.2610    3.4710 O.2       4 ALP1        0.0000 
     35 CA         11.2895   25.1790    1.3360 C.3       3 GLC5        0.0000 
     36 CA         11.3830   23.6150    2.9110 C.3       9 GLL5        0.0000 
     37 CA         11.1960   26.7430   -0.2390 C.3       6 GLP5        0.0000 
     38 CA         10.7485   27.3800    6.2090 C.3       3 GLC5        0.0000 
     39 CA          9.6980   25.7940    6.7430 C.3       9 GLL5        0.0000 
     40 CA         11.7990   28.9660    5.6750 C.3       6 GLP5        0.0000 
     41 CA          8.4565   29.2605    9.5430 C.3       3 GLC5        0.0000 
     42 CA          8.9080   27.3360    8.6760 C.3       9 GLL5        0.0000 
     43 CA          8.0050   31.1850   10.4100 C.3       6 GLP5        0.0000 
     44 CA         11.3795   26.4040   11.0420 C.3       3 GLC5        0.0000 
     45 CA         11.0650   26.1420    8.9260 C.3       9 GLL5        0.0000 
     46 CA         11.6940   26.6660   13.1580 C.3       6 GLP5        0.0000 
     47 CA         12.6795   25.5665    9.7650 C.3       3 GLC5        0.0000 
     48 CA         14.2940   24.9910   10.6040 C.3       6 GLP5        0.0000 
     49 O           7.3890   24.5105    6.4300 O.2       1 ALC1        0.0000 
     50 O           8.3140   25.7110    6.2350 O.2       7 ALL1        0.0000 
     51 O           6.4640   23.3100    6.6250 O.2       4 ALP1        0.0000 
     52 N           8.9865   28.8855    5.4075 N.am      2 SEC2        0.0000 
     53 N           8.3060   27.6300    5.0760 N.am      8 SEL2        0.0000 
     54 N           9.6670   30.1410    5.7390 N.am      5 SEP2        0.0000 
     55 CA         10.1145   25.6010    1.0830 C.3       3 GLC5        0.0000 
     56 CA          9.0330   24.4590    2.4050 C.3       9 GLL5        0.0000 
     57 CA         10.0410   20.2725    3.2965 C.3       3 GLC5        0.0000 
     58 CA          9.2900   22.2870    3.5650 C.3       9 GLL5        0.0000 
     59 CA         10.7920   18.2580    3.0280 C.3       6 GLP5        0.0000 
     60 CA          6.8975   20.5560    2.8940 C.3       3 GLC5        0.0000 
     61 CA          7.8670   22.1590    3.6300 C.3       9 GLL5        0.0000 
     62 CA          5.9280   18.9530    2.1580 C.3       6 GLP5        0.0000 
     63 CA          6.4925   29.0540    4.9645 C.3       3 GLC5        0.0000 
     64 CA          5.6620   27.2080    4.2510 C.3       9 GLL5        0.0000 
     65 CA          7.3230   30.9000    5.6780 C.3       6 GLP5        0.0000 
     66 CA          8.0930   25.2985   10.7720 C.3       3 GLC5        0.0000 
     67 CA          8.9020   24.9000    8.9810 C.3       9 GLL5        0.0000 
     68 CA          7.2840   25.6970   12.5630 C.3       6 GLP5        0.0000 
     69 CA          6.4770   21.4855    5.1985 C.3       3 GLC5        0.0000 
     70 CA          4.9130   21.9390    3.8060 C.3       9 GLL5        0.0000 
     71 CA          8.0410   21.0320    6.5910 C.3       6 GLP5        0.0000 
     72 CA         17.5875   20.9047    3.9420 C.3       3 GLC5        0.0000 
     73 CA         16.1520   19.6710    4.9760 C.3       9 GLL5        0.0000 
     74 CA         16.5067   20.8077    2.2633 C.3       3 GLC5        0.0000 
     75 CA         15.2830   19.5320    2.4720 C.3       9 GLL5        0.0000 
     76 CA         17.3040   22.2690    1.5090 C.3       6 GLP5        0.0000 
     77 CA         13.7398   20.1958    1.0722 C.3       3 GLC5        0.0000 
     78 CA         12.0950   21.1850    0.3040 C.3       6 GLP5        0.0000 
     79 CA         13.8579   18.5724    2.2391 C.3       3 GLC5        0.0000 
     80 CA         15.4860   18.8810    1.2090 C.3       9 GLL5        0.0000 
     81 CA         12.1180   18.0310    2.3650 C.3       6 GLP5        0.0000 
     82 CA         16.6515   20.3272    1.3215 C.3       3 GLC5        0.0000 
     83 CA         15.0965   16.5593    1.3145 C.3       3 GLC5        0.0000 
     84 CA         16.5120   17.8900    1.0590 C.3       9 GLL5        0.0000 
     85 CA         14.1940   14.7330    1.4950 C.3       6 GLP5        0.0000 
     86 CA         18.2815   17.2608    0.5497 C.3       3 GLC5        0.0000 
     87 CA         19.6300   16.8120   -0.5120 C.3       6 GLP5        0.0000 
     88 CA         15.8317   17.0616    0.1215 C.3       3 GLC5        0.0000 
     89 CA         14.9870   16.1660   -1.4060 C.3       6 GLP5        0.0000 
     90 CA         12.7302   22.2312    9.3187 C.3       3 GLC5        0.0000 
     91 CA         14.8160   22.6240    8.0270 C.3       9 GLL5        0.0000 
     92 CA         10.9010   22.3920   10.2260 C.3       6 GLP5        0.0000 
     93 CA         14.5070   23.0865    9.9355 C.3       3 GLC5        0.0000 
     94 CA         14.3030   21.5170    8.7960 C.3       9 GLL5        0.0000 
     95 CA         13.7805   19.6005    8.5790 C.3       3 GLC5        0.0000 
     96 CA         12.8410   18.0190    7.8910 C.3       6 GLP5        0.0000 
     97 CA         15.2175   20.1500   11.4330 C.3       3 GLC5        0.0000 
     98 CA         14.6210   19.2380   13.0370 C.3       6 GLP5        0.0000 
     99 CA         15.5215   23.4088   10.0717 C.3       3 GLC5        0.0000 
    100 CA         17.9575   23.8577    8.5520 C.3       3 GLC5        0.0000 
    101 CA         16.1710   23.0510    8.2130 C.3       9 GLL5        0.0000 
    102 CA         19.3260   25.0020    8.4180 C.3       6 GLP5        0.0000 
    103 CA         14.7814   24.0015    9.2355 C.3       3 GLC5        0.0000 
    104 CA         11.4187   27.6363    7.8201 C.3       3 GLC5        0.0000 
    105 CA         12.6620   28.8580    6.9340 C.3       6 GLP5        0.0000 
    106 CA          9.0337   23.5297    0.7930 C.3       3 GLC5        0.0000 
    107 CA          9.8760   23.4420    2.9570 C.3       9 GLL5        0.0000 
    108 CA          8.6130   23.1090   -1.0950 C.3       6 GLP5        0.0000 
    109 CA          7.9617   23.4313    0.8413 C.3       3 GLC5        0.0000 
    110 CA          7.6070   24.3290    2.4660 C.3       9 GLL5        0.0000 
    111 CA          5.8407   21.5587    2.1713 C.3       3 GLC5        0.0000 
    112 CA          7.0140   23.1780    3.0890 C.3       9 GLL5        0.0000 
    113 CA          5.4080   19.9970    1.2120 C.3       6 GLP5        0.0000 
    114 CA          8.2031   21.7549    5.0266 C.3       3 GLC5        0.0000 
    115 CA         11.0274   22.0464    1.7767 C.3       3 GLC5        0.0000 
    116 CA         10.2671   23.9435    9.5111 C.3       3 GLC5        0.0000 
    117 CA          4.4970   22.0950    5.9280 C.3       3 GLC5        0.0000 
    118 CA          4.7920   22.2900    8.0140 C.3       6 GLP5        0.0000 
    119 CA          4.8050   20.9485    2.5270 C.3       3 GLC5        0.0000 
@<TRIPOS>BOND
@<TRIPOS>SUBSTRUCTURE
     1 ALC1        1 GROUP        1 X    ALC  0     ROOT ALC X 1
     2 SEC2       15 GROUP        1 X    SEC  0     **** SEC X 2
     3 GLC5        4 GROUP        1 X    GLC  0     **** GLC X 6
     4 ALP1        3 GROUP        1 Y    ALP  0     ROOT ALP Y 8
     5 SEP2       17 GROUP        1 Y    SEP  0     **** SEP Y 9
     6 GLP5        6 GROUP        1 Y    GLP  0     **** GLP Y 13
     7 ALL1        2 GROUP        1 Z    ALL  0     ROOT ALL Z 15
     8 SEL2       16 GROUP        1 Z    SEL  0     **** SEL Z 16
     9 GLL5        5 GROUP        1 Z    GLL  0     **** GLL Z 20
@<TRIPOS>SET

