#    Name: 2cem_2AH_1_ligand
#    Modification time : Mon Mar 24 23:36:42 2014

@<TRIPOS>MOLECULE
2cem_2AH_1_ligand
   95    99     1     0     0
SMALL
NO_CHARGES


@<TRIPOS>ATOM
      1 C1         14.1700   23.0120    5.5050 C.3       1 2AH1200     0.0000 
      2 C2         14.5110   21.4910    5.2910 C.2       1 2AH1200     0.0000 
      3 O3         13.5950   20.6500    5.2550 O.2       1 2AH1200     0.0000 
      4 N4         15.7910   21.0870    5.1640 N.am      1 2AH1200     0.0000 
      5 C5         16.1520   19.6710    4.9760 C.3       1 2AH1200     0.0000 
      6 C6         16.1360   19.1610    3.5630 C.ar      1 2AH1200     0.0000 
      7 C7         15.2830   19.5320    2.4720 C.ar      1 2AH1200     0.0000 
      8 C8         15.4860   18.8810    1.2090 C.ar      1 2AH1200     0.0000 
      9 C9         16.5120   17.8900    1.0590 C.ar      1 2AH1200     0.0000 
     10 C10        17.3540   17.5290    2.1640 C.ar      1 2AH1200     0.0000 
     11 C11        17.1400   18.1880    3.4090 C.ar      1 2AH1200     0.0000 
     12 C12        17.8920   17.9870    4.7040 C.3       1 2AH1200     0.0000 
     13 C13        17.5680   19.2780    5.4960 C.3       1 2AH1200     0.0000 
     14 O14        18.5520   20.2300    5.1140 O.3       1 2AH1200     0.0000 
     15 C24        13.9170   23.3220    7.0150 C.3       1 2AH1200     0.0000 
     16 C25        14.8160   22.6240    8.0270 C.ar      1 2AH1200     0.0000 
     17 C26        14.3030   21.5170    8.7960 C.ar      1 2AH1200     0.0000 
     18 C27        15.1370   20.8470    9.7380 C.ar      1 2AH1200     0.0000 
     19 C28        16.4910   21.2770    9.9200 C.ar      1 2AH1200     0.0000 
     20 C29        17.0070   22.3760    9.1590 C.ar      1 2AH1200     0.0000 
     21 C30        16.1710   23.0510    8.2130 C.ar      1 2AH1200     0.0000 
     22 O36        15.2390   23.8640    5.1170 O.3       1 2AH1200     0.0000 
     23 C41        12.9050   23.0300    4.5760 C.3       1 2AH1200     0.0000 
     24 N42        11.9580   24.0570    4.2140 N.3       1 2AH1200     0.0000 
     25 N43        11.3060   24.8080    5.1770 N.am      1 2AH1200     0.0000 
     26 C44        11.3830   23.6150    2.9110 C.3       1 2AH1200     0.0000 
     27 C45        10.4630   24.5590    6.2070 C.2       1 2AH1200     0.0000 
     28 O46        10.3010   23.4280    6.7000 O.2       1 2AH1200     0.0000 
     29 C47         9.6980   25.7940    6.7430 C.3       1 2AH1200     0.0000 
     30 C48         9.6640   26.0380    8.2970 C.3       1 2AH1200     0.0000 
     31 C49         8.9080   27.3360    8.6760 C.3       1 2AH1200     0.0000 
     32 C50        11.0650   26.1420    8.9260 C.3       1 2AH1200     0.0000 
     33 N51         8.3140   25.7110    6.2350 N.am      1 2AH1200     0.0000 
     34 C54         7.6990   26.6060    5.4450 C.2       1 2AH1200     0.0000 
     35 O55         8.3060   27.6300    5.0760 O.2       1 2AH1200     0.0000 
     36 O56         6.4180   26.3340    5.0850 O.3       1 2AH1200     0.0000 
     37 C78         9.8760   23.4420    2.9570 C.ar      1 2AH1200     0.0000 
     38 C79         9.0330   24.4590    2.4050 C.ar      1 2AH1200     0.0000 
     39 C80         7.6070   24.3290    2.4660 C.ar      1 2AH1200     0.0000 
     40 C81         7.0140   23.1780    3.0890 C.ar      1 2AH1200     0.0000 
     41 C82         9.2900   22.2870    3.5650 C.ar      1 2AH1200     0.0000 
     42 C83         7.8670   22.1590    3.6300 C.ar      1 2AH1200     0.0000 
     43 C91         5.6620   27.2080    4.2510 C.3       1 2AH1200     0.0000 
     44 C92         8.9020   24.9000    8.9810 C.3       1 2AH1200     0.0000 
     45 C93         2.6720   22.8880    3.3260 C.ar      1 2AH1200     0.0000 
     46 C94         3.4910   21.8610    3.8780 C.ar      1 2AH1200     0.0000 
     47 C95         4.9130   21.9390    3.8060 C.ar      1 2AH1200     0.0000 
     48 C96         5.5330   23.0630    3.1720 C.ar      1 2AH1200     0.0000 
     49 N97         4.7030   24.0880    2.6230 N.ar      1 2AH1200     0.0000 
     50 C98         3.2790   24.0040    2.6960 C.ar      1 2AH1200     0.0000 
     51 H          16.5861   21.7546    5.1925 H         1 2AH1200     0.0000 
     52 H          15.4553   19.0162    5.5508 H         1 2AH1200     0.0000 
     53 H          14.5698   20.2216    2.5864 H         1 2AH1200     0.0000 
     54 H          14.8984   19.1242    0.4157 H         1 2AH1200     0.0000 
     55 H          16.6454   17.4358    0.1558 H         1 2AH1200     0.0000 
     56 H          18.0673   16.8359    2.0584 H         1 2AH1200     0.0000 
     57 H          18.9326   17.9429    4.5269 H         1 2AH1200     0.0000 
     58 H          17.5103   17.1543    5.2304 H         1 2AH1200     0.0000 
     59 H          17.5250   19.0505    6.4986 H         1 2AH1200     0.0000 
     60 H          12.8544   23.0740    7.2374 H         1 2AH1200     0.0000 
     61 H          13.9988   24.4241    7.1520 H         1 2AH1200     0.0000 
     62 H          13.3410   21.2187    8.6602 H         1 2AH1200     0.0000 
     63 H          14.7761   20.0690   10.2784 H         1 2AH1200     0.0000 
     64 H          17.0877   20.8015   10.5907 H         1 2AH1200     0.0000 
     65 H          17.9680   22.6763    9.2914 H         1 2AH1200     0.0000 
     66 H          16.5361   23.8288    7.6761 H         1 2AH1200     0.0000 
     67 H          12.2811   22.0668    4.9376 H         1 2AH1200     0.0000 
     68 H          13.2993   22.5201    3.5600 H         1 2AH1200     0.0000 
     69 H          11.5478   25.9288    5.0666 H         1 2AH1200     0.0000 
     70 H          11.8395   22.6575    2.6082 H         1 2AH1200     0.0000 
     71 H          11.6305   24.3498    2.1264 H         1 2AH1200     0.0000 
     72 H          10.1567   26.6917    6.2830 H         1 2AH1200     0.0000 
     73 H           7.7925   24.8336    6.5559 H         1 2AH1200     0.0000 
     74 H           9.4473   25.2779    1.9674 H         1 2AH1200     0.0000 
     75 H           7.0140   25.0499    2.0692 H         1 2AH1200     0.0000 
     76 H           9.8835   21.5596    3.9496 H         1 2AH1200     0.0000 
     77 H           7.4523   21.3355    4.0651 H         1 2AH1200     0.0000 
     78 H           1.6613   22.8184    3.3849 H         1 2AH1200     0.0000 
     79 H           3.0529   21.0556    4.3328 H         1 2AH1200     0.0000 
     80 H           5.4858   21.2017    4.2020 H         1 2AH1200     0.0000 
     81 H           2.7078   24.7427    2.2971 H         1 2AH1200     0.0000 
     82 H           8.8957   27.4833    9.6650 H         1 2AH1200     0.0000 
     83 H           9.3287   28.1445    8.2644 H         1 2AH1200     0.0000 
     84 H           7.9559   27.3137    8.3711 H         1 2AH1200     0.0000 
     85 H          11.5974   25.3070    8.7869 H         1 2AH1200     0.0000 
     86 H          11.5932   26.8952    8.5339 H         1 2AH1200     0.0000 
     87 H          11.0185   26.2991    9.9125 H         1 2AH1200     0.0000 
     88 H           5.5592   28.1148    4.6598 H         1 2AH1200     0.0000 
     89 H           6.0946   27.3362    3.3586 H         1 2AH1200     0.0000 
     90 H           4.7412   26.8563    4.0826 H         1 2AH1200     0.0000 
     91 H           9.3326   24.0127    8.8158 H         1 2AH1200     0.0000 
     92 H           8.8591   25.0249    9.9722 H         1 2AH1200     0.0000 
     93 H           7.9597   24.8341    8.6528 H         1 2AH1200     0.0000 
     94 H          18.1509   21.1192    5.3342 H         1 2AH1200     0.0000 
     95 H          15.1957   24.6377    5.7491 H         1 2AH1200     0.0000 
@<TRIPOS>BOND
     1    2    1 1    
     2   15    1 1    
     3   22    1 1    
     4   23    1 1    
     5    3    2 2    
     6    4    2 am   
     7    5    4 1    
     8   51    4 1    
     9    6    5 1    
    10   13    5 1    
    11   52    5 1    
    12    7    6 ar   
    13   11    6 ar   
    14    8    7 ar   
    15   53    7 1    
    16    9    8 ar   
    17   54    8 1    
    18   10    9 ar   
    19   55    9 1    
    20   11   10 ar   
    21   56   10 1    
    22   12   11 1    
    23   13   12 1    
    24   57   12 1    
    25   58   12 1    
    26   14   13 1    
    27   59   13 1    
    28   94   14 1    
    29   16   15 1    
    30   60   15 1    
    31   61   15 1    
    32   17   16 ar   
    33   21   16 ar   
    34   18   17 ar   
    35   62   17 1    
    36   19   18 ar   
    37   63   18 1    
    38   20   19 ar   
    39   64   19 1    
    40   21   20 ar   
    41   65   20 1    
    42   66   21 1    
    43   95   22 1    
    44   24   23 1    
    45   67   23 1    
    46   68   23 1    
    47   25   24 1    
    48   26   24 1    
    49   27   25 am   
    50   69   25 1    
    51   37   26 1    
    52   70   26 1    
    53   71   26 1    
    54   28   27 2    
    55   29   27 1    
    56   30   29 1    
    57   33   29 1    
    58   72   29 1    
    59   31   30 1    
    60   32   30 1    
    61   44   30 1    
    62   82   31 1    
    63   83   31 1    
    64   84   31 1    
    65   85   32 1    
    66   86   32 1    
    67   87   32 1    
    68   34   33 am   
    69   73   33 1    
    70   35   34 2    
    71   36   34 1    
    72   43   36 1    
    73   38   37 ar   
    74   41   37 ar   
    75   39   38 ar   
    76   74   38 1    
    77   40   39 ar   
    78   75   39 1    
    79   42   40 ar   
    80   48   40 1    
    81   42   41 ar   
    82   76   41 1    
    83   77   42 1    
    84   88   43 1    
    85   89   43 1    
    86   90   43 1    
    87   91   44 1    
    88   92   44 1    
    89   93   44 1    
    90   46   45 ar   
    91   50   45 ar   
    92   78   45 1    
    93   47   46 ar   
    94   79   46 1    
    95   48   47 ar   
    96   80   47 1    
    97   49   48 ar   
    98   50   49 ar   
    99   81   50 1    
@<TRIPOS>SUBSTRUCTURE
     1 2AH1200     1 GROUP   
@<TRIPOS>SET

