#    Name: 1rwb_NAD_2_INTS_M
#    Modification time : Tue Mar 25 01:22:37 2014

@<TRIPOS>MOLECULE
1rwb_NAD_2_INTS_M
   87     0     9     0     0
SMALL
NO_CHARGES


@<TRIPOS>ATOM
      1 CA         45.3395   -7.3675   19.4950 C.3       3 GLC5        0.0000 
      2 CA         45.9230   -8.3150   21.3940 C.3       9 GLL5        0.0000 
      3 CA         44.7560   -6.4200   17.5960 C.3       6 GLP5        0.0000 
      4 CA         45.2405   -6.5195   23.7870 C.3       3 GLC5        0.0000 
      5 CA         45.1050   -8.0480   22.6220 C.3       9 GLL5        0.0000 
      6 CA         45.3760   -4.9910   24.9520 C.3       6 GLP5        0.0000 
      7 N          44.5145   -6.5325   20.5700 N.am      2 SEC2        0.0000 
      8 N          44.1320   -7.0990   22.1730 N.am      8 SEL2        0.0000 
      9 N          44.8970   -5.9660   18.9670 N.am      5 SEP2        0.0000 
     10 O          45.8790  -10.4030   24.9525 O.2       1 ALC1        0.0000 
     11 O          44.7220   -9.5030   24.4980 O.2       7 ALL1        0.0000 
     12 O          47.0360  -11.3030   25.4070 O.2       4 ALP1        0.0000 
     13 CA         44.1600   -6.1910   23.8835 C.3       3 GLC5        0.0000 
     14 CA         42.9440   -7.3910   22.8150 C.3       9 GLL5        0.0000 
     15 CA         43.4610   -5.5115   22.0040 C.3       3 GLC5        0.0000 
     16 CA         43.9780   -3.6320   21.1930 C.3       6 GLP5        0.0000 
     17 CA         38.3955   -3.0885   22.6480 C.3       3 GLC5        0.0000 
     18 CA         39.4360   -4.4380   21.3540 C.3       9 GLL5        0.0000 
     19 CA         37.3550   -1.7390   23.9420 C.3       6 GLP5        0.0000 
     20 O          37.4860   -3.3195   20.8700 O.2       1 ALC1        0.0000 
     21 O          38.5490   -4.0920   20.4510 O.2       7 ALL1        0.0000 
     22 O          36.4230   -2.5470   21.2890 O.2       4 ALP1        0.0000 
     23 O          38.6770   -4.2875   18.8400 O.2       1 ALC1        0.0000 
     24 O          38.8050   -4.4830   17.2290 O.2       4 ALP1        0.0000 
     25 N          39.2175   -2.2555   22.3870 N.am      2 SEC2        0.0000 
     26 N          39.4960   -3.6530   22.4820 N.am      8 SEL2        0.0000 
     27 N          38.9390   -0.8580   22.2920 N.am      5 SEP2        0.0000 
     28 CA         39.0290   -5.0950   24.0760 C.3       3 GLC5        0.0000 
     29 CA         40.4150   -3.9850   23.4490 C.3       9 GLL5        0.0000 
     30 CA         37.6430   -6.2050   24.7030 C.3       6 GLP5        0.0000 
     31 CA         38.8850   -2.8620   23.6955 C.3       3 GLC5        0.0000 
     32 CA         41.1270   -2.2640   22.7785 C.3       3 GLC5        0.0000 
     33 CA         41.8390   -0.5430   22.1080 C.3       6 GLP5        0.0000 
     34 CA         42.1965   -3.8085   22.3210 C.3       3 GLC5        0.0000 
     35 N          51.1620   -9.8325   22.5075 N.am      2 SEC2        0.0000 
     36 N          49.9130  -10.0390   21.5720 N.am      8 SEL2        0.0000 
     37 N          52.4110   -9.6260   23.4430 N.am      5 SEP2        0.0000 
     38 CA         51.2780   -5.3720   18.5340 C.3       3 GLC5        0.0000 
     39 CA         49.9020   -6.7180   18.6350 C.3       9 GLL5        0.0000 
     40 CA         52.6540   -4.0260   18.4330 C.3       6 GLP5        0.0000 
     41 CA         46.7440   -6.5940   17.6255 C.3       3 GLC5        0.0000 
     42 CA         48.7320   -6.7680   17.6550 C.3       9 GLL5        0.0000 
     43 N          48.5090   -4.9750   15.7020 N.am      2 SEC2        0.0000 
     44 N          48.4940   -5.4370   17.1400 N.am      8 SEL2        0.0000 
     45 N          48.5240   -4.5130   14.2640 N.am      5 SEP2        0.0000 
     46 O          48.1655   -5.0525   18.4550 O.2       1 ALC1        0.0000 
     47 O          48.4940   -5.4370   17.1400 O.2       7 ALL1        0.0000 
     48 O          47.8370   -4.6680   19.7700 O.2       4 ALP1        0.0000 
     49 N          48.5040   -6.0425   14.8070 N.am      2 SEC2        0.0000 
     50 N          48.4840   -7.5720   15.3500 N.am      8 SEL2        0.0000 
     51 O          49.0125   -8.0200   14.1330 O.2       1 ALC1        0.0000 
     52 O          48.4840   -7.5720   15.3500 O.2       7 ALL1        0.0000 
     53 O          49.5410   -8.4680   12.9160 O.2       4 ALP1        0.0000 
     54 CA         52.1695   -7.9065   17.9605 C.3       3 GLC5        0.0000 
     55 CA         50.6650   -7.4000   16.5190 C.3       9 GLL5        0.0000 
     56 CA         53.6740   -8.4130   19.4020 C.3       6 GLP5        0.0000 
     57 CA         51.6595   -5.7130   17.4760 C.3       3 GLC5        0.0000 
     58 N          54.7040  -13.5270   16.4075 N.am      2 SEC2        0.0000 
     59 N          53.3510  -12.9310   16.3470 N.am      8 SEL2        0.0000 
     60 N          56.0570  -14.1230   16.4680 N.am      5 SEP2        0.0000 
     61 N          52.7240  -14.3535   16.6540 N.am      2 SEC2        0.0000 
     62 N          52.0970  -15.7760   16.9610 N.am      5 SEP2        0.0000 
     63 O          51.9400  -13.3045   18.9385 O.2       1 ALC1        0.0000 
     64 O          51.9850  -12.3420   17.9850 O.2       7 ALL1        0.0000 
     65 O          51.8950  -14.2670   19.8920 O.2       4 ALP1        0.0000 
     66 CA         53.7740   -7.2050   14.9005 C.3       3 GLC5        0.0000 
     67 CA         52.2020   -8.2740   14.8150 C.3       9 GLL5        0.0000 
     68 CA         55.3460   -6.1360   14.9860 C.3       6 GLP5        0.0000 
     69 CA         45.3915   -6.2358   21.3520 C.3       3 GLC5        0.0000 
     70 CA         45.2690   -4.2900   20.6960 C.3       6 GLP5        0.0000 
     71 CA         40.3502   -3.1930   20.6358 C.3       3 GLC5        0.0000 
     72 CA         40.3170   -5.5260   21.2710 C.3       9 GLL5        0.0000 
     73 CA         40.8240   -1.4040   19.9590 C.3       6 GLP5        0.0000 
     74 CA         42.3640   -4.6273   21.4988 C.3       3 GLC5        0.0000 
     75 CA         40.5363   -4.7680   19.3987 C.3       3 GLC5        0.0000 
     76 CA         41.1960   -4.5540   17.4850 C.3       6 GLP5        0.0000 
     77 CA         39.1894   -6.2048   22.6466 C.3       3 GLC5        0.0000 
     78 CA         37.8490   -7.0590   23.4680 C.3       6 GLP5        0.0000 
     79 CA         51.7975   -7.8152   19.2988 C.3       3 GLC5        0.0000 
     80 CA         49.9400   -7.7170   19.7560 C.3       9 GLL5        0.0000 
     81 CA         52.8700   -9.3382   17.9055 C.3       3 GLC5        0.0000 
     82 CA         51.6280   -9.7310   16.6930 C.3       9 GLL5        0.0000 
     83 CA         52.3593   -7.8612   13.0242 C.3       3 GLC5        0.0000 
     84 CA         52.9790   -9.1810   14.2820 C.3       9 GLL5        0.0000 
     85 CA         52.1280   -6.9950   11.5000 C.3       6 GLP5        0.0000 
     86 CA         54.4904   -9.0577   15.3610 C.3       3 GLC5        0.0000 
     87 CA         56.0570   -8.1950   15.8400 C.3       6 GLP5        0.0000 
@<TRIPOS>BOND
@<TRIPOS>SUBSTRUCTURE
     1 ALC1       10 GROUP        1 X    ALC  0     ROOT ALC X 1
     2 SEC2        7 GROUP        1 X    SEC  0     **** SEC X 2
     3 GLC5        1 GROUP        1 X    GLC  0     **** GLC X 6
     4 ALP1       12 GROUP        1 Y    ALP  0     ROOT ALP Y 8
     5 SEP2        9 GROUP        1 Y    SEP  0     **** SEP Y 9
     6 GLP5        3 GROUP        1 Y    GLP  0     **** GLP Y 13
     7 ALL1       11 GROUP        1 Z    ALL  0     ROOT ALL Z 15
     8 SEL2        8 GROUP        1 Z    SEL  0     **** SEL Z 16
     9 GLL5        2 GROUP        1 Z    GLL  0     **** GLL Z 20
@<TRIPOS>SET

