#    Name: 1rwb_NAD_2_ligand
#    Modification time : Tue Mar 25 01:22:37 2014

@<TRIPOS>MOLECULE
1rwb_NAD_2_ligand
   70    74     1     0     0
SMALL
NO_CHARGES


@<TRIPOS>ATOM
      1 PA         46.8770  -10.7280   21.0730 P.3       1 NAD701      0.0000 
      2 O1A        45.6140  -11.0370   20.3740 O.co2     1 NAD701      0.0000 
      3 O2A        47.2880  -11.7520   22.0870 O.co2     1 NAD701      0.0000 
      4 O5B        46.9110   -9.2770   21.7590 O.3       1 NAD701      0.0000 
      5 C5B        45.9230   -8.3150   21.3940 C.3       1 NAD701      0.0000 
      6 C4B        45.1050   -8.0480   22.6220 C.3       1 NAD701      0.0000 
      7 O4B        44.1320   -7.0990   22.1730 O.3       1 NAD701      0.0000 
      8 C3B        44.3500   -9.2750   23.1300 C.3       1 NAD701      0.0000 
      9 O3B        44.7220   -9.5030   24.4980 O.3       1 NAD701      0.0000 
     10 C2B        42.9010   -8.9000   22.8800 C.3       1 NAD701      0.0000 
     11 O2B        42.0000   -9.4360   23.8770 O.3       1 NAD701      0.0000 
     12 C1B        42.9440   -7.3910   22.8150 C.3       1 NAD701      0.0000 
     13 N9A        41.9120   -6.8130   22.0100 N.pl3     1 NAD701      0.0000 
     14 C8A        41.4690   -7.2290   20.7870 C.2       1 NAD701      0.0000 
     15 N7A        40.5030   -6.4800   20.3000 N.2       1 NAD701      0.0000 
     16 C5A        40.3170   -5.5260   21.2710 C.ar      1 NAD701      0.0000 
     17 C6A        39.4360   -4.4380   21.3540 C.ar      1 NAD701      0.0000 
     18 N6A        38.5490   -4.0920   20.4510 N.pl3     1 NAD701      0.0000 
     19 N1A        39.4960   -3.6530   22.4820 N.ar      1 NAD701      0.0000 
     20 C2A        40.4150   -3.9850   23.4490 C.ar      1 NAD701      0.0000 
     21 N3A        41.2820   -4.9730   23.4690 N.ar      1 NAD701      0.0000 
     22 C4A        41.1830   -5.7190   22.3380 C.ar      1 NAD701      0.0000 
     23 O3         47.9780  -10.5770   20.0220 O.3       1 NAD701      0.0000 
     24 PN         49.5470  -10.2410   20.1490 P.3       1 NAD701      0.0000 
     25 O1N        50.2530  -11.3450   19.5210 O.co2     1 NAD701      0.0000 
     26 O2N        49.9130  -10.0390   21.5720 O.co2     1 NAD701      0.0000 
     27 O5D        49.5810   -8.9890   19.2080 O.3       1 NAD701      0.0000 
     28 C5D        49.9400   -7.7170   19.7560 C.3       1 NAD701      0.0000 
     29 C4D        49.9020   -6.7180   18.6350 C.3       1 NAD701      0.0000 
     30 O4D        51.0480   -7.1190   17.8290 O.3       1 NAD701      0.0000 
     31 C3D        48.7320   -6.7680   17.6550 C.3       1 NAD701      0.0000 
     32 O3D        48.4940   -5.4370   17.1400 O.3       1 NAD701      0.0000 
     33 C2D        49.2130   -7.7390   16.5910 C.3       1 NAD701      0.0000 
     34 O2D        48.4840   -7.5720   15.3500 O.3       1 NAD701      0.0000 
     35 C1D        50.6650   -7.4000   16.5190 C.3       1 NAD701      0.0000 
     36 N1N        51.4930   -8.4880   16.0260 N.pl3     1 NAD701      0.0000 
     37 C2N        51.6280   -9.7310   16.6930 C.ar      1 NAD701      0.0000 
     38 C3N        52.5040  -10.7960   16.1250 C.ar      1 NAD701      0.0000 
     39 C7N        52.6180  -12.0740   16.8490 C.2       1 NAD701      0.0000 
     40 O7N        53.3510  -12.9310   16.3470 O.2       1 NAD701      0.0000 
     41 N7N        51.9850  -12.3420   17.9850 N.am      1 NAD701      0.0000 
     42 C4N        53.2330  -10.5240   14.8390 C.ar      1 NAD701      0.0000 
     43 C5N        52.9790   -9.1810   14.2820 C.ar      1 NAD701      0.0000 
     44 C6N        52.2020   -8.2740   14.8150 C.ar      1 NAD701      0.0000 
     45 H          45.2667   -8.6897   20.6125 H         1 NAD701      0.0000 
     46 H          46.3731   -7.3817   21.0652 H         1 NAD701      0.0000 
     47 H          45.7064   -7.6410   23.3833 H         1 NAD701      0.0000 
     48 H          44.6134  -10.0840   22.4790 H         1 NAD701      0.0000 
     49 H          42.6582   -9.2567   21.8781 H         1 NAD701      0.0000 
     50 H          42.9396   -7.0025   23.8076 H         1 NAD701      0.0000 
     51 H          41.8582   -8.0287   20.3277 H         1 NAD701      0.0000 
     52 H          38.7761   -4.3151   19.5030 H         1 NAD701      0.0000 
     53 H          37.7270   -3.6369   20.7934 H         1 NAD701      0.0000 
     54 H          40.4070   -3.3108   24.3284 H         1 NAD701      0.0000 
     55 H          50.9445   -7.7313   20.1759 H         1 NAD701      0.0000 
     56 H          49.2394   -7.4016   20.5275 H         1 NAD701      0.0000 
     57 H          50.0598   -5.7387   18.9864 H         1 NAD701      0.0000 
     58 H          47.9021   -7.1819   18.1576 H         1 NAD701      0.0000 
     59 H          49.1146   -8.7265   17.0043 H         1 NAD701      0.0000 
     60 H          50.7820   -6.5244   15.8986 H         1 NAD701      0.0000 
     61 H          51.1438   -9.9277   17.5562 H         1 NAD701      0.0000 
     62 H          52.1537  -13.2449   18.3803 H         1 NAD701      0.0000 
     63 H          51.3968  -11.6167   18.3426 H         1 NAD701      0.0000 
     64 H          53.8022  -11.1667   14.4326 H         1 NAD701      0.0000 
     65 H          53.5025   -8.9982   13.3683 H         1 NAD701      0.0000 
     66 H          52.0653   -7.3288   14.3622 H         1 NAD701      0.0000 
     67 H          45.5198  -10.1041   24.4524 H         1 NAD701      0.0000 
     68 H          42.5829   -9.6630   24.6572 H         1 NAD701      0.0000 
     69 H          48.6783   -4.8251   17.9092 H         1 NAD701      0.0000 
     70 H          49.0745   -7.9695   14.6476 H         1 NAD701      0.0000 
@<TRIPOS>BOND
     1    2    1 ar   
     2    3    1 ar   
     3    4    1 1    
     4   23    1 1    
     5    5    4 1    
     6    6    5 1    
     7   45    5 1    
     8   46    5 1    
     9    7    6 1    
    10    8    6 1    
    11   47    6 1    
    12   12    7 1    
    13    9    8 1    
    14   10    8 1    
    15   48    8 1    
    16   67    9 1    
    17   11   10 1    
    18   12   10 1    
    19   49   10 1    
    20   68   11 1    
    21   13   12 1    
    22   50   12 1    
    23   14   13 1    
    24   22   13 1    
    25   15   14 2    
    26   51   14 1    
    27   16   15 1    
    28   17   16 ar   
    29   22   16 ar   
    30   18   17 1    
    31   19   17 ar   
    32   52   18 1    
    33   53   18 1    
    34   20   19 ar   
    35   21   20 ar   
    36   54   20 1    
    37   22   21 ar   
    38   24   23 1    
    39   25   24 ar   
    40   26   24 ar   
    41   27   24 1    
    42   28   27 1    
    43   29   28 1    
    44   55   28 1    
    45   56   28 1    
    46   30   29 1    
    47   31   29 1    
    48   57   29 1    
    49   35   30 1    
    50   32   31 1    
    51   33   31 1    
    52   58   31 1    
    53   69   32 1    
    54   34   33 1    
    55   35   33 1    
    56   59   33 1    
    57   70   34 1    
    58   36   35 1    
    59   60   35 1    
    60   37   36 ar   
    61   44   36 ar   
    62   38   37 ar   
    63   61   37 1    
    64   39   38 1    
    65   42   38 ar   
    66   40   39 2    
    67   41   39 am   
    68   62   41 1    
    69   63   41 1    
    70   43   42 ar   
    71   64   42 1    
    72   44   43 ar   
    73   65   43 1    
    74   66   44 1    
@<TRIPOS>SUBSTRUCTURE
     1 NAD701      1 GROUP   
@<TRIPOS>SET

