#    Name: 4l09_1UR_2_INTS_M
#    Modification time : Mon Apr  7 23:47:15 2014

@<TRIPOS>MOLECULE
4l09_1UR_2_INTS_M
   44     0     6     0     0
SMALL
NO_CHARGES


@<TRIPOS>ATOM
      1 CA          6.1980   -7.5970   15.9525 C.3       2 GLC5        0.0000 
      2 CA          8.3110   -7.2810   16.4800 C.3       6 GLL5        0.0000 
      3 CA          4.0850   -7.9130   15.4250 C.3       4 GLP5        0.0000 
      4 CA          9.5865   -8.5100   17.1390 C.3       2 GLC5        0.0000 
      5 CA         10.8620   -9.7390   17.7980 C.3       4 GLP5        0.0000 
      6 N           7.2735   -9.1590   14.6115 N.am      1 SEC2        0.0000 
      7 N           8.0450   -7.9230   14.2960 N.am      5 SEL2        0.0000 
      8 N           6.5020  -10.3950   14.9270 N.am      3 SEP2        0.0000 
      9 N           8.2110   -8.5830   13.0210 N.am      1 SEC2        0.0000 
     10 N           8.3770   -9.2430   11.7460 N.am      3 SEP2        0.0000 
     11 CA          8.1095   -5.2505   12.5195 C.3       2 GLC5        0.0000 
     12 CA          9.8660   -5.9890   13.3820 C.3       6 GLL5        0.0000 
     13 CA          6.3530   -4.5120   11.6570 C.3       4 GLP5        0.0000 
     14 CA         12.8225   -5.5930   13.0375 C.3       2 GLC5        0.0000 
     15 CA         11.5020   -4.2850   13.9600 C.3       6 GLL5        0.0000 
     16 CA         14.1430   -6.9010   12.1150 C.3       4 GLP5        0.0000 
     17 CA          8.7220   -4.6000   16.3675 C.3       2 GLC5        0.0000 
     18 CA          9.0380   -6.4790   17.3910 C.3       6 GLL5        0.0000 
     19 CA          8.4060   -2.7210   15.3440 C.3       4 GLP5        0.0000 
     20 CA         10.4230   -7.5165   17.4825 C.3       2 GLC5        0.0000 
     21 CA         11.8080   -8.5540   17.5740 C.3       4 GLP5        0.0000 
     22 CA          9.0755   -4.4248   14.6995 C.3       2 GLC5        0.0000 
     23 CA          9.6240   -6.2680   14.7280 C.3       6 GLL5        0.0000 
     24 CA         10.0605   -6.1750   11.4127 C.3       2 GLC5        0.0000 
     25 CA          9.7810   -6.8410    9.6400 C.3       4 GLP5        0.0000 
     26 CA         11.7045   -6.3255   12.1358 C.3       2 GLC5        0.0000 
     27 CA         13.0690   -7.1420   11.0860 C.3       4 GLP5        0.0000 
     28 CA          9.7820   -3.6890   14.4093 C.3       2 GLC5        0.0000 
     29 CA         10.8140   -5.0290   12.9890 C.3       6 GLL5        0.0000 
     30 CA         11.8240   -3.8560   11.6298 C.3       2 GLC5        0.0000 
     31 CA         12.4900   -3.0550    9.7850 C.3       4 GLP5        0.0000 
     32 CA          9.5938   -3.8545   15.4180 C.3       2 GLC5        0.0000 
     33 CA         11.2510   -4.5100   15.3090 C.3       6 GLL5        0.0000 
     34 CA          9.6453   -8.3398   18.4635 C.3       2 GLC5        0.0000 
     35 CA          8.8480   -6.4850   18.7940 C.3       6 GLL5        0.0000 
     36 CA          6.5745   -8.8780   19.9192 C.3       2 GLC5        0.0000 
     37 CA          8.0090   -7.3960   19.4640 C.3       6 GLL5        0.0000 
     38 CA          5.2110  -10.3860   19.6760 C.3       4 GLP5        0.0000 
     39 CA         10.8893   -6.1833   22.0310 C.3       2 GLC5        0.0000 
     40 CA          8.5480   -6.3830   21.6290 C.3       6 GLL5        0.0000 
     41 CA         12.8140   -6.4280   22.7700 C.3       4 GLP5        0.0000 
     42 CA          9.4812   -3.7212   20.2478 C.3       2 GLC5        0.0000 
     43 CA          9.3810   -5.4940   20.9550 C.3       6 GLL5        0.0000 
     44 CA          9.5060   -1.9180   20.2310 C.3       4 GLP5        0.0000 
@<TRIPOS>BOND
@<TRIPOS>SUBSTRUCTURE
     1 SEC2        6 GROUP        1 X    SEC  0     ROOT SEC X 2
     2 GLC5        1 GROUP        1 X    GLC  0     **** GLC X 6
     3 SEP2        8 GROUP        1 Y    SEP  0     ROOT SEP Y 9
     4 GLP5        3 GROUP        1 Y    GLP  0     **** GLP Y 13
     5 SEL2        7 GROUP        1 Z    SEL  0     ROOT SEL Z 16
     6 GLL5        2 GROUP        1 Z    GLL  0     **** GLL Z 20
@<TRIPOS>SET

