#    Name: 4l09_1UR_2_ligand
#    Modification time : Mon Apr  7 23:47:15 2014

@<TRIPOS>MOLECULE
4l09_1UR_2_ligand
   29    31     1     0     0
SMALL
NO_CHARGES


@<TRIPOS>ATOM
      1 CAK         8.3110   -7.2810   16.4800 C.2       1 1UR1201     0.0000 
      2 CAL         8.6520   -7.2180   15.1210 C.2       1 1UR1201     0.0000 
      3 OAM         8.0450   -7.9230   14.2960 O.2       1 1UR1201     0.0000 
      4 CAN         9.6240   -6.2680   14.7280 C.ar      1 1UR1201     0.0000 
      5 CAO         9.8660   -5.9890   13.3820 C.ar      1 1UR1201     0.0000 
      6 CAP        10.8140   -5.0290   12.9890 C.ar      1 1UR1201     0.0000 
      7 CAQ        11.5020   -4.2850   13.9600 C.ar      1 1UR1201     0.0000 
      8 CAR        11.2510   -4.5100   15.3090 C.ar      1 1UR1201     0.0000 
      9 CAS        10.3120   -5.4660   15.6750 C.ar      1 1UR1201     0.0000 
     10 OAT        10.0470   -5.6190   16.9730 O.3       1 1UR1201     0.0000 
     11 CAJ         9.0380   -6.4790   17.3910 C.2       1 1UR1201     0.0000 
     12 CAG         8.8480   -6.4850   18.7940 C.ar      1 1UR1201     0.0000 
     13 CAF         8.0090   -7.3960   19.4640 C.ar      1 1UR1201     0.0000 
     14 CAE         7.8670   -7.3440   20.8610 C.ar      1 1UR1201     0.0000 
     15 CAD         8.5480   -6.3830   21.6290 C.ar      1 1UR1201     0.0000 
     16 CAB         8.3940   -6.3040   23.0350 C.2       1 1UR1201     0.0000 
     17 OAC         7.5400   -7.0240   23.6180 O.co2     1 1UR1201     0.0000 
     18 OAA         9.0340   -5.4580   23.7120 O.co2     1 1UR1201     0.0000 
     19 CAI         9.3810   -5.4940   20.9550 C.ar      1 1UR1201     0.0000 
     20 CAH         9.5320   -5.5550   19.5740 C.ar      1 1UR1201     0.0000 
     21 H           7.5669   -7.8814   16.8055 H         1 1UR1201     0.0000 
     22 H           9.3364   -6.4994   12.6525 H         1 1UR1201     0.0000 
     23 H          11.0020   -4.8731   11.9952 H         1 1UR1201     0.0000 
     24 H          12.1861   -3.5794   13.6698 H         1 1UR1201     0.0000 
     25 H          11.7529   -3.9768   16.0240 H         1 1UR1201     0.0000 
     26 H           7.4964   -8.1048   18.9253 H         1 1UR1201     0.0000 
     27 H           7.2507   -8.0245   21.3332 H         1 1UR1201     0.0000 
     28 H           9.8974   -4.7743   21.4928 H         1 1UR1201     0.0000 
     29 H          10.1780   -4.8833   19.1059 H         1 1UR1201     0.0000 
@<TRIPOS>BOND
     1    2    1 1    
     2   11    1 2    
     3   21    1 1    
     4    3    2 2    
     5    4    2 1    
     6    5    4 ar   
     7    9    4 ar   
     8    6    5 ar   
     9   22    5 1    
    10    7    6 ar   
    11   23    6 1    
    12    8    7 ar   
    13   24    7 1    
    14    9    8 ar   
    15   25    8 1    
    16   10    9 1    
    17   11   10 1    
    18   12   11 1    
    19   13   12 ar   
    20   20   12 ar   
    21   14   13 ar   
    22   26   13 1    
    23   15   14 ar   
    24   27   14 1    
    25   16   15 1    
    26   19   15 ar   
    27   17   16 ar   
    28   18   16 ar   
    29   20   19 ar   
    30   28   19 1    
    31   29   20 1    
@<TRIPOS>SUBSTRUCTURE
     1 1UR1201     1 GROUP   
@<TRIPOS>SET

