#    Name: 2B8V_1_CAVITY_N1_ALL.mol2
#    Modification time : Tue Mar 11 03:16:16 2014

@<TRIPOS>MOLECULE
2B8V_1_CAVITY_N1_ALL.mol2
  131     0     7     0     0
SMALL
NO_CHARGES


@<TRIPOS>ATOM
      1 CA         27.0524   42.1071   -3.1311 C.3       6 GLY6        0.0000 
      2 N          31.8578   47.2601   -0.1553 N.2       2 ALA2        0.0000 
      3 N          35.2534   42.1016   -0.4865 N.2       2 ALA2        0.0000 
      4 N          34.1543   43.1223   -0.4791 N.2       2 ALA2        0.0000 
      5 N          34.2524   41.0258   -0.7878 N.2       2 ALA2        0.0000 
      6 N          33.1533   42.0465   -0.7803 N.2       2 ALA2        0.0000 
      7 O          27.7556   45.0535   -1.0517 O.2       2 ALA2        0.0000 
      8 O          26.6565   46.0742   -1.0442 O.2       2 ALA2        0.0000 
      9 O          25.5573   47.0949   -1.0367 O.2       2 ALA2        0.0000 
     10 OD1        24.4582   48.1156   -1.0292 O.3       3 ASP3        0.0000 
     11 O          26.7546   43.9778   -1.3530 O.2       2 ALA2        0.0000 
     12 DU         25.6555   44.9985   -1.3455 H         7 CUB7        0.0000 
     13 OG         24.5563   46.0192   -1.3380 O.2       1 SER1        0.0000 
     14 OG         23.4572   47.0399   -1.3305 O.2       1 SER1        0.0000 
     15 CA         26.8528   41.8814   -1.6617 C.3       6 GLY6        0.0000 
     16 CA         25.7536   42.9021   -1.6542 C.3       6 GLY6        0.0000 
     17 O          24.6545   43.9227   -1.6468 O.2       2 ALA2        0.0000 
     18 OG         23.5553   44.9434   -1.6393 O.2       1 SER1        0.0000 
     19 CA         24.7526   41.8263   -1.9555 C.3       6 GLY6        0.0000 
     20 O          23.6535   42.8470   -1.9480 O.2       2 ALA2        0.0000 
     21 CA         34.7593   48.1651    1.9092 C.3       6 GLY6        0.0000 
     22 CA         33.6602   49.1858    1.9167 C.3       6 GLY6        0.0000 
     23 CA         33.7583   47.0893    1.6079 C.3       6 GLY6        0.0000 
     24 CA         32.6592   48.1100    1.6154 C.3       6 GLY6        0.0000 
     25 CZ         36.0548   42.9515    1.2842 C.ar      5 PHE5        0.0000 
     26 CA         34.9556   43.9722    1.2916 C.3       6 GLY6        0.0000 
     27 CA         33.8565   44.9929    1.2991 C.3       6 GLY6        0.0000 
     28 N          32.7573   46.0136    1.3066 N.2       2 ALA2        0.0000 
     29 OG         31.6582   47.0343    1.3141 O.2       1 SER1        0.0000 
     30 CZ         36.1529   40.8551    0.9754 C.ar      5 PHE5        0.0000 
     31 CZ         35.0538   41.8758    0.9829 C.ar      5 PHE5        0.0000 
     32 N          33.9546   42.8965    0.9904 N.2       2 ALA2        0.0000 
     33 N          32.8555   43.9172    0.9979 N.2       2 ALA2        0.0000 
     34 N          31.7563   44.9379    1.0053 N.2       2 ALA2        0.0000 
     35 O          30.6572   45.9586    1.0128 O.2       2 ALA2        0.0000 
     36 OG         29.5580   46.9792    1.0203 O.2       1 SER1        0.0000 
     37 CZ         35.1519   39.7794    0.6741 C.ar      5 PHE5        0.0000 
     38 N          34.0528   40.8001    0.6816 N.2       2 ALA2        0.0000 
     39 N          32.9536   41.8207    0.6891 N.2       2 ALA2        0.0000 
     40 N          31.8545   42.8414    0.6966 N.2       2 ALA2        0.0000 
     41 O          30.7553   43.8621    0.7041 O.2       2 ALA2        0.0000 
     42 O          29.6562   44.8828    0.7115 O.2       2 ALA2        0.0000 
     43 O          28.5570   45.9035    0.7190 O.2       2 ALA2        0.0000 
     44 DU         27.4579   46.9242    0.7265 H         7 CUB7        0.0000 
     45 OD1        26.3587   47.9449    0.7340 O.3       3 ASP3        0.0000 
     46 CZ         34.1509   38.7036    0.3728 C.ar      5 PHE5        0.0000 
     47 N          33.0518   39.7243    0.3803 N.2       2 ALA2        0.0000 
     48 N          31.9526   40.7450    0.3878 N.2       2 ALA2        0.0000 
     49 CA         30.8535   41.7657    0.3953 C.3       6 GLY6        0.0000 
     50 O          29.7543   42.7864    0.4028 O.2       2 ALA2        0.0000 
     51 O          28.6552   43.8071    0.4103 O.2       2 ALA2        0.0000 
     52 O          27.5560   44.8278    0.4177 O.2       2 ALA2        0.0000 
     53 O          26.4569   45.8485    0.4252 O.2       2 ALA2        0.0000 
     54 O          25.3577   46.8691    0.4327 O.2       2 ALA2        0.0000 
     55 O          30.9516   39.6693    0.0865 O.2       2 ALA2        0.0000 
     56 CA         29.8525   40.6900    0.0940 C.3       6 GLY6        0.0000 
     57 CA         28.7533   41.7106    0.1015 C.3       6 GLY6        0.0000 
     58 DU         27.6542   42.7313    0.1090 H         7 CUB7        0.0000 
     59 DU         26.5550   43.7520    0.1165 H         7 CUB7        0.0000 
     60 O          25.4558   44.7727    0.1239 O.2       2 ALA2        0.0000 
     61 O          24.3567   45.7934    0.1314 O.2       2 ALA2        0.0000 
     62 CA         26.6531   41.6556   -0.1923 C.3       6 GLY6        0.0000 
     63 O          25.5540   42.6763   -0.1848 O.2       2 ALA2        0.0000 
     64 O          24.4548   43.6970   -0.1773 O.2       2 ALA2        0.0000 
     65 CZ         35.7570   44.8222    3.0623 C.ar      5 PHE5        0.0000 
     66 CA         34.6578   45.8429    3.0698 C.3       6 GLY6        0.0000 
     67 CA         33.5587   46.8636    3.0773 C.3       6 GLY6        0.0000 
     68 OG         32.4595   47.8843    3.0848 O.2       1 SER1        0.0000 
     69 CZ         35.8551   42.7258    2.7536 C.ar      5 PHE5        0.0000 
     70 CZ         34.7560   43.7465    2.7611 C.ar      5 PHE5        0.0000 
     71 CA         33.6568   44.7671    2.7685 C.3       6 GLY6        0.0000 
     72 OG         32.5577   45.7878    2.7760 O.2       1 SER1        0.0000 
     73 CA         35.9533   40.6293    2.4448 C.3       6 GLY6        0.0000 
     74 CA         34.8541   41.6500    2.4523 C.3       6 GLY6        0.0000 
     75 N          33.7550   42.6707    2.4598 N.2       2 ALA2        0.0000 
     76 N          32.6558   43.6914    2.4673 N.2       2 ALA2        0.0000 
     77 OG         31.5567   44.7121    2.4748 O.2       1 SER1        0.0000 
     78 CA         34.9523   39.5536    2.1435 C.3       6 GLY6        0.0000 
     79 N          33.8531   40.5743    2.1510 N.2       2 ALA2        0.0000 
     80 N          32.7540   41.5950    2.1585 N.2       2 ALA2        0.0000 
     81 N          31.6548   42.6157    2.1660 N.2       2 ALA2        0.0000 
     82 N          30.5557   43.6364    2.1735 N.2       2 ALA2        0.0000 
     83 OG         29.4565   44.6570    2.1810 O.2       1 SER1        0.0000 
     84 OG         28.3574   45.6777    2.1884 O.2       1 SER1        0.0000 
     85 CZ         33.9513   38.4778    1.8422 C.ar      5 PHE5        0.0000 
     86 N          32.8521   39.4985    1.8497 N.2       2 ALA2        0.0000 
     87 N          31.7530   40.5192    1.8572 N.2       2 ALA2        0.0000 
     88 N          30.6538   41.5399    1.8647 N.2       2 ALA2        0.0000 
     89 N          29.5547   42.5606    1.8722 N.2       2 ALA2        0.0000 
     90 O          28.4555   43.5813    1.8797 O.2       2 ALA2        0.0000 
     91 O          27.3564   44.6020    1.8872 O.2       2 ALA2        0.0000 
     92 O          26.2572   45.6227    1.8946 O.2       2 ALA2        0.0000 
     93 CZ         31.8511   38.4228    1.5484 C.ar      5 PHE5        0.0000 
     94 N          30.7520   39.4435    1.5559 N.2       2 ALA2        0.0000 
     95 OG         29.6528   40.4642    1.5634 O.2       1 SER1        0.0000 
     96 OG         28.5537   41.4849    1.5709 O.2       1 SER1        0.0000 
     97 CA         27.4545   42.5056    1.5784 C.3       6 GLY6        0.0000 
     98 CA         26.3554   43.5263    1.5859 C.3       6 GLY6        0.0000 
     99 O          25.2562   44.5469    1.5934 O.2       2 ALA2        0.0000 
    100 CZ         30.8501   37.3471    1.2471 C.ar      5 PHE5        0.0000 
    101 OG         29.7510   38.3677    1.2546 O.2       1 SER1        0.0000 
    102 OG         28.6518   39.3884    1.2621 O.2       1 SER1        0.0000 
    103 OG         27.5527   40.4091    1.2696 O.2       1 SER1        0.0000 
    104 CA         26.4535   41.4298    1.2771 C.3       6 GLY6        0.0000 
    105 O          29.8491   36.2713    0.9458 O.2       2 ALA2        0.0000 
    106 N          35.5573   44.5964    4.5318 N.2       2 ALA2        0.0000 
    107 O          34.4582   45.6171    4.5392 O.2       2 ALA2        0.0000 
    108 O          33.3590   46.6378    4.5467 O.2       2 ALA2        0.0000 
    109 N          32.2599   47.6585    4.5542 N.2       2 ALA2        0.0000 
    110 CA         34.5563   43.5207    4.2305 C.3       6 GLY6        0.0000 
    111 N          33.4572   44.5414    4.2380 N.2       2 ALA2        0.0000 
    112 OG         32.3580   45.5621    4.2455 O.2       1 SER1        0.0000 
    113 OG         31.3570   44.4863    3.9442 O.2       1 SER1        0.0000 
    114 CA         34.7526   39.3278    3.6129 C.3       6 GLY6        0.0000 
    115 N          33.6535   40.3485    3.6204 N.2       2 ALA2        0.0000 
    116 NZ         33.7516   38.2521    3.3116 N.2       4 LYS4        0.0000 
    117 N          32.6525   39.2728    3.3191 N.2       2 ALA2        0.0000 
    118 NZ         31.6515   38.1970    3.0178 N.2       4 LYS4        0.0000 
    119 N          30.5523   39.2177    3.0253 N.2       2 ALA2        0.0000 
    120 NZ         31.7496   36.1006    2.7090 N.2       4 LYS4        0.0000 
    121 NZ         30.6505   37.1213    2.7165 N.2       4 LYS4        0.0000 
    122 OG         29.5513   38.1420    2.7240 O.2       1 SER1        0.0000 
    123 N          29.6495   36.0455    2.4152 N.2       2 ALA2        0.0000 
    124 N          32.0602   47.4327    6.0236 N.2       2 ALA2        0.0000 
    125 CA         33.2575   44.3156    5.7074 C.3       6 GLY6        0.0000 
    126 OG         32.1584   45.3363    5.7149 O.2       1 SER1        0.0000 
    127 O          31.1574   44.2605    5.4136 O.2       2 ALA2        0.0000 
    128 O          32.8616   48.2827    7.7943 O.2       2 ALA2        0.0000 
    129 O          31.8606   47.2069    7.4931 O.2       2 ALA2        0.0000 
    130 CA         31.9587   45.1105    7.1843 C.3       6 GLY6        0.0000 
    131 OG         30.8596   46.1312    7.1918 O.2       1 SER1        0.0000 
@<TRIPOS>BOND
@<TRIPOS>SUBSTRUCTURE
     1 SER1       13 GROUP   
     2 ALA2        2 GROUP   
     3 ASP3       10 GROUP   
     4 LYS4      116 GROUP   
     5 PHE5       25 GROUP   
     6 GLY6        1 GROUP   
     7 CUB7       12 GROUP   
@<TRIPOS>SET

