#    Name: 2b8v_3BN_1_INTS_M
#    Modification time : Mon Mar 24 20:21:57 2014

@<TRIPOS>MOLECULE
2b8v_3BN_1_INTS_M
   76     0    12     0     0
SMALL
NO_CHARGES


@<TRIPOS>ATOM
      1 CA         29.0500   34.9750    4.5920 C.3       4 GLC5        0.0000 
      2 CA         28.0150   35.2090    2.6140 C.3      12 GLL5        0.0000 
      3 CA         30.0850   34.7410    6.5700 C.3       8 GLP5        0.0000 
      4 OD1        29.1435   37.0030    4.9625 O.co2     3 ASC3        0.0000 
      5 OD1        28.7740   36.2310    3.1570 O.co2    11 ASL3        0.0000 
      6 OD1        29.5130   37.7750    6.7680 O.co2     7 ASP3        0.0000 
      7 OD1        28.3525   36.9485    4.2035 O.co2     3 ASC3        0.0000 
      8 OD1        27.9310   37.6660    5.2500 O.co2     7 ASP3        0.0000 
      9 CA         31.4160   38.8295    4.7510 C.3       4 GLC5        0.0000 
     10 CA         31.0020   37.4510    3.0310 C.3      12 GLL5        0.0000 
     11 CA         31.8300   40.2080    6.4710 C.3       8 GLP5        0.0000 
     12 O          31.2215   40.5730    3.2685 O.2       1 ALC1        0.0000 
     13 O          31.0740   39.6990    2.0660 O.2       9 ALL1        0.0000 
     14 O          31.3690   41.4470    4.4710 O.2       5 ALP1        0.0000 
     15 N          30.0820   39.6010   -1.5030 N.am      2 SEC2        0.0000 
     16 N          30.0950   39.4110    0.0510 N.am     10 SEL2        0.0000 
     17 N          30.0690   39.7910   -3.0570 N.am      6 SEP2        0.0000 
     18 O          32.0250   36.7355    4.7765 O.2       1 ALC1        0.0000 
     19 O          31.7010   36.3200    3.1110 O.2       9 ALL1        0.0000 
     20 O          32.3490   37.1510    6.4420 O.2       5 ALP1        0.0000 
     21 O          32.6695   36.2620    4.0220 O.2       1 ALC1        0.0000 
     22 O          33.6380   36.2040    4.9330 O.2       5 ALP1        0.0000 
     23 CA         32.5160   39.4155    4.5235 C.3       4 GLC5        0.0000 
     24 CA         33.2020   38.6230    2.5760 C.3      12 GLL5        0.0000 
     25 CA         28.7980   45.5025    2.9540 C.3       4 GLC5        0.0000 
     26 CA         29.1110   44.2850    1.1950 C.3      12 GLL5        0.0000 
     27 CA         28.4850   46.7200    4.7130 C.3       8 GLP5        0.0000 
     28 CA         28.0585   40.3215   -0.4370 C.3       4 GLC5        0.0000 
     29 CA         28.6300   41.8950    0.7870 C.3      12 GLL5        0.0000 
     30 CA         27.4870   38.7480   -1.6610 C.3       8 GLP5        0.0000 
     31 N          31.8885   45.5035   -0.1315 N.am      2 SEC2        0.0000 
     32 N          31.2360   46.2030    1.2640 N.am     10 SEL2        0.0000 
     33 N          32.5410   44.8040   -1.5270 N.am      6 SEP2        0.0000 
     34 CA         26.1945   41.1195   -1.4090 C.3       4 GLC5        0.0000 
     35 CA         26.1510   42.7980   -0.6070 C.3      12 GLL5        0.0000 
     36 CA         26.2380   39.4410   -2.2110 C.3       8 GLP5        0.0000 
     37 CA         24.7665   42.2005    0.6870 C.3       4 GLC5        0.0000 
     38 CA         23.3820   41.6030    1.9810 C.3       8 GLP5        0.0000 
     39 CA         30.5310   43.0750    4.5655 C.3       4 GLC5        0.0000 
     40 CA         32.3570   44.2730    4.0630 C.3      12 GLL5        0.0000 
     41 CA         28.7050   41.8770    5.0680 C.3       8 GLP5        0.0000 
     42 N          26.1385   45.3460    3.8315 N.am      2 SEC2        0.0000 
     43 N          26.5170   45.0760    2.4240 N.am     10 SEL2        0.0000 
     44 N          25.7600   45.6160    5.2390 N.am      6 SEP2        0.0000 
     45 CA         33.0905   38.3365   -0.6785 C.3       4 GLC5        0.0000 
     46 CA         33.9150   39.7060    0.2790 C.3      12 GLL5        0.0000 
     47 CA         32.2660   36.9670   -1.6360 C.3       8 GLP5        0.0000 
     48 CA         27.3610   33.1645    3.3872 C.3       4 GLC5        0.0000 
     49 CA         26.7110   34.6590    3.1270 C.3      12 GLL5        0.0000 
     50 CA         27.3590   31.3950    3.9040 C.3       8 GLP5        0.0000 
     51 CA         26.0280   34.9370    4.4120 C.3       4 GLC5        0.0000 
     52 CA         25.0120   34.7260    5.9240 C.3       8 GLP5        0.0000 
     53 CA         32.8491   36.9825    1.4000 C.3       4 GLC5        0.0000 
     54 CA         33.4060   35.6900    0.2330 C.3       8 GLP5        0.0000 
     55 CA         29.5791   42.4541    3.2372 C.3       4 GLC5        0.0000 
     56 CA         29.9760   41.5550    1.1000 C.3      12 GLL5        0.0000 
     57 CA         27.3715   42.2327    2.4728 C.3       4 GLC5        0.0000 
     58 CA         26.3500   41.8910    4.1390 C.3       8 GLP5        0.0000 
     59 CA         30.1596   42.0364   -0.8378 C.3       4 GLC5        0.0000 
     60 CA         30.7880   42.0860   -2.7120 C.3       8 GLP5        0.0000 
     61 CA         35.5252   43.4990    5.7112 C.3       4 GLC5        0.0000 
     62 CA         34.7950   44.6010    4.3970 C.3      12 GLL5        0.0000 
     63 CA         36.8850   42.6690    6.7880 C.3       8 GLP5        0.0000 
     64 CA         35.1325   46.9678    4.4655 C.3       4 GLC5        0.0000 
     65 CA         35.4150   48.8990    5.1120 C.3       8 GLP5        0.0000 
     66 CA         34.9431   45.4318    5.7274 C.3       4 GLC5        0.0000 
     67 CA         34.9050   45.4720    3.2410 C.3      12 GLL5        0.0000 
     68 CA         35.3510   45.9630    7.5170 C.3       8 GLP5        0.0000 
     69 CA         35.1580   46.0250    1.5513 C.3       4 GLC5        0.0000 
     70 CA         36.0030   46.4750    0.2660 C.3       8 GLP5        0.0000 
     71 CA         35.3665   38.5778    3.0206 C.3       4 GLC5        0.0000 
     72 CA         34.6370   40.6790    2.5310 C.3      12 GLL5        0.0000 
     73 CA         36.6320   37.2410    3.6930 C.3       8 GLP5        0.0000 
     74 CA         35.5320   40.6851    3.5151 C.3       4 GLC5        0.0000 
     75 CA         33.9280   39.6770    1.7550 C.3      12 GLL5        0.0000 
     76 CA         36.6020   40.9270    5.0570 C.3       8 GLP5        0.0000 
@<TRIPOS>BOND
@<TRIPOS>SUBSTRUCTURE
     1 ALC1       12 GROUP        1 X    ALC  0     ROOT ALC X 1
     2 SEC2       15 GROUP        1 X    SEC  0     **** SEC X 2
     3 ASC3        4 GROUP        1 X    ASC  0     **** ASC X 3
     4 GLC5        1 GROUP        1 X    GLC  0     **** GLC X 6
     5 ALP1       14 GROUP        1 Y    ALP  0     ROOT ALP Y 8
     6 SEP2       17 GROUP        1 Y    SEP  0     **** SEP Y 9
     7 ASP3        6 GROUP        1 Y    ASP  0     **** ASP Y 10
     8 GLP5        3 GROUP        1 Y    GLP  0     **** GLP Y 13
     9 ALL1       13 GROUP        1 Z    ALL  0     ROOT ALL Z 15
    10 SEL2       16 GROUP        1 Z    SEL  0     **** SEL Z 16
    11 ASL3        5 GROUP        1 Z    ASL  0     **** ASL Z 17
    12 GLL5        2 GROUP        1 Z    GLL  0     **** GLL Z 20
@<TRIPOS>SET

