#    Name: 2b8v_3BN_1_ligand
#    Modification time : Mon Mar 24 20:21:57 2014

@<TRIPOS>MOLECULE
2b8v_3BN_1_ligand
   70    73     1     0     0
SMALL
NO_CHARGES


@<TRIPOS>ATOM
      1 C1         26.7390   36.0650    2.7320 C.3       1 3BN1001     0.0000 
      2 C2         28.0150   35.2090    2.6140 C.3       1 3BN1001     0.0000 
      3 C3         26.7110   34.6590    3.1270 C.3       1 3BN1001     0.0000 
      4 N1         28.7740   36.2310    3.1570 N.4       1 3BN1001     0.0000 
      5 C4         29.5950   37.1820    2.4740 C.3       1 3BN1001     0.0000 
      6 C5         31.0020   37.4510    3.0310 C.3       1 3BN1001     0.0000 
      7 C6         31.7630   38.4030    2.0850 C.3       1 3BN1001     0.0000 
      8 N2         31.0740   39.6990    2.0660 N.am      1 3BN1001     0.0000 
      9 C7         30.3750   40.1420    1.0100 C.2       1 3BN1001     0.0000 
     10 O2         30.0950   39.4110    0.0510 O.2       1 3BN1001     0.0000 
     11 O3         31.7010   36.3200    3.1110 O.3       1 3BN1001     0.0000 
     12 C8         33.2020   38.6230    2.5760 C.3       1 3BN1001     0.0000 
     13 C9         29.9760   41.5550    1.1000 C.ar      1 3BN1001     0.0000 
     14 C10        30.8890   42.6020    1.4720 C.ar      1 3BN1001     0.0000 
     15 C11        30.4740   43.9840    1.5270 C.ar      1 3BN1001     0.0000 
     16 C12        29.1110   44.2850    1.1950 C.ar      1 3BN1001     0.0000 
     17 C13        28.1560   43.2540    0.8260 C.ar      1 3BN1001     0.0000 
     18 C14        28.6300   41.8950    0.7870 C.ar      1 3BN1001     0.0000 
     19 C15        31.3850   45.1240    1.8380 C.2       1 3BN1001     0.0000 
     20 N3         26.8220   43.5060    0.5190 N.pl3     1 3BN1001     0.0000 
     21 O4         31.2360   46.2030    1.2640 O.2       1 3BN1001     0.0000 
     22 C16        26.1510   42.7980   -0.6070 C.3       1 3BN1001     0.0000 
     23 C17        32.3570   44.2730    4.0630 C.ar      1 3BN1001     0.0000 
     24 C18        33.5360   44.0570    4.8720 C.ar      1 3BN1001     0.0000 
     25 C19        34.7950   44.6010    4.3970 C.ar      1 3BN1001     0.0000 
     26 C20        34.9050   45.4720    3.2410 C.ar      1 3BN1001     0.0000 
     27 C21        33.7210   45.6780    2.4320 C.ar      1 3BN1001     0.0000 
     28 C22        32.4780   45.0090    2.8100 C.ar      1 3BN1001     0.0000 
     29 S1         25.9900   44.7670    1.1370 S.o2      1 3BN1001     0.0000 
     30 C23        26.3160   46.1850    0.0880 C.3       1 3BN1001     0.0000 
     31 O5         24.6060   44.4540    1.0320 O.2       1 3BN1001     0.0000 
     32 O6         26.5170   45.0760    2.4240 O.2       1 3BN1001     0.0000 
     33 C24        33.9150   39.7060    0.2790 C.ar      1 3BN1001     0.0000 
     34 C25        34.6130   40.7760   -0.4050 C.ar      1 3BN1001     0.0000 
     35 C26        35.3000   41.7660    0.3950 C.ar      1 3BN1001     0.0000 
     36 C27        35.3550   41.7400    1.8520 C.ar      1 3BN1001     0.0000 
     37 C28        34.6370   40.6790    2.5310 C.ar      1 3BN1001     0.0000 
     38 C29        33.9280   39.6770    1.7550 C.ar      1 3BN1001     0.0000 
     39 H          26.3905   36.1596    1.8513 H         1 3BN1001     0.0000 
     40 H          26.8480   36.6141    3.5018 H         1 3BN1001     0.0000 
     41 H          27.9686   35.0645    1.6045 H         1 3BN1001     0.0000 
     42 H          26.3145   34.1320    2.4308 H         1 3BN1001     0.0000 
     43 H          26.7721   34.5866    4.0813 H         1 3BN1001     0.0000 
     44 H          29.0765   38.1848    2.4094 H         1 3BN1001     0.0000 
     45 H          29.7277   36.8902    1.3896 H         1 3BN1001     0.0000 
     46 H          30.8910   37.9676    3.9720 H         1 3BN1001     0.0000 
     47 H          31.7887   37.9747    1.1101 H         1 3BN1001     0.0000 
     48 H          31.1634   40.2655    2.9422 H         1 3BN1001     0.0000 
     49 H          33.7447   37.6757    2.5142 H         1 3BN1001     0.0000 
     50 H          33.1737   38.9335    3.6241 H         1 3BN1001     0.0000 
     51 H          31.8569   42.3644    1.7038 H         1 3BN1001     0.0000 
     52 H          28.7917   45.2612    1.2167 H         1 3BN1001     0.0000 
     53 H          27.9689   41.1509    0.5236 H         1 3BN1001     0.0000 
     54 H          31.4645   43.9231    4.3554 H         1 3BN1001     0.0000 
     55 H          33.4883   43.5523    5.7267 H         1 3BN1001     0.0000 
     56 H          35.6586   44.3554    4.9087 H         1 3BN1001     0.0000 
     57 H          35.7656   45.9123    3.0129 H         1 3BN1001     0.0000 
     58 H          33.7481   46.2684    1.6255 H         1 3BN1001     0.0000 
     59 H          33.4317   38.9972   -0.2264 H         1 3BN1001     0.0000 
     60 H          34.6188   40.8273   -1.4001 H         1 3BN1001     0.0000 
     61 H          35.7839   42.5428   -0.0923 H         1 3BN1001     0.0000 
     62 H          35.8643   42.4227    2.3549 H         1 3BN1001     0.0000 
     63 H          34.6294   40.6362    3.5365 H         1 3BN1001     0.0000 
     64 H          26.6010   42.9804   -1.4812 H         1 3BN1001     0.0000 
     65 H          26.1543   41.8065   -0.4769 H         1 3BN1001     0.0000 
     66 H          25.1959   43.0776   -0.7050 H         1 3BN1001     0.0000 
     67 H          27.2899   46.4105    0.0604 H         1 3BN1001     0.0000 
     68 H          26.0256   46.0238   -0.8552 H         1 3BN1001     0.0000 
     69 H          25.8350   47.0015    0.4073 H         1 3BN1001     0.0000 
     70 H          32.3922   36.4922    3.8129 H         1 3BN1001     0.0000 
@<TRIPOS>BOND
     1    2    1 1    
     2    3    1 1    
     3   39    1 1    
     4   40    1 1    
     5    3    2 1    
     6    4    2 1    
     7   41    2 1    
     8   42    3 1    
     9   43    3 1    
    10    5    4 1    
    11    6    5 1    
    12   44    5 1    
    13   45    5 1    
    14    7    6 1    
    15   11    6 1    
    16   46    6 1    
    17    8    7 1    
    18   12    7 1    
    19   47    7 1    
    20    9    8 am   
    21   48    8 1    
    22   10    9 2    
    23   13    9 1    
    24   70   11 1    
    25   38   12 1    
    26   49   12 1    
    27   50   12 1    
    28   14   13 ar   
    29   18   13 ar   
    30   15   14 ar   
    31   51   14 1    
    32   16   15 ar   
    33   19   15 1    
    34   17   16 ar   
    35   52   16 1    
    36   18   17 ar   
    37   20   17 1    
    38   53   18 1    
    39   21   19 2    
    40   28   19 1    
    41   22   20 1    
    42   29   20 1    
    43   64   22 1    
    44   65   22 1    
    45   66   22 1    
    46   24   23 ar   
    47   28   23 ar   
    48   54   23 1    
    49   25   24 ar   
    50   55   24 1    
    51   26   25 ar   
    52   56   25 1    
    53   27   26 ar   
    54   57   26 1    
    55   28   27 ar   
    56   58   27 1    
    57   30   29 1    
    58   31   29 2    
    59   32   29 2    
    60   67   30 1    
    61   68   30 1    
    62   69   30 1    
    63   34   33 ar   
    64   38   33 ar   
    65   59   33 1    
    66   35   34 ar   
    67   60   34 1    
    68   36   35 ar   
    69   61   35 1    
    70   37   36 ar   
    71   62   36 1    
    72   38   37 ar   
    73   63   37 1    
@<TRIPOS>SUBSTRUCTURE
     1 3BN1001     1 GROUP   
@<TRIPOS>SET

