#    Name: 3tdh_AMP_1_INTS_M
#    Modification time : Mon Mar 24 19:34:03 2014

@<TRIPOS>MOLECULE
3tdh_AMP_1_INTS_M
   48     0     9     0     0
SMALL
NO_CHARGES


@<TRIPOS>ATOM
      1 N          31.2820   64.6470    3.5825 N.am      2 SEC2        0.0000 
      2 N          31.5640   66.3330    3.2080 N.am      8 SEL2        0.0000 
      3 N          31.0000   62.9610    3.9570 N.am      5 SEP2        0.0000 
      4 N          32.8770   67.8080    0.6000 N.am      2 SEC2        0.0000 
      5 N          32.0400   66.4830    0.7190 N.am      8 SEL2        0.0000 
      6 N          33.7140   69.1330    0.4810 N.am      5 SEP2        0.0000 
      7 N          32.2800   67.0485   -0.4625 N.am      2 SEC2        0.0000 
      8 N          32.5200   67.6140   -1.6440 N.am      5 SEP2        0.0000 
      9 N          30.5380   64.0370    2.7625 N.am      2 SEC2        0.0000 
     10 N          30.0760   65.1130    1.5680 N.am      8 SEL2        0.0000 
     11 O          31.2505   71.6495   -1.2255 O.2       1 ALC1        0.0000 
     12 O          30.1430   71.2340   -0.7130 O.2       7 ALL1        0.0000 
     13 O          32.3580   72.0650   -1.7380 O.2       4 ALP1        0.0000 
     14 N          30.9075   73.1990    2.0240 N.am      2 SEC2        0.0000 
     15 N          31.3340   72.0480    1.5290 N.am      8 SEL2        0.0000 
     16 N          30.4810   74.3500    2.5190 N.am      5 SEP2        0.0000 
     17 O          32.4780   72.0050    0.7965 O.2       1 ALC1        0.0000 
     18 O          31.3340   72.0480    1.5290 O.2       7 ALL1        0.0000 
     19 O          33.6220   71.9620    0.0640 O.2       4 ALP1        0.0000 
     20 CA         26.6640   71.0875    8.3685 C.3       3 GLC5        0.0000 
     21 CA         28.4200   71.0180    7.1800 C.3       9 GLL5        0.0000 
     22 CA         24.9080   71.1570    9.5570 C.3       6 GLP5        0.0000 
     23 O          28.0980   71.1245    9.6445 O.2       1 ALC1        0.0000 
     24 O          28.6890   70.4880    8.3920 O.2       7 ALL1        0.0000 
     25 O          27.5070   71.7610   10.8970 O.2       4 ALP1        0.0000 
     26 O          29.1160   69.0385    8.7375 O.2       1 ALC1        0.0000 
     27 O          29.5430   67.5890    9.0830 O.2       4 ALP1        0.0000 
     28 N          26.7270   72.7090    8.0725 N.am      2 SEC2        0.0000 
     29 N          27.5460   72.0420    7.0480 N.am      8 SEL2        0.0000 
     30 N          25.9080   73.3760    9.0970 N.am      5 SEP2        0.0000 
     31 CA         26.9475   74.0380    7.0015 C.3       3 GLC5        0.0000 
     32 CA         27.2610   72.5880    5.8490 C.3       9 GLL5        0.0000 
     33 CA         26.6340   75.4880    8.1540 C.3       6 GLP5        0.0000 
     34 CA         25.6955   71.8935    6.4980 C.3       3 GLC5        0.0000 
     35 CA         24.1300   71.1990    7.1470 C.3       6 GLP5        0.0000 
     36 CA         26.9935   70.4250    5.4975 C.3       3 GLC5        0.0000 
     37 CA         26.7260   68.2620    5.1460 C.3       6 GLP5        0.0000 
     38 CA         32.1725   69.7710    1.9080 C.3       3 GLC5        0.0000 
     39 CA         30.6950   70.7710    1.6060 C.3       9 GLL5        0.0000 
     40 CA         33.8090   69.0600    2.8940 C.3       6 GLP5        0.0000 
     41 CA         31.1400   71.8800    3.4265 C.3       3 GLC5        0.0000 
     42 CA         32.2640   72.9450    4.9060 C.3       6 GLP5        0.0000 
     43 CA         29.9567   72.5922    0.8890 C.3       3 GLC5        0.0000 
     44 CA         29.9770   74.5140    0.1730 C.3       6 GLP5        0.0000 
     45 CA         30.5783   71.8845    5.1120 C.3       3 GLC5        0.0000 
     46 CA         29.0750   70.5000    5.9540 C.3       9 GLL5        0.0000 
     47 CA         27.7274   69.6078    5.3853 C.3       3 GLC5        0.0000 
     48 CA         28.7100   71.1480    4.6820 C.3       9 GLL5        0.0000 
@<TRIPOS>BOND
@<TRIPOS>SUBSTRUCTURE
     1 ALC1       11 GROUP        1 X    ALC  0     ROOT ALC X 1
     2 SEC2        1 GROUP        1 X    SEC  0     **** SEC X 2
     3 GLC5       20 GROUP        1 X    GLC  0     **** GLC X 6
     4 ALP1       13 GROUP        1 Y    ALP  0     ROOT ALP Y 8
     5 SEP2        3 GROUP        1 Y    SEP  0     **** SEP Y 9
     6 GLP5       22 GROUP        1 Y    GLP  0     **** GLP Y 13
     7 ALL1       12 GROUP        1 Z    ALL  0     ROOT ALL Z 15
     8 SEL2        2 GROUP        1 Z    SEL  0     **** SEL Z 16
     9 GLL5       21 GROUP        1 Z    GLL  0     **** GLL Z 20
@<TRIPOS>SET

