#    Name: 3tdh_AMP_1_ligand
#    Modification time : Mon Mar 24 19:34:03 2014

@<TRIPOS>MOLECULE
3tdh_AMP_1_ligand
   35    37     1     0     0
SMALL
NO_CHARGES


@<TRIPOS>ATOM
      1 P          31.0100   66.2800    1.8060 P.3       1 AMP323      0.0000 
      2 O1P        31.5640   66.3330    3.2080 O.co2     1 AMP323      0.0000 
      3 O2P        32.0400   66.4830    0.7190 O.co2     1 AMP323      0.0000 
      4 O3P        30.0760   65.1130    1.5680 O.co2     1 AMP323      0.0000 
      5 O5'        30.0630   67.5810    1.7080 O.3       1 AMP323      0.0000 
      6 C5'        29.3370   67.9020    0.5170 C.3       1 AMP323      0.0000 
      7 C4'        29.0890   69.4110    0.4310 C.3       1 AMP323      0.0000 
      8 O4'        28.4920   69.9020    1.6380 O.3       1 AMP323      0.0000 
      9 C3'        30.3770   70.1930    0.2380 C.3       1 AMP323      0.0000 
     10 O3'        30.1430   71.2340   -0.7130 O.3       1 AMP323      0.0000 
     11 C2'        30.6950   70.7710    1.6060 C.3       1 AMP323      0.0000 
     12 O2'        31.3340   72.0480    1.5290 O.3       1 AMP323      0.0000 
     13 C1'        29.3370   70.8590    2.2880 C.3       1 AMP323      0.0000 
     14 N9         29.4090   70.5260    3.7320 N.pl3     1 AMP323      0.0000 
     15 C8         30.1530   69.5610    4.3100 C.2       1 AMP323      0.0000 
     16 N7         29.9640   69.5340    5.6550 N.2       1 AMP323      0.0000 
     17 C5         29.0750   70.5000    5.9540 C.ar      1 AMP323      0.0000 
     18 C6         28.4200   71.0180    7.1800 C.ar      1 AMP323      0.0000 
     19 N6         28.6890   70.4880    8.3920 N.pl3     1 AMP323      0.0000 
     20 N1         27.5460   72.0420    7.0480 N.ar      1 AMP323      0.0000 
     21 C2         27.2610   72.5880    5.8490 C.ar      1 AMP323      0.0000 
     22 N3         27.8130   72.1650    4.6960 N.ar      1 AMP323      0.0000 
     23 C4         28.7100   71.1480    4.6820 C.ar      1 AMP323      0.0000 
     24 H          28.3594   67.4020    0.4906 H         1 AMP323      0.0000 
     25 H          29.8862   67.6029   -0.3860 H         1 AMP323      0.0000 
     26 H          28.4469   69.6107   -0.4148 H         1 AMP323      0.0000 
     27 H          31.1404   69.5255   -0.0459 H         1 AMP323      0.0000 
     28 H          31.2770   70.0422    2.1417 H         1 AMP323      0.0000 
     29 H          28.9521   71.8499    2.1528 H         1 AMP323      0.0000 
     30 H          30.7547   68.9540    3.8263 H         1 AMP323      0.0000 
     31 H          28.5792   71.1009    9.1745 H         1 AMP323      0.0000 
     32 H          28.9742   69.5296    8.3997 H         1 AMP323      0.0000 
     33 H          26.5653   73.3931    5.8125 H         1 AMP323      0.0000 
     34 H          30.9804   71.7806   -0.7096 H         1 AMP323      0.0000 
     35 H          32.3090   71.8444    1.4393 H         1 AMP323      0.0000 
@<TRIPOS>BOND
     1    2    1 ar   
     2    3    1 ar   
     3    4    1 ar   
     4    5    1 1    
     5    6    5 1    
     6    7    6 1    
     7   24    6 1    
     8   25    6 1    
     9    8    7 1    
    10    9    7 1    
    11   26    7 1    
    12   13    8 1    
    13   10    9 1    
    14   11    9 1    
    15   27    9 1    
    16   34   10 1    
    17   12   11 1    
    18   13   11 1    
    19   28   11 1    
    20   35   12 1    
    21   14   13 1    
    22   29   13 1    
    23   15   14 1    
    24   23   14 1    
    25   16   15 2    
    26   30   15 1    
    27   17   16 1    
    28   18   17 ar   
    29   23   17 ar   
    30   19   18 1    
    31   20   18 ar   
    32   31   19 1    
    33   32   19 1    
    34   21   20 ar   
    35   22   21 ar   
    36   33   21 1    
    37   23   22 ar   
@<TRIPOS>SUBSTRUCTURE
     1 AMP323      1 GROUP   
@<TRIPOS>SET

