#    Name: 3ivg_FG5_1_INTS_M
#    Modification time : Tue Mar 25 17:31:31 2014

@<TRIPOS>MOLECULE
3ivg_FG5_1_INTS_M
   80     0     6     0     0
SMALL
NO_CHARGES


@<TRIPOS>ATOM
      1 N           3.5995  -14.8870   40.1945 N.am      1 SEC2        0.0000 
      2 N           3.2920  -13.8500   38.9340 N.am      5 SEL2        0.0000 
      3 N           3.9070  -15.9240   41.4550 N.am      3 SEP2        0.0000 
      4 CA          2.8710  -10.7415   40.2255 C.3       2 GLC5        0.0000 
      5 CA          2.0520  -11.8850   39.3060 C.3       6 GLL5        0.0000 
      6 CA          3.6900   -9.5980   41.1450 C.3       4 GLP5        0.0000 
      7 CA          1.8240  -13.5705   40.6415 C.3       2 GLC5        0.0000 
      8 CA          1.5960  -15.2560   41.9770 C.3       4 GLP5        0.0000 
      9 CA         -3.6085   -8.5980   40.9485 C.3       2 GLC5        0.0000 
     10 CA         -2.9080   -6.8670   40.9480 C.3       6 GLL5        0.0000 
     11 CA         -4.3090  -10.3290   40.9490 C.3       4 GLP5        0.0000 
     12 CA         -4.9170   -6.7865   41.1885 C.3       2 GLC5        0.0000 
     13 CA         -6.9260   -6.7060   41.4290 C.3       4 GLP5        0.0000 
     14 CA         -3.2550   -6.1320   39.0680 C.3       2 GLC5        0.0000 
     15 CA         -3.6020   -5.3970   37.1880 C.3       4 GLP5        0.0000 
     16 CA         -1.3280   -5.9980   39.6380 C.3       2 GLC5        0.0000 
     17 CA          0.2520   -5.1290   38.3280 C.3       4 GLP5        0.0000 
     18 CA         -3.6910   -5.0310   40.6755 C.3       2 GLC5        0.0000 
     19 CA         -4.4740   -3.1950   40.4030 C.3       4 GLP5        0.0000 
     20 CA         -1.5960   -6.4080   42.6495 C.3       2 GLC5        0.0000 
     21 CA         -0.2840   -5.9490   44.3510 C.3       4 GLP5        0.0000 
     22 CA         -3.8815   -7.4760   42.3320 C.3       2 GLC5        0.0000 
     23 CA         -4.8550   -8.0850   43.7160 C.3       4 GLP5        0.0000 
     24 N          -0.3930  -13.0885   32.4050 N.am      1 SEC2        0.0000 
     25 N           0.2400  -12.4860   33.7990 N.am      5 SEL2        0.0000 
     26 N          -1.0260  -13.6910   31.0110 N.am      3 SEP2        0.0000 
     27 N          -0.9405  -12.6545   34.6355 N.am      1 SEC2        0.0000 
     28 N          -2.1210  -12.8230   35.4720 N.am      3 SEP2        0.0000 
     29 CA          0.9815   -9.0890   26.3770 C.3       2 GLC5        0.0000 
     30 CA          2.3080  -10.0390   27.9140 C.3       6 GLL5        0.0000 
     31 CA         -0.3450   -8.1390   24.8400 C.3       4 GLP5        0.0000 
     32 CA          0.3295   -8.6510   43.4245 C.3       2 GLC5        0.0000 
     33 CA         -0.6190   -9.5480   41.6640 C.3       6 GLL5        0.0000 
     34 CA          1.2780   -7.7540   45.1850 C.3       4 GLP5        0.0000 
     35 CA         -1.1340  -11.2000   42.9370 C.3       2 GLC5        0.0000 
     36 CA         -1.6490  -12.8520   44.2100 C.3       4 GLP5        0.0000 
     37 CA         -1.7190  -10.7610   36.5075 C.3       2 GLC5        0.0000 
     38 CA         -0.2960   -9.6160   37.5530 C.3       6 GLL5        0.0000 
     39 CA         -3.1420  -11.9060   35.4620 C.3       4 GLP5        0.0000 
     40 CA         -1.8475   -8.4765   36.5910 C.3       2 GLC5        0.0000 
     41 CA         -3.3990   -7.3370   35.6290 C.3       4 GLP5        0.0000 
     42 N          -2.2225   -7.7165   43.2095 N.am      1 SEC2        0.0000 
     43 N          -2.3030   -7.9420   41.6670 N.am      5 SEL2        0.0000 
     44 N          -2.1420   -7.4910   44.7520 N.am      3 SEP2        0.0000 
     45 CA         -3.1545   -8.3940   42.3325 C.3       2 GLC5        0.0000 
     46 CA         -1.4540   -8.7030   40.9490 C.3       6 GLL5        0.0000 
     47 CA          2.4225  -12.3355   32.2080 C.3       2 GLC5        0.0000 
     48 CA          1.1860  -10.5710   32.2120 C.3       6 GLL5        0.0000 
     49 CA          3.6590  -14.1000   32.2040 C.3       4 GLP5        0.0000 
     50 N          -0.2125  -13.9270   38.9095 N.am      1 SEC2        0.0000 
     51 N           1.1570  -13.8020   38.2310 N.am      5 SEL2        0.0000 
     52 N          -1.5820  -14.0520   39.5880 N.am      3 SEP2        0.0000 
     53 CA          0.2202   -8.9767   28.4633 C.3       2 GLC5        0.0000 
     54 CA          1.3050  -10.5040   28.7450 C.3       6 GLL5        0.0000 
     55 CA         -1.3660   -7.6820   28.5970 C.3       4 GLP5        0.0000 
     56 CA          3.7855   -9.6355   26.6750 C.3       2 GLC5        0.0000 
     57 CA          4.6950   -9.4960   25.1320 C.3       4 GLP5        0.0000 
     58 CA          5.2147   -8.5425   29.2383 C.3       2 GLC5        0.0000 
     59 CA          3.4440   -9.5110   28.5220 C.3       6 GLL5        0.0000 
     60 CA          6.9330   -7.6010   29.2610 C.3       4 GLP5        0.0000 
     61 CA         -2.6727   -9.7273   41.1277 C.3       2 GLC5        0.0000 
     62 CA         -0.4813  -11.0723   30.1615 C.3       2 GLC5        0.0000 
     63 CA          1.4560  -10.4350   30.0710 C.3       6 GLL5        0.0000 
     64 CA         -2.3430  -11.6750   30.9150 C.3       4 GLP5        0.0000 
     65 CA          3.5137   -7.7395   28.1628 C.3       2 GLC5        0.0000 
     66 CA          3.5490   -9.4570   29.9090 C.3       6 GLL5        0.0000 
     67 CA          3.8150   -5.8630   27.2620 C.3       4 GLP5        0.0000 
     68 CA         -2.6415   -9.6965   40.0745 C.3       2 GLC5        0.0000 
     69 CA         -0.5460   -9.4560   38.8590 C.3       6 GLL5        0.0000 
     70 CA         -0.3610   -7.0965   38.7640 C.3       2 GLC5        0.0000 
     71 CA         -1.4020   -8.6720   39.5410 C.3       6 GLL5        0.0000 
     72 CA         -0.1598   -9.1560   29.5758 C.3       2 GLC5        0.0000 
     73 CA          0.6370  -10.8250   31.0380 C.3       6 GLL5        0.0000 
     74 CA         -0.7157  -11.1865   31.2700 C.3       2 GLC5        0.0000 
     75 CA          1.4719  -12.5071   30.1445 C.3       2 GLC5        0.0000 
     76 CA          1.9350  -14.3670   30.0660 C.3       4 GLP5        0.0000 
     77 CA          1.0914   -8.7651   41.0840 C.3       2 GLC5        0.0000 
     78 CA          3.0040   -8.2100   41.0490 C.3       4 GLP5        0.0000 
     79 CA          1.4330   -9.0360   40.1315 C.3       2 GLC5        0.0000 
     80 CA          0.2700  -10.2680   39.5690 C.3       6 GLL5        0.0000 
@<TRIPOS>BOND
@<TRIPOS>SUBSTRUCTURE
     1 SEC2        1 GROUP        1 X    SEC  0     ROOT SEC X 2
     2 GLC5        4 GROUP        1 X    GLC  0     **** GLC X 6
     3 SEP2        3 GROUP        1 Y    SEP  0     ROOT SEP Y 9
     4 GLP5        6 GROUP        1 Y    GLP  0     **** GLP Y 13
     5 SEL2        2 GROUP        1 Z    SEL  0     ROOT SEL Z 16
     6 GLL5        5 GROUP        1 Z    GLL  0     **** GLL Z 20
@<TRIPOS>SET

