#    Name: 3ivg_FG5_1_ligand
#    Modification time : Tue Mar 25 17:31:31 2014

@<TRIPOS>MOLECULE
3ivg_FG5_1_ligand
   46    49     1     0     0
SMALL
NO_CHARGES


@<TRIPOS>ATOM
      1 C           2.1690  -13.2940   38.7590 C.2       1 FG5305      0.0000 
      2 N           1.0270  -10.9390   38.7200 N.pl3     1 FG5305      0.0000 
      3 O           3.2920  -13.8500   38.9340 O.co2     1 FG5305      0.0000 
      4 CA          2.0520  -11.8850   39.3060 C.3       1 FG5305      0.0000 
      5 CAA        -2.9080   -6.8670   40.9480 C.3       1 FG5305      0.0000 
      6 OAC        -0.9840  -10.2620   33.7540 O.2       1 FG5305      0.0000 
      7 OAD         0.2400  -12.4860   33.7990 O.2       1 FG5305      0.0000 
      8 CAF         2.3080  -10.0390   27.9140 C.ar      1 FG5305      0.0000 
      9 CAG         3.4440   -9.5110   28.5220 C.ar      1 FG5305      0.0000 
     10 CAH        -0.6190   -9.5480   41.6640 C.ar      1 FG5305      0.0000 
     11 CAI         1.3050  -10.5040   28.7450 C.ar      1 FG5305      0.0000 
     12 CAJ         3.5490   -9.4570   29.9090 C.ar      1 FG5305      0.0000 
     13 CAK         0.2420  -10.3270   40.9140 C.ar      1 FG5305      0.0000 
     14 CAL        -1.4020   -8.6720   39.5410 C.ar      1 FG5305      0.0000 
     15 CAM        -0.2960   -9.6160   37.5530 C.2       1 FG5305      0.0000 
     16 CAN         0.6370  -10.8250   31.0380 C.2       1 FG5305      0.0000 
     17 CAO         1.3880  -11.1080   36.2430 C.3       1 FG5305      0.0000 
     18 NAQ         1.3760  -10.2290   35.0640 N.pl3     1 FG5305      0.0000 
     19 OAR        -2.3030   -7.9420   41.6670 O.3       1 FG5305      0.0000 
     20 OAS         2.3800  -10.0170   32.0480 O.3       1 FG5305      0.0000 
     21 CAU        -1.4540   -8.7030   40.9490 C.ar      1 FG5305      0.0000 
     22 CAV         0.6860  -10.5270   37.4960 C.2       1 FG5305      0.0000 
     23 CAW         1.1860  -10.5710   32.2120 C.2       1 FG5305      0.0000 
     24 CAX         1.4560  -10.4350   30.0710 C.ar      1 FG5305      0.0000 
     25 CAY        -0.5460   -9.4560   38.8590 C.ar      1 FG5305      0.0000 
     26 CAZ         2.5520   -9.9290   30.6510 C.ar      1 FG5305      0.0000 
     27 CBA         0.2700  -10.2680   39.5690 C.ar      1 FG5305      0.0000 
     28 SBC         0.3880  -10.9540   33.7370 S.o2      1 FG5305      0.0000 
     29 OXT         1.1570  -13.8020   38.2310 O.co2     1 FG5305      0.0000 
     30 H           3.0685  -11.3942   39.2363 H         1 FG5305      0.0000 
     31 H           1.8753  -11.9532   40.4210 H         1 FG5305      0.0000 
     32 H           2.2243  -10.0787   26.9086 H         1 FG5305      0.0000 
     33 H           4.2175   -9.1554   27.9370 H         1 FG5305      0.0000 
     34 H          -0.6401   -9.5900   42.6658 H         1 FG5305      0.0000 
     35 H           0.4463  -10.9013   28.3197 H         1 FG5305      0.0000 
     36 H           4.4006   -9.0508   30.3277 H         1 FG5305      0.0000 
     37 H           0.8886  -10.9805   41.4234 H         1 FG5305      0.0000 
     38 H          -2.0472   -8.0230   39.0455 H         1 FG5305      0.0000 
     39 H          -0.7208   -9.1801   36.8260 H         1 FG5305      0.0000 
     40 H          -0.2436  -11.2395   30.8992 H         1 FG5305      0.0000 
     41 H           2.4314  -11.3557   36.5322 H         1 FG5305      0.0000 
     42 H           0.9001  -12.0781   36.0093 H         1 FG5305      0.0000 
     43 H           1.7342   -9.4462   34.8641 H         1 FG5305      0.0000 
     44 H          -2.2259   -6.2296   40.5896 H         1 FG5305      0.0000 
     45 H          -3.4408   -7.1953   40.1680 H         1 FG5305      0.0000 
     46 H          -3.5293   -6.3373   41.5253 H         1 FG5305      0.0000 
@<TRIPOS>BOND
     1    3    1 ar   
     2    4    1 1    
     3   29    1 ar   
     4    4    2 1    
     5   22    2 1    
     6   27    2 1    
     7   30    4 1    
     8   31    4 1    
     9   19    5 1    
    10   44    5 1    
    11   45    5 1    
    12   46    5 1    
    13   28    6 2    
    14   28    7 2    
    15    9    8 ar   
    16   11    8 ar   
    17   32    8 1    
    18   12    9 ar   
    19   33    9 1    
    20   13   10 ar   
    21   21   10 ar   
    22   34   10 1    
    23   24   11 ar   
    24   35   11 1    
    25   26   12 ar   
    26   36   12 1    
    27   27   13 ar   
    28   37   13 1    
    29   21   14 ar   
    30   25   14 ar   
    31   38   14 1    
    32   22   15 2    
    33   25   15 1    
    34   39   15 1    
    35   23   16 2    
    36   24   16 1    
    37   40   16 1    
    38   18   17 1    
    39   22   17 1    
    40   41   17 1    
    41   42   17 1    
    42   28   18 1    
    43   43   18 1    
    44   21   19 1    
    45   23   20 1    
    46   26   20 1    
    47   28   23 1    
    48   26   24 ar   
    49   27   25 ar   
@<TRIPOS>SUBSTRUCTURE
     1 FG5305      1 GROUP   
@<TRIPOS>SET

