#    Name: 3ruk_AER_2_INTS_M
#    Modification time : Tue Mar 25 11:55:59 2014

@<TRIPOS>MOLECULE
3ruk_AER_2_INTS_M
   67     0     6     0     0
SMALL
NO_CHARGES


@<TRIPOS>ATOM
      1 CA         27.7520   31.1585   52.8065 C.3       2 GLC5        0.0000 
      2 CA         27.2280   31.4370   54.8720 C.3       6 GLL5        0.0000 
      3 CA         28.2760   30.8800   50.7410 C.3       4 GLP5        0.0000 
      4 CA         26.6185   28.9575   56.7415 C.3       2 GLC5        0.0000 
      5 CA         27.5630   30.0200   55.3190 C.3       6 GLL5        0.0000 
      6 CA         25.6740   27.8950   58.1640 C.3       4 GLP5        0.0000 
      7 CA         28.4400   28.8180   57.6750 C.3       2 GLC5        0.0000 
      8 CA         28.9420   30.0450   55.9350 C.3       6 GLL5        0.0000 
      9 CA         27.9380   27.5910   59.4150 C.3       4 GLP5        0.0000 
     10 O          29.8780   28.2570   55.2790 O.2       1 ALC1        0.0000 
     11 O          29.3380   28.7240   56.2740 O.2       5 ALL1        0.0000 
     12 O          30.4180   27.7900   54.2840 O.2       3 ALP1        0.0000 
     13 CA         30.5975   35.5415   57.5565 C.3       2 GLC5        0.0000 
     14 CA         29.0070   34.6130   57.1010 C.3       6 GLL5        0.0000 
     15 CA         32.1880   36.4700   58.0120 C.3       4 GLP5        0.0000 
     16 CA         28.4790   36.0895   53.1530 C.3       2 GLC5        0.0000 
     17 CA         26.3910   35.6890   53.7790 C.3       6 GLL5        0.0000 
     18 CA         30.5670   36.4900   52.5270 C.3       4 GLP5        0.0000 
     19 CA         25.0740   35.6795   52.3075 C.3       2 GLC5        0.0000 
     20 CA         23.7570   35.6700   50.8360 C.3       4 GLP5        0.0000 
     21 CA         30.0390   37.6420   57.6335 C.3       2 GLC5        0.0000 
     22 CA         28.1560   37.5160   56.5120 C.3       6 GLL5        0.0000 
     23 CA         31.9220   37.7680   58.7550 C.3       4 GLP5        0.0000 
     24 CA         25.8735   39.8850   56.1315 C.3       2 GLC5        0.0000 
     25 CA         27.7360   38.7150   55.6840 C.3       6 GLL5        0.0000 
     26 CA         24.0110   41.0550   56.5790 C.3       4 GLP5        0.0000 
     27 CA         24.7020   36.9540   57.4555 C.3       2 GLC5        0.0000 
     28 CA         25.2820   36.8310   55.7940 C.3       6 GLL5        0.0000 
     29 CA         24.1220   37.0770   59.1170 C.3       4 GLP5        0.0000 
     30 CA         24.6465   38.9430   56.1865 C.3       2 GLC5        0.0000 
     31 CA         23.5690   36.1860   55.8845 C.3       2 GLC5        0.0000 
     32 CA         21.8560   35.5410   55.9750 C.3       4 GLP5        0.0000 
     33 CA         25.7300   30.8565   57.7670 C.3       2 GLC5        0.0000 
     34 CA         25.9600   32.4070   56.8170 C.3       6 GLL5        0.0000 
     35 CA         25.5000   29.3060   58.7170 C.3       4 GLP5        0.0000 
     36 CA         24.9760   31.2475   55.1665 C.3       2 GLC5        0.0000 
     37 CA         23.9920   30.0880   53.5160 C.3       4 GLP5        0.0000 
     38 CA         24.3615   32.5040   57.7130 C.3       2 GLC5        0.0000 
     39 CA         22.7630   32.6010   58.6090 C.3       4 GLP5        0.0000 
     40 CA         22.9915   40.3280   51.2030 C.3       2 GLC5        0.0000 
     41 CA         24.9610   39.4950   51.5930 C.3       6 GLL5        0.0000 
     42 CA         21.0220   41.1610   50.8130 C.3       4 GLP5        0.0000 
     43 CA         26.2213   30.2338   53.7867 C.3       2 GLC5        0.0000 
     44 CA         25.0470   29.7390   52.4780 C.3       4 GLP5        0.0000 
     45 CA         28.0978   28.2433   54.9205 C.3       2 GLC5        0.0000 
     46 CA         27.9430   26.4540   54.2140 C.3       4 GLP5        0.0000 
     47 CA         30.1292   31.8718   55.5078 C.3       2 GLC5        0.0000 
     48 CA         31.3390   33.3010   54.4310 C.3       4 GLP5        0.0000 
     49 CA         27.0712   30.4195   57.9117 C.3       2 GLC5        0.0000 
     50 CA         28.3880   32.2260   56.9790 C.3       6 GLL5        0.0000 
     51 CA         30.0030   33.0113   55.8828 C.3       2 GLC5        0.0000 
     52 CA         29.8508   34.0378   55.5812 C.3       2 GLC5        0.0000 
     53 CA         29.3517   33.2328   55.0387 C.3       2 GLC5        0.0000 
     54 CA         27.4740   33.8480   55.3100 C.3       6 GLL5        0.0000 
     55 CA         27.6515   39.2203   57.3670 C.3       2 GLC5        0.0000 
     56 CA         27.3570   40.3250   58.6360 C.3       4 GLP5        0.0000 
     57 CA         28.8283   38.5855   53.0750 C.3       2 GLC5        0.0000 
     58 CA         27.4330   39.7520   52.7220 C.3       6 GLL5        0.0000 
     59 CA         30.6810   37.8530   53.1250 C.3       4 GLP5        0.0000 
     60 CA         24.6578   39.2433   49.5250 C.3       2 GLC5        0.0000 
     61 CA         25.9260   40.3380   51.0630 C.3       6 GLL5        0.0000 
     62 CA         23.8720   38.5700   47.7220 C.3       4 GLP5        0.0000 
     63 CA         24.4310   37.3995   51.5023 C.3       2 GLC5        0.0000 
     64 CA         29.1618   37.7570   54.3705 C.3       2 GLC5        0.0000 
     65 CA         26.5614   38.5273   50.8131 C.3       2 GLC5        0.0000 
     66 CA         25.2490   38.7630   52.7440 C.3       6 GLL5        0.0000 
     67 CA         27.3450   37.5760   49.5200 C.3       4 GLP5        0.0000 
@<TRIPOS>BOND
@<TRIPOS>SUBSTRUCTURE
     1 ALC1       10 GROUP        1 X    ALC  0     ROOT ALC X 1
     2 GLC5        1 GROUP        1 X    GLC  0     **** GLC X 6
     3 ALP1       12 GROUP        1 Y    ALP  0     ROOT ALP Y 8
     4 GLP5        3 GROUP        1 Y    GLP  0     **** GLP Y 13
     5 ALL1       11 GROUP        1 Z    ALL  0     ROOT ALL Z 15
     6 GLL5        2 GROUP        1 Z    GLL  0     **** GLL Z 20
@<TRIPOS>SET

