#    Name: 3ruk_AER_2_ligand
#    Modification time : Tue Mar 25 11:55:59 2014

@<TRIPOS>MOLECULE
3ruk_AER_2_ligand
   57    61     1     0     0
SMALL
NO_CHARGES


@<TRIPOS>ATOM
      1 C1         27.2280   31.4370   54.8720 C.3       1 AER601      0.0000 
      2 C2         27.5630   30.0200   55.3190 C.3       1 AER601      0.0000 
      3 C3         28.9420   30.0450   55.9350 C.3       1 AER601      0.0000 
      4 O3         29.3380   28.7240   56.2740 O.3       1 AER601      0.0000 
      5 C4         28.8970   30.8400   57.2340 C.3       1 AER601      0.0000 
      6 C5         28.3880   32.2260   56.9790 C.2       1 AER601      0.0000 
      7 C6         28.9460   33.2170   57.6900 C.2       1 AER601      0.0000 
      8 C7         29.0070   34.6130   57.1010 C.3       1 AER601      0.0000 
      9 C8         27.7180   34.9360   56.3620 C.3       1 AER601      0.0000 
     10 C9         27.4740   33.8480   55.3100 C.3       1 AER601      0.0000 
     11 C10        27.2550   32.4810   55.9830 C.3       1 AER601      0.0000 
     12 C11        26.4140   34.2230   54.2430 C.3       1 AER601      0.0000 
     13 C12        26.3910   35.6890   53.7790 C.3       1 AER601      0.0000 
     14 C13        26.5330   36.6930   54.9240 C.3       1 AER601      0.0000 
     15 C14        27.7840   36.3020   55.6850 C.3       1 AER601      0.0000 
     16 C15        28.1560   37.5160   56.5120 C.3       1 AER601      0.0000 
     17 C16        27.7360   38.7150   55.6840 C.2       1 AER601      0.0000 
     18 C17        26.8940   38.1110   54.5830 C.2       1 AER601      0.0000 
     19 C18        25.2820   36.8310   55.7940 C.3       1 AER601      0.0000 
     20 C19        25.9600   32.4070   56.8170 C.3       1 AER601      0.0000 
     21 C20        26.5180   38.8840   53.3280 C.ar      1 AER601      0.0000 
     22 C21        27.4330   39.7520   52.7220 C.ar      1 AER601      0.0000 
     23 N22        27.1290   40.4600   51.6170 N.ar      1 AER601      0.0000 
     24 C23        25.9260   40.3380   51.0630 C.ar      1 AER601      0.0000 
     25 C24        24.9610   39.4950   51.5930 C.ar      1 AER601      0.0000 
     26 C25        25.2490   38.7630   52.7440 C.ar      1 AER601      0.0000 
     27 H          26.2240   31.4376   54.4060 H         1 AER601      0.0000 
     28 H          27.9392   31.7402   54.0800 H         1 AER601      0.0000 
     29 H          27.5552   29.3635   54.4634 H         1 AER601      0.0000 
     30 H          26.8402   29.6951   56.0505 H         1 AER601      0.0000 
     31 H          29.6249   30.5127   55.2729 H         1 AER601      0.0000 
     32 H          29.9012   30.8843   57.6568 H         1 AER601      0.0000 
     33 H          28.2430   30.3275   57.9401 H         1 AER601      0.0000 
     34 H          29.3444   33.1143   58.6171 H         1 AER601      0.0000 
     35 H          29.8451   34.6781   56.4080 H         1 AER601      0.0000 
     36 H          29.1547   35.3380   57.9006 H         1 AER601      0.0000 
     37 H          26.8990   34.9220   57.0574 H         1 AER601      0.0000 
     38 H          28.4596   33.7495   54.7474 H         1 AER601      0.0000 
     39 H          25.4110   33.9596   54.6418 H         1 AER601      0.0000 
     40 H          26.5672   33.5710   53.3565 H         1 AER601      0.0000 
     41 H          25.4462   35.8778   53.2504 H         1 AER601      0.0000 
     42 H          27.2077   35.8453   53.0604 H         1 AER601      0.0000 
     43 H          28.5900   36.2370   54.8756 H         1 AER601      0.0000 
     44 H          29.2137   37.5375   56.6701 H         1 AER601      0.0000 
     45 H          27.6157   37.5060   57.4351 H         1 AER601      0.0000 
     46 H          27.9338   39.5500   55.8138 H         1 AER601      0.0000 
     47 H          28.3832   39.8391   53.1603 H         1 AER601      0.0000 
     48 H          25.6764   40.8845   50.2003 H         1 AER601      0.0000 
     49 H          24.0438   39.4085   51.1454 H         1 AER601      0.0000 
     50 H          24.5498   38.1479   53.1577 H         1 AER601      0.0000 
     51 H          25.0317   35.9639   56.2248 H         1 AER601      0.0000 
     52 H          25.4123   37.4965   56.5289 H         1 AER601      0.0000 
     53 H          24.4910   37.1330   55.2619 H         1 AER601      0.0000 
     54 H          25.8444   31.5105   57.2447 H         1 AER601      0.0000 
     55 H          25.9521   33.0854   57.5516 H         1 AER601      0.0000 
     56 H          25.1479   32.5716   56.2572 H         1 AER601      0.0000 
     57 H          30.1502   28.5467   55.7182 H         1 AER601      0.0000 
@<TRIPOS>BOND
     1    2    1 1    
     2   11    1 1    
     3   27    1 1    
     4   28    1 1    
     5    3    2 1    
     6   29    2 1    
     7   30    2 1    
     8    4    3 1    
     9    5    3 1    
    10   31    3 1    
    11   57    4 1    
    12    6    5 1    
    13   32    5 1    
    14   33    5 1    
    15    7    6 2    
    16   11    6 1    
    17    8    7 1    
    18   34    7 1    
    19    9    8 1    
    20   35    8 1    
    21   36    8 1    
    22   10    9 1    
    23   15    9 1    
    24   37    9 1    
    25   11   10 1    
    26   12   10 1    
    27   38   10 1    
    28   20   11 1    
    29   13   12 1    
    30   39   12 1    
    31   40   12 1    
    32   14   13 1    
    33   41   13 1    
    34   42   13 1    
    35   15   14 1    
    36   18   14 1    
    37   19   14 1    
    38   16   15 1    
    39   43   15 1    
    40   17   16 1    
    41   44   16 1    
    42   45   16 1    
    43   18   17 2    
    44   46   17 1    
    45   21   18 1    
    46   51   19 1    
    47   52   19 1    
    48   53   19 1    
    49   54   20 1    
    50   55   20 1    
    51   56   20 1    
    52   22   21 ar   
    53   26   21 ar   
    54   23   22 ar   
    55   47   22 1    
    56   24   23 ar   
    57   25   24 ar   
    58   48   24 1    
    59   26   25 ar   
    60   49   25 1    
    61   50   26 1    
@<TRIPOS>SUBSTRUCTURE
     1 AER601      1 GROUP   
@<TRIPOS>SET

