#    Name: 4bix_ADP_1_INTS_M
#    Modification time : Tue Mar 25 07:47:32 2014

@<TRIPOS>MOLECULE
4bix_ADP_1_INTS_M
   39     0     9     0     0
SMALL
NO_CHARGES


@<TRIPOS>ATOM
      1 N           8.1080  -32.0455   13.7490 N.am      2 SEC2        0.0000 
      2 N           7.8180  -30.6930   13.9850 N.am      8 SEL2        0.0000 
      3 N           8.3980  -33.3980   13.5130 N.am      5 SEP2        0.0000 
      4 N           6.9250  -28.4880   12.7370 N.am      2 SEC2        0.0000 
      5 N           6.3940  -28.6570   13.9770 N.am      8 SEL2        0.0000 
      6 N           7.4560  -28.3190   11.4970 N.am      5 SEP2        0.0000 
      7 CA          4.5605  -31.2690   12.5950 C.3       3 GLC5        0.0000 
      8 CA          3.9640  -30.3440   14.4720 C.3       9 GLL5        0.0000 
      9 CA          5.1570  -32.1940   10.7180 C.3       6 GLP5        0.0000 
     10 CA          1.7065  -35.2335   13.8265 C.3       3 GLC5        0.0000 
     11 CA          2.7810  -33.7110   14.9630 C.3       9 GLL5        0.0000 
     12 CA          0.6320  -36.7560   12.6900 C.3       6 GLP5        0.0000 
     13 CA          1.4175  -33.1440   13.4085 C.3       3 GLC5        0.0000 
     14 CA          0.0540  -32.5770   11.8540 C.3       6 GLP5        0.0000 
     15 CA          7.0450  -36.0405   14.2680 C.3       3 GLC5        0.0000 
     16 CA          4.9160  -36.5520   14.2270 C.3       9 GLL5        0.0000 
     17 CA          9.1740  -35.5290   14.3090 C.3       6 GLP5        0.0000 
     18 CA          5.4855  -38.6010   16.0360 C.3       3 GLC5        0.0000 
     19 CA          5.1250  -37.9420   14.3260 C.3       9 GLL5        0.0000 
     20 CA          5.8460  -39.2600   17.7460 C.3       6 GLP5        0.0000 
     21 O           6.4160  -39.9690   13.6735 O.2       1 ALC1        0.0000 
     22 O           6.2050  -38.5740   13.8530 O.2       7 ALL1        0.0000 
     23 O           6.6270  -41.3640   13.4940 O.2       4 ALP1        0.0000 
     24 CA          4.4590  -38.6570   16.5715 C.3       3 GLC5        0.0000 
     25 CA          3.0720  -38.0540   15.3970 C.3       9 GLL5        0.0000 
     26 CA          1.8365  -39.6090   14.7705 C.3       3 GLC5        0.0000 
     27 CA          0.6010  -41.1640   14.1440 C.3       6 GLP5        0.0000 
     28 CA          1.8520  -37.4050   14.0435 C.3       3 GLC5        0.0000 
     29 CA          3.5730  -37.9435   13.2625 C.3       3 GLC5        0.0000 
     30 CA          4.0740  -37.8330   11.1280 C.3       6 GLP5        0.0000 
     31 CA          2.1860  -36.4035   13.7210 C.3       3 GLC5        0.0000 
     32 CA          3.7400  -36.0510   14.7520 C.3       9 GLL5        0.0000 
     33 CA          1.8552  -30.1107   14.5660 C.3       3 GLC5        0.0000 
     34 CA          3.1110  -31.4030   15.1160 C.3       9 GLL5        0.0000 
     35 CA          0.1730  -29.3480   14.3380 C.3       6 GLP5        0.0000 
     36 CA          4.3115  -33.8747   17.5373 C.3       3 GLC5        0.0000 
     37 CA          3.6460  -32.0330   16.3950 C.3       9 GLL5        0.0000 
     38 CA          5.3710  -35.0650   18.6530 C.3       6 GLP5        0.0000 
     39 CA          4.2271  -37.2410   12.8211 C.3       3 GLC5        0.0000 
@<TRIPOS>BOND
@<TRIPOS>SUBSTRUCTURE
     1 ALC1       21 GROUP        1 X    ALC  0     ROOT ALC X 1
     2 SEC2        1 GROUP        1 X    SEC  0     **** SEC X 2
     3 GLC5        7 GROUP        1 X    GLC  0     **** GLC X 6
     4 ALP1       23 GROUP        1 Y    ALP  0     ROOT ALP Y 8
     5 SEP2        3 GROUP        1 Y    SEP  0     **** SEP Y 9
     6 GLP5        9 GROUP        1 Y    GLP  0     **** GLP Y 13
     7 ALL1       22 GROUP        1 Z    ALL  0     ROOT ALL Z 15
     8 SEL2        2 GROUP        1 Z    SEL  0     **** SEL Z 16
     9 GLL5        8 GROUP        1 Z    GLL  0     **** GLL Z 20
@<TRIPOS>SET

