#    Name: 4bix_ADP_1_ligand
#    Modification time : Tue Mar 25 07:47:32 2014

@<TRIPOS>MOLECULE
4bix_ADP_1_ligand
   39    41     1     0     0
SMALL
NO_CHARGES


@<TRIPOS>ATOM
      1 PB          6.3410  -28.9510   17.3700 P.3       1 ADP501      0.0000 
      2 O1B         5.5760  -29.8130   18.3700 O.co2     1 ADP501      0.0000 
      3 O2B         5.4480  -27.8230   16.8130 O.co2     1 ADP501      0.0000 
      4 O3B         7.5570  -28.3600   18.0220 O.co2     1 ADP501      0.0000 
      5 PA          6.5750  -29.9950   14.5750 P.3       1 ADP501      0.0000 
      6 O1A         7.8180  -30.6930   13.9850 O.co2     1 ADP501      0.0000 
      7 O2A         6.3940  -28.6570   13.9770 O.co2     1 ADP501      0.0000 
      8 O3A         6.8010  -29.8910   16.1570 O.3       1 ADP501      0.0000 
      9 O5'         5.2950  -30.8650   14.2880 O.3       1 ADP501      0.0000 
     10 C5'         3.9640  -30.3440   14.4720 C.3       1 ADP501      0.0000 
     11 C4'         3.1110  -31.4030   15.1160 C.3       1 ADP501      0.0000 
     12 O4'         2.9520  -32.5180   14.2180 O.3       1 ADP501      0.0000 
     13 C3'         3.6460  -32.0330   16.3950 C.3       1 ADP501      0.0000 
     14 O3'         3.4090  -31.2160   17.5350 O.3       1 ADP501      0.0000 
     15 C2'         2.8580  -33.3360   16.4480 C.3       1 ADP501      0.0000 
     16 O2'         1.5380  -33.1080   16.9200 O.3       1 ADP501      0.0000 
     17 C1'         2.7810  -33.7110   14.9630 C.3       1 ADP501      0.0000 
     18 N9          3.7860  -34.6920   14.5400 N.pl3     1 ADP501      0.0000 
     19 C8          4.9660  -34.4580   13.9000 C.2       1 ADP501      0.0000 
     20 N7          5.6960  -35.5260   13.6860 N.2       1 ADP501      0.0000 
     21 C5          4.9160  -36.5520   14.2270 C.ar      1 ADP501      0.0000 
     22 C6          5.1250  -37.9420   14.3260 C.ar      1 ADP501      0.0000 
     23 N6          6.2050  -38.5740   13.8530 N.pl3     1 ADP501      0.0000 
     24 N1          4.1580  -38.6770   14.9270 N.ar      1 ADP501      0.0000 
     25 C2          3.0720  -38.0540   15.3970 C.ar      1 ADP501      0.0000 
     26 N3          2.7740  -36.7530   15.3580 N.ar      1 ADP501      0.0000 
     27 C4          3.7400  -36.0510   14.7520 C.ar      1 ADP501      0.0000 
     28 H           3.5127  -30.0661   13.5157 H         1 ADP501      0.0000 
     29 H           3.9708  -29.4613   15.1171 H         1 ADP501      0.0000 
     30 H           2.1231  -30.9976   15.3362 H         1 ADP501      0.0000 
     31 H           4.6681  -32.2774   16.2347 H         1 ADP501      0.0000 
     32 H           3.3996  -34.0569   16.9501 H         1 ADP501      0.0000 
     33 H           1.7797  -34.1097   14.7843 H         1 ADP501      0.0000 
     34 H           5.2343  -33.5230   13.6222 H         1 ADP501      0.0000 
     35 H           6.2574  -39.5551   14.0391 H         1 ADP501      0.0000 
     36 H           6.8631  -38.0086   13.3558 H         1 ADP501      0.0000 
     37 H           2.3206  -38.7040   15.8829 H         1 ADP501      0.0000 
     38 H           4.2934  -30.7977   17.7419 H         1 ADP501      0.0000 
     39 H           1.1013  -34.0075   16.9115 H         1 ADP501      0.0000 
@<TRIPOS>BOND
     1    2    1 ar   
     2    3    1 ar   
     3    4    1 ar   
     4    8    1 1    
     5    6    5 ar   
     6    7    5 ar   
     7    8    5 1    
     8    9    5 1    
     9   10    9 1    
    10   11   10 1    
    11   28   10 1    
    12   29   10 1    
    13   12   11 1    
    14   13   11 1    
    15   30   11 1    
    16   17   12 1    
    17   14   13 1    
    18   15   13 1    
    19   31   13 1    
    20   38   14 1    
    21   16   15 1    
    22   17   15 1    
    23   32   15 1    
    24   39   16 1    
    25   18   17 1    
    26   33   17 1    
    27   19   18 1    
    28   27   18 1    
    29   20   19 2    
    30   34   19 1    
    31   21   20 1    
    32   22   21 ar   
    33   27   21 ar   
    34   23   22 1    
    35   24   22 ar   
    36   35   23 1    
    37   36   23 1    
    38   25   24 ar   
    39   26   25 ar   
    40   37   25 1    
    41   27   26 ar   
@<TRIPOS>SUBSTRUCTURE
     1 ADP501      1 GROUP   
@<TRIPOS>SET

