#    Name: 3rku_NAP_3_INTS_M
#    Modification time : Tue Mar 25 11:37:43 2014

@<TRIPOS>MOLECULE
3rku_NAP_3_INTS_M
  120     0    12     0     0
SMALL
NO_CHARGES


@<TRIPOS>ATOM
      1 N           6.1450   27.9160   43.0605 N.am      2 SEC2        0.0000 
      2 N           5.9010   29.3430   43.3330 N.am     10 SEL2        0.0000 
      3 N           6.3890   26.4890   42.7880 N.am      6 SEP2        0.0000 
      4 CA          3.2040   35.3655   43.7150 C.3       4 GLC5        0.0000 
      5 CA          3.4120   33.3400   44.6320 C.3      12 GLL5        0.0000 
      6 CA          2.9960   37.3910   42.7980 C.3       8 GLP5        0.0000 
      7 CA          4.0515   30.9345   46.5910 C.3       4 GLC5        0.0000 
      8 CA          2.8190   32.4650   45.7060 C.3      12 GLL5        0.0000 
      9 CA          5.2840   29.4040   47.4760 C.3       8 GLP5        0.0000 
     10 O           2.9485   32.4510   48.1405 O.2       1 ALC1        0.0000 
     11 O           3.5080   32.7560   46.8930 O.2       9 ALL1        0.0000 
     12 O           2.3890   32.1460   49.3880 O.2       5 ALP1        0.0000 
     13 N           1.3710   31.1520   47.4720 N.am      2 SEC2        0.0000 
     14 N           1.0410   32.8370   47.2070 N.am     10 SEL2        0.0000 
     15 N           1.7010   29.4670   47.7370 N.am      6 SEP2        0.0000 
     16 CA          1.6510   36.1445   44.5150 C.3       4 GLC5        0.0000 
     17 CA          1.4400   34.3690   45.3060 C.3      12 GLL5        0.0000 
     18 CA          1.8620   37.9200   43.7240 C.3       8 GLP5        0.0000 
     19 CA         -3.9915   37.8165   46.2850 C.3       4 GLC5        0.0000 
     20 CA         -2.8010   36.8690   44.7900 C.3      12 GLL5        0.0000 
     21 CA         -5.1820   38.7640   47.7800 C.3       8 GLP5        0.0000 
     22 CA         -2.4470   38.6695   44.2995 C.3       4 GLC5        0.0000 
     23 CA         -2.0930   40.4700   43.8090 C.3       8 GLP5        0.0000 
     24 O          -5.0730   37.5620   44.7130 O.2       1 ALC1        0.0000 
     25 O          -3.9520   36.9990   44.1220 O.2       9 ALL1        0.0000 
     26 O          -6.1940   38.1250   45.3040 O.2       5 ALP1        0.0000 
     27 O          -4.5230   36.2400   43.1260 O.2       1 ALC1        0.0000 
     28 O          -5.0940   35.4810   42.1300 O.2       5 ALP1        0.0000 
     29 N          -3.2950   38.9430   45.9970 N.am      2 SEC2        0.0000 
     30 N          -2.5610   37.7340   45.8340 N.am     10 SEL2        0.0000 
     31 N          -4.0290   40.1520   46.1600 N.am      6 SEP2        0.0000 
     32 CA         -0.5115   37.0560   48.2255 C.3       4 GLC5        0.0000 
     33 CA         -1.4110   37.6540   46.5650 C.3      12 GLL5        0.0000 
     34 CA          0.3880   36.4580   49.8860 C.3       8 GLP5        0.0000 
     35 CA         -2.7870   36.4285   47.4390 C.3       4 GLC5        0.0000 
     36 CA         -4.1630   35.2030   48.3130 C.3       8 GLP5        0.0000 
     37 CA         -3.2965   38.2090   47.1725 C.3       4 GLC5        0.0000 
     38 CA         -1.3580   39.4190   46.2940 C.3       4 GLC5        0.0000 
     39 CA         -1.3050   41.1840   46.0230 C.3       8 GLP5        0.0000 
     40 CA          0.2255   37.7870   45.1445 C.3       4 GLC5        0.0000 
     41 N           8.6410   32.0125   43.2700 N.am      2 SEC2        0.0000 
     42 N           7.6210   31.8970   42.2780 N.am     10 SEL2        0.0000 
     43 N           9.6610   32.1280   44.2620 N.am      6 SEP2        0.0000 
     44 N           7.5875   29.3525   40.5175 N.am      2 SEC2        0.0000 
     45 N           7.4990   30.5620   40.1310 N.am     10 SEL2        0.0000 
     46 N           7.6760   28.1430   40.9040 N.am      6 SEP2        0.0000 
     47 CA          7.4720   36.9060   39.0190 C.3       4 GLC5        0.0000 
     48 CA          6.7020   35.1650   39.6100 C.3      12 GLL5        0.0000 
     49 CA          8.2420   38.6470   38.4280 C.3       8 GLP5        0.0000 
     50 N           4.8670   36.9250   37.0100 N.am      2 SEC2        0.0000 
     51 N           5.0600   36.3720   38.4260 N.am     10 SEL2        0.0000 
     52 N           4.6740   37.4780   35.5940 N.am      6 SEP2        0.0000 
     53 CA          4.9080   32.6090   36.9130 C.3       4 GLC5        0.0000 
     54 CA          5.6750   34.2700   37.6060 C.3      12 GLL5        0.0000 
     55 CA          4.1410   30.9480   36.2200 C.3       8 GLP5        0.0000 
     56 N           5.1970   34.1420   35.2270 N.am      2 SEC2        0.0000 
     57 N           4.8720   34.6820   36.5100 N.am     10 SEL2        0.0000 
     58 N           5.5220   33.6020   33.9440 N.am      6 SEP2        0.0000 
     59 N           4.7730   36.0800   36.0520 N.am      2 SEC2        0.0000 
     60 CA          7.6855   36.6540   37.9015 C.3       4 GLC5        0.0000 
     61 CA          7.1290   34.6610   37.3750 C.3      12 GLL5        0.0000 
     62 CA          9.2065   32.8160   38.5595 C.3       4 GLC5        0.0000 
     63 CA          7.8190   32.3280   36.9030 C.3      12 GLL5        0.0000 
     64 CA         10.5940   33.3040   40.2160 C.3       8 GLP5        0.0000 
     65 N          10.7755   28.5270   36.0050 N.am      2 SEC2        0.0000 
     66 N           9.4660   29.1120   35.8780 N.am     10 SEL2        0.0000 
     67 N          12.0850   27.9420   36.1320 N.am      6 SEP2        0.0000 
     68 O           9.5065   28.4515   38.0545 O.2       1 ALC1        0.0000 
     69 O           8.7820   29.9080   38.0500 O.2       9 ALL1        0.0000 
     70 O          10.2310   26.9950   38.0590 O.2       5 ALP1        0.0000 
     71 CA         11.1215   32.7185   35.2220 C.3       4 GLC5        0.0000 
     72 CA          9.3040   31.8530   35.0490 C.3      12 GLL5        0.0000 
     73 CA         12.9390   33.5840   35.3950 C.3       8 GLP5        0.0000 
     74 NZ         -2.0845   31.6770   45.9550 N.4       3 LYC4        0.0000 
     75 NZ         -1.0260   31.3420   46.9010 N.4      11 LYL4        0.0000 
     76 NZ         -4.0290   32.9200   45.3880 N.4       7 LYP4        0.0000 
     77 NZ         -0.0560   30.0400   47.7130 N.4       3 LYC4        0.0000 
     78 NZ          0.9140   28.7380   48.5250 N.4       7 LYP4        0.0000 
     79 N          -2.0845   31.6770   45.9550 N.am      2 SEC2        0.0000 
     80 N          -1.0260   31.3420   46.9010 N.am     10 SEL2        0.0000 
     81 N          -3.1430   32.0120   45.0090 N.am      6 SEP2        0.0000 
     82 NZ         -2.5540   33.6720   47.1195 N.4       3 LYC4        0.0000 
     83 NZ         -1.3200   33.6920   47.7670 N.4      11 LYL4        0.0000 
     84 N          -1.4870   34.3835   48.8190 N.am      2 SEC2        0.0000 
     85 N          -1.3200   33.6920   47.7670 N.am     10 SEL2        0.0000 
     86 N          -1.6540   35.0750   49.8710 N.am      6 SEP2        0.0000 
     87 N          -2.5540   33.6720   47.1195 N.am      2 SEC2        0.0000 
     88 N          -3.7880   33.6520   46.4720 N.am      6 SEP2        0.0000 
     89 NZ         -0.0975   30.6795   49.2630 N.4       3 LYC4        0.0000 
     90 NZ         -0.2320   32.0220   49.2020 N.4      11 LYL4        0.0000 
     91 N           1.0785   32.0840   49.2950 N.am      2 SEC2        0.0000 
     92 N          -0.2320   32.0220   49.2020 N.am     10 SEL2        0.0000 
     93 N           2.3890   32.1460   49.3880 N.am      6 SEP2        0.0000 
     94 N          -1.0240   32.3555   50.3530 N.am      2 SEC2        0.0000 
     95 N          -1.8160   32.6890   51.5040 N.am      6 SEP2        0.0000 
     96 N          -0.0975   30.6795   49.2630 N.am      2 SEC2        0.0000 
     97 N           0.0370   29.3370   49.3240 N.am      6 SEP2        0.0000 
     98 CA         -3.5063   35.5208   45.8195 C.3       4 GLC5        0.0000 
     99 CA         -1.8400   35.8980   44.4860 C.3      12 GLL5        0.0000 
    100 CA         -4.6920   34.6580   47.0010 C.3       8 GLP5        0.0000 
    101 CA          0.3028   36.8912   44.2942 C.3       4 GLC5        0.0000 
    102 CA         -2.0238   36.7878   42.6065 C.3       4 GLC5        0.0000 
    103 CA         -1.7270   37.1920   40.5750 C.3       8 GLP5        0.0000 
    104 CA          8.6677   33.9925   40.2070 C.3       4 GLC5        0.0000 
    105 CA          6.7810   34.1970   40.7860 C.3      12 GLL5        0.0000 
    106 CA          3.7330   35.2485   38.8690 C.3       4 GLC5        0.0000 
    107 CA          5.3770   35.0740   38.8560 C.3      12 GLL5        0.0000 
    108 CA          1.9400   35.8250   39.5070 C.3       8 GLP5        0.0000 
    109 CA          5.5920   35.6007   35.9062 C.3       4 GLC5        0.0000 
    110 CA          4.7820   36.7360   34.3220 C.3       8 GLP5        0.0000 
    111 CA         10.7193   31.0135   36.4528 C.3       4 GLC5        0.0000 
    112 CA          8.5430   31.4170   36.1320 C.3      12 GLL5        0.0000 
    113 CA         12.5150   30.3920   37.3150 C.3       8 GLP5        0.0000 
    114 CA          8.5310   34.4565   33.5083 C.3       4 GLC5        0.0000 
    115 CA          9.3580   33.2020   34.7380 C.3      12 GLL5        0.0000 
    116 CA          8.0690   35.2710   31.8810 C.3       8 GLP5        0.0000 
    117 CA         10.3970   34.6535   35.0482 C.3       4 GLC5        0.0000 
    118 CA         11.8010   35.6650   34.9610 C.3       8 GLP5        0.0000 
    119 CA          3.0540   34.7584   45.9491 C.3       4 GLC5        0.0000 
    120 CA          3.8420   36.2410   46.5270 C.3       8 GLP5        0.0000 
@<TRIPOS>BOND
@<TRIPOS>SUBSTRUCTURE
     1 ALC1       10 GROUP        1 X    ALC  0     ROOT ALC X 1
     2 SEC2        1 GROUP        1 X    SEC  0     **** SEC X 2
     3 LYC4       74 GROUP        1 X    LYC  0     **** LYC X 4
     4 GLC5        4 GROUP        1 X    GLC  0     **** GLC X 6
     5 ALP1       12 GROUP        1 Y    ALP  0     ROOT ALP Y 8
     6 SEP2        3 GROUP        1 Y    SEP  0     **** SEP Y 9
     7 LYP4       76 GROUP        1 Y    LYP  0     **** LYP Y 11
     8 GLP5        6 GROUP        1 Y    GLP  0     **** GLP Y 13
     9 ALL1       11 GROUP        1 Z    ALL  0     ROOT ALL Z 15
    10 SEL2        2 GROUP        1 Z    SEL  0     **** SEL Z 16
    11 LYL4       75 GROUP        1 Z    LYL  0     **** LYL Z 18
    12 GLL5        5 GROUP        1 Z    GLL  0     **** GLL Z 20
@<TRIPOS>SET

