#    Name: 3rku_NAP_3_ligand
#    Modification time : Tue Mar 25 11:37:43 2014

@<TRIPOS>MOLECULE
3rku_NAP_3_ligand
   73    77     1     0     0
SMALL
NO_CHARGES


@<TRIPOS>ATOM
      1 PA          4.8760   30.2430   42.7330 P.3       1 NAP268      0.0000 
      2 O1A         3.6390   29.4890   42.3530 O.co2     1 NAP268      0.0000 
      3 O2A         5.9010   29.3430   43.3330 O.co2     1 NAP268      0.0000 
      4 O5B         4.4970   31.4330   43.7440 O.3       1 NAP268      0.0000 
      5 C5B         3.6850   32.5230   43.3780 C.3       1 NAP268      0.0000 
      6 C4B         3.4120   33.3400   44.6320 C.3       1 NAP268      0.0000 
      7 O4B         2.4820   34.3750   44.3700 O.3       1 NAP268      0.0000 
      8 C3B         2.8190   32.4650   45.7060 C.3       1 NAP268      0.0000 
      9 O3B         3.5080   32.7560   46.8930 O.3       1 NAP268      0.0000 
     10 C2B         1.3930   32.9290   45.8410 C.3       1 NAP268      0.0000 
     11 O2B         1.0410   32.8370   47.2070 O.3       1 NAP268      0.0000 
     12 C1B         1.4400   34.3690   45.3060 C.3       1 NAP268      0.0000 
     13 N9A         0.1210   34.7980   44.7520 N.pl3     1 NAP268      0.0000 
     14 C8A        -0.5730   34.2470   43.7040 C.2       1 NAP268      0.0000 
     15 N7A        -1.7560   34.9200   43.5560 N.2       1 NAP268      0.0000 
     16 C5A        -1.8400   35.8980   44.4860 C.ar      1 NAP268      0.0000 
     17 C6A        -2.8010   36.8690   44.7900 C.ar      1 NAP268      0.0000 
     18 N6A        -3.9520   36.9990   44.1220 N.pl3     1 NAP268      0.0000 
     19 N1A        -2.5610   37.7340   45.8340 N.ar      1 NAP268      0.0000 
     20 C2A        -1.4110   37.6540   46.5650 C.ar      1 NAP268      0.0000 
     21 N3A        -0.4750   36.7080   46.2510 N.ar      1 NAP268      0.0000 
     22 C4A        -0.6730   35.8270   45.2430 C.ar      1 NAP268      0.0000 
     23 O3          5.4270   31.0060   41.4230 O.3       1 NAP268      0.0000 
     24 PN          6.8780   31.5390   41.0380 P.3       1 NAP268      0.0000 
     25 O1N         7.6210   31.8970   42.2780 O.co2     1 NAP268      0.0000 
     26 O2N         7.4990   30.5620   40.1310 O.co2     1 NAP268      0.0000 
     27 O5D         6.4690   32.9050   40.2930 O.3       1 NAP268      0.0000 
     28 C5D         6.7810   34.1970   40.7860 C.3       1 NAP268      0.0000 
     29 C4D         6.7020   35.1650   39.6100 C.3       1 NAP268      0.0000 
     30 O4D         7.7150   34.9040   38.6470 O.3       1 NAP268      0.0000 
     31 C3D         5.3770   35.0740   38.8560 C.3       1 NAP268      0.0000 
     32 O3D         5.0600   36.3720   38.4260 O.3       1 NAP268      0.0000 
     33 C2D         5.6750   34.2700   37.6060 C.3       1 NAP268      0.0000 
     34 O2D         4.8720   34.6820   36.5100 O.3       1 NAP268      0.0000 
     35 C1D         7.1290   34.6610   37.3750 C.3       1 NAP268      0.0000 
     36 N1N         7.8690   33.6540   36.5960 N.pl3     1 NAP268      0.0000 
     37 C2N         7.8190   32.3280   36.9030 C.ar      1 NAP268      0.0000 
     38 C3N         8.5430   31.4170   36.1320 C.ar      1 NAP268      0.0000 
     39 C7N         8.9340   30.1040   36.7360 C.2       1 NAP268      0.0000 
     40 O7N         9.4660   29.1120   35.8780 O.2       1 NAP268      0.0000 
     41 N7N         8.7820   29.9080   38.0500 N.am      1 NAP268      0.0000 
     42 C4N         9.3040   31.8530   35.0490 C.ar      1 NAP268      0.0000 
     43 C5N         9.3580   33.2020   34.7380 C.ar      1 NAP268      0.0000 
     44 C6N         8.6280   34.0820   35.5330 C.ar      1 NAP268      0.0000 
     45 P2B        -0.4320   32.4460   47.7620 P.3       1 NAP268      0.0000 
     46 O1X        -1.0260   31.3420   46.9010 O.co2     1 NAP268      0.0000 
     47 O2X        -1.3200   33.6920   47.7670 O.co2     1 NAP268      0.0000 
     48 O3X        -0.2320   32.0220   49.2020 O.co2     1 NAP268      0.0000 
     49 H           2.7232   32.2067   42.9706 H         1 NAP268      0.0000 
     50 H           4.1706   33.1782   42.6528 H         1 NAP268      0.0000 
     51 H           4.3458   33.7350   44.9970 H         1 NAP268      0.0000 
     52 H           2.8533   31.4722   45.4128 H         1 NAP268      0.0000 
     53 H           0.7944   32.3455   45.1950 H         1 NAP268      0.0000 
     54 H           1.6942   34.9973   46.1655 H         1 NAP268      0.0000 
     55 H          -0.2761   33.5107   43.1646 H         1 NAP268      0.0000 
     56 H          -4.5631   37.7258   44.4356 H         1 NAP268      0.0000 
     57 H          -4.0985   36.3577   43.3688 H         1 NAP268      0.0000 
     58 H          -1.2476   38.3045   47.3518 H         1 NAP268      0.0000 
     59 H           7.7881   34.2499   41.1950 H         1 NAP268      0.0000 
     60 H           6.0733   34.5315   41.5420 H         1 NAP268      0.0000 
     61 H           6.7918   36.1806   39.9841 H         1 NAP268      0.0000 
     62 H           4.6659   34.6118   39.4278 H         1 NAP268      0.0000 
     63 H           5.6383   33.2527   37.8373 H         1 NAP268      0.0000 
     64 H           7.1038   35.6070   36.8027 H         1 NAP268      0.0000 
     65 H           7.2570   31.9853   37.6933 H         1 NAP268      0.0000 
     66 H           8.4190   30.6805   38.5710 H         1 NAP268      0.0000 
     67 H           9.0449   29.0065   38.3937 H         1 NAP268      0.0000 
     68 H           9.8246   31.1700   34.4825 H         1 NAP268      0.0000 
     69 H           9.9098   33.5407   33.9581 H         1 NAP268      0.0000 
     70 H           8.6636   35.1034   35.3069 H         1 NAP268      0.0000 
     71 H           2.8917   32.4699   47.6267 H         1 NAP268      0.0000 
     72 H           5.9426   36.8183   38.2781 H         1 NAP268      0.0000 
     73 H           4.1383   34.0045   36.4578 H         1 NAP268      0.0000 
@<TRIPOS>BOND
     1    2    1 ar   
     2    3    1 ar   
     3    4    1 1    
     4   23    1 1    
     5    5    4 1    
     6    6    5 1    
     7   49    5 1    
     8   50    5 1    
     9    7    6 1    
    10    8    6 1    
    11   51    6 1    
    12   12    7 1    
    13    9    8 1    
    14   10    8 1    
    15   52    8 1    
    16   71    9 1    
    17   11   10 1    
    18   12   10 1    
    19   53   10 1    
    20   45   11 1    
    21   13   12 1    
    22   54   12 1    
    23   14   13 1    
    24   22   13 1    
    25   15   14 2    
    26   55   14 1    
    27   16   15 1    
    28   17   16 ar   
    29   22   16 ar   
    30   18   17 1    
    31   19   17 ar   
    32   56   18 1    
    33   57   18 1    
    34   20   19 ar   
    35   21   20 ar   
    36   58   20 1    
    37   22   21 ar   
    38   24   23 1    
    39   25   24 ar   
    40   26   24 ar   
    41   27   24 1    
    42   28   27 1    
    43   29   28 1    
    44   59   28 1    
    45   60   28 1    
    46   30   29 1    
    47   31   29 1    
    48   61   29 1    
    49   35   30 1    
    50   32   31 1    
    51   33   31 1    
    52   62   31 1    
    53   72   32 1    
    54   34   33 1    
    55   35   33 1    
    56   63   33 1    
    57   73   34 1    
    58   36   35 1    
    59   64   35 1    
    60   37   36 ar   
    61   44   36 ar   
    62   38   37 ar   
    63   65   37 1    
    64   39   38 1    
    65   42   38 ar   
    66   40   39 2    
    67   41   39 am   
    68   66   41 1    
    69   67   41 1    
    70   43   42 ar   
    71   68   42 1    
    72   44   43 ar   
    73   69   43 1    
    74   70   44 1    
    75   46   45 ar   
    76   47   45 ar   
    77   48   45 ar   
@<TRIPOS>SUBSTRUCTURE
     1 NAP268      1 GROUP   
@<TRIPOS>SET

