#    Name: 1iy1_ADP_1_INTS_M
#    Modification time : Tue Mar 25 08:16:45 2014

@<TRIPOS>MOLECULE
1iy1_ADP_1_INTS_M
   45     0     9     0     0
SMALL
NO_CHARGES


@<TRIPOS>ATOM
      1 NZ         34.0745   19.3725   54.9780 N.4       2 LYC4        0.0000 
      2 NZ         34.6730   19.7650   56.4460 N.4       8 LYL4        0.0000 
      3 NZ         33.4760   18.9800   53.5100 N.4       5 LYP4        0.0000 
      4 N          36.8755   17.1195   55.7890 N.am      1 SEC2        0.0000 
      5 N          36.4190   17.9890   56.8960 N.am      7 SEL2        0.0000 
      6 N          37.3320   16.2500   54.6820 N.am      4 SEP2        0.0000 
      7 NZ         34.8320   18.9970   54.0520 N.4       2 LYC4        0.0000 
      8 NZ         36.1880   19.0140   54.5940 N.4       8 LYL4        0.0000 
      9 N          37.3480   18.7440   53.9590 N.am      1 SEC2        0.0000 
     10 N          36.1880   19.0140   54.5940 N.am      7 SEL2        0.0000 
     11 N          38.5080   18.4740   53.3240 N.am      4 SEP2        0.0000 
     12 N          37.3875   20.0510   54.2795 N.am      1 SEC2        0.0000 
     13 N          38.5870   21.0880   53.9650 N.am      4 SEP2        0.0000 
     14 N          34.8320   18.9970   54.0520 N.am      1 SEC2        0.0000 
     15 N          33.4760   18.9800   53.5100 N.am      4 SEP2        0.0000 
     16 N          36.0255   22.1335   58.0130 N.am      1 SEC2        0.0000 
     17 N          36.8110   20.8570   58.8010 N.am      7 SEL2        0.0000 
     18 N          35.2400   23.4100   57.2250 N.am      4 SEP2        0.0000 
     19 N          35.5915   21.3445   59.1345 N.am      1 SEC2        0.0000 
     20 N          34.3720   21.8320   59.4680 N.am      4 SEP2        0.0000 
     21 N          38.0945   23.2845   57.8630 N.am      1 SEC2        0.0000 
     22 N          38.8130   21.8540   57.5630 N.am      7 SEL2        0.0000 
     23 N          37.3760   24.7150   58.1630 N.am      4 SEP2        0.0000 
     24 N          37.8655   20.6890   55.1905 N.am      1 SEC2        0.0000 
     25 N          37.1440   20.2900   56.4160 N.am      7 SEL2        0.0000 
     26 CA         39.3175   17.8110   56.1380 C.3       3 GLC5        0.0000 
     27 CA         39.8920   19.0370   57.4980 C.3       9 GLL5        0.0000 
     28 CA         38.7430   16.5850   54.7780 C.3       6 GLP5        0.0000 
     29 CA         44.3750   19.9255   56.4945 C.3       3 GLC5        0.0000 
     30 CA         43.1310   20.6110   57.5030 C.3       9 GLL5        0.0000 
     31 CA         45.6190   19.2400   55.4860 C.3       6 GLP5        0.0000 
     32 CA         45.4125   25.2590   52.9765 C.3       3 GLC5        0.0000 
     33 CA         44.2910   24.3300   54.4790 C.3       9 GLL5        0.0000 
     34 CA         46.5340   26.1880   51.4740 C.3       6 GLP5        0.0000 
     35 CA         45.6290   23.5750   53.1115 C.3       3 GLC5        0.0000 
     36 CA         46.9670   22.8200   51.7440 C.3       6 GLP5        0.0000 
     37 CA         43.6375   25.1890   56.6875 C.3       3 GLC5        0.0000 
     38 CA         45.3630   24.3240   56.5630 C.3       9 GLL5        0.0000 
     39 CA         41.9120   26.0540   56.8120 C.3       6 GLP5        0.0000 
     40 CA         47.1035   23.6860   56.2220 C.3       3 GLC5        0.0000 
     41 CA         48.8440   23.0480   55.8810 C.3       6 GLP5        0.0000 
     42 CA         44.6878   21.0595   55.4930 C.3       3 GLC5        0.0000 
     43 CA         43.6080   23.1140   54.8770 C.3       9 GLL5        0.0000 
     44 CA         42.9196   24.6185   56.1063 C.3       3 GLC5        0.0000 
     45 CA         43.9050   22.6440   56.1230 C.3       9 GLL5        0.0000 
@<TRIPOS>BOND
@<TRIPOS>SUBSTRUCTURE
     1 SEC2        4 GROUP        1 X    SEC  0     ROOT SEC X 2
     2 LYC4        1 GROUP        1 X    LYC  0     **** LYC X 4
     3 GLC5       26 GROUP        1 X    GLC  0     **** GLC X 6
     4 SEP2        6 GROUP        1 Y    SEP  0     ROOT SEP Y 9
     5 LYP4        3 GROUP        1 Y    LYP  0     **** LYP Y 11
     6 GLP5       28 GROUP        1 Y    GLP  0     **** GLP Y 13
     7 SEL2        5 GROUP        1 Z    SEL  0     ROOT SEL Z 16
     8 LYL4        2 GROUP        1 Z    LYL  0     **** LYL Z 18
     9 GLL5       27 GROUP        1 Z    GLL  0     **** GLL Z 20
@<TRIPOS>SET

