#    Name: 1iy1_ADP_1_ligand
#    Modification time : Tue Mar 25 08:16:45 2014

@<TRIPOS>MOLECULE
1iy1_ADP_1_ligand
   39    41     1     0     0
SMALL
NO_CHARGES


@<TRIPOS>ATOM
      1 PB         36.0500   19.1960   56.1280 P.3       1 ADP1        0.0000 
      2 O1B        34.6730   19.7650   56.4460 O.co2     1 ADP1        0.0000 
      3 O2B        36.4190   17.9890   56.8960 O.co2     1 ADP1        0.0000 
      4 O3B        36.1880   19.0140   54.5940 O.co2     1 ADP1        0.0000 
      5 PA         37.8990   20.7290   57.7980 P.3       1 ADP1        0.0000 
      6 O1A        36.8110   20.8570   58.8010 O.co2     1 ADP1        0.0000 
      7 O2A        38.8130   21.8540   57.5630 O.co2     1 ADP1        0.0000 
      8 O3A        37.1440   20.2900   56.4160 O.3       1 ADP1        0.0000 
      9 O5'        38.7140   19.4270   58.2360 O.3       1 ADP1        0.0000 
     10 C5'        39.8920   19.0370   57.4980 C.3       1 ADP1        0.0000 
     11 C4'        41.1700   19.3860   58.2660 C.3       1 ADP1        0.0000 
     12 O4'        42.2540   19.4950   57.2560 O.3       1 ADP1        0.0000 
     13 C3'        41.1980   20.7510   58.9960 C.3       1 ADP1        0.0000 
     14 O3'        40.9360   20.6010   60.4130 O.3       1 ADP1        0.0000 
     15 C2'        42.6380   21.3610   58.7540 C.3       1 ADP1        0.0000 
     16 O2'        43.5450   21.1450   59.8840 O.3       1 ADP1        0.0000 
     17 C1'        43.1310   20.6110   57.5030 C.3       1 ADP1        0.0000 
     18 N9         43.1500   21.5140   56.2570 N.pl3     1 ADP1        0.0000 
     19 C8         42.4510   21.3520   55.1370 C.2       1 ADP1        0.0000 
     20 N7         42.6770   22.2700   54.2740 N.2       1 ADP1        0.0000 
     21 C5         43.6080   23.1140   54.8770 C.ar      1 ADP1        0.0000 
     22 C6         44.2910   24.3300   54.4790 C.ar      1 ADP1        0.0000 
     23 N6         44.0980   24.9260   53.2590 N.pl3     1 ADP1        0.0000 
     24 N1         45.1650   24.8940   55.3680 N.ar      1 ADP1        0.0000 
     25 C2         45.3630   24.3240   56.5630 C.ar      1 ADP1        0.0000 
     26 N3         44.7740   23.2000   57.0170 N.ar      1 ADP1        0.0000 
     27 C4         43.9050   22.6440   56.1230 C.ar      1 ADP1        0.0000 
     28 H          39.9377   19.5434   56.5223 H         1 ADP1        0.0000 
     29 H          39.9016   17.9539   57.3047 H         1 ADP1        0.0000 
     30 H          41.4215   18.6132   58.9501 H         1 ADP1        0.0000 
     31 H          40.4998   21.4011   58.5136 H         1 ADP1        0.0000 
     32 H          42.5112   22.3803   58.4995 H         1 ADP1        0.0000 
     33 H          44.1363   20.2679   57.6885 H         1 ADP1        0.0000 
     34 H          41.8155   20.5769   55.0073 H         1 ADP1        0.0000 
     35 H          44.8862   25.4065   52.8744 H         1 ADP1        0.0000 
     36 H          43.1860   24.8278   52.8607 H         1 ADP1        0.0000 
     37 H          46.0654   24.8117   57.2339 H         1 ADP1        0.0000 
     38 H          41.8090   20.7966   60.8596 H         1 ADP1        0.0000 
     39 H          44.2463   21.8518   59.7916 H         1 ADP1        0.0000 
@<TRIPOS>BOND
     1    2    1 ar   
     2    3    1 ar   
     3    4    1 ar   
     4    8    1 1    
     5    6    5 ar   
     6    7    5 ar   
     7    8    5 1    
     8    9    5 1    
     9   10    9 1    
    10   11   10 1    
    11   28   10 1    
    12   29   10 1    
    13   12   11 1    
    14   13   11 1    
    15   30   11 1    
    16   17   12 1    
    17   14   13 1    
    18   15   13 1    
    19   31   13 1    
    20   38   14 1    
    21   16   15 1    
    22   17   15 1    
    23   32   15 1    
    24   39   16 1    
    25   18   17 1    
    26   33   17 1    
    27   19   18 1    
    28   27   18 1    
    29   20   19 2    
    30   34   19 1    
    31   21   20 1    
    32   22   21 ar   
    33   27   21 ar   
    34   23   22 1    
    35   24   22 ar   
    36   35   23 1    
    37   36   23 1    
    38   25   24 ar   
    39   26   25 ar   
    40   37   25 1    
    41   27   26 ar   
@<TRIPOS>SUBSTRUCTURE
     1 ADP1        1 GROUP   
@<TRIPOS>SET

