#    Name: 3h3s_H15_2_INTS_M
#    Modification time : Tue Mar 25 13:33:18 2014

@<TRIPOS>MOLECULE
3h3s_H15_2_INTS_M
   79     0     9     0     0
SMALL
NO_CHARGES


@<TRIPOS>ATOM
      1 N          -2.9765    1.0900   -3.3050 N.am      2 SEC2        0.0000 
      2 N          -4.2440    0.8230   -3.8520 N.am      8 SEL2        0.0000 
      3 N          -1.7090    1.3570   -2.7580 N.am      5 SEP2        0.0000 
      4 O          -5.9275    1.4710   -7.1400 O.2       1 ALC1        0.0000 
      5 O          -5.3060    0.6480   -5.8430 O.2       7 ALL1        0.0000 
      6 O          -6.5490    2.2940   -8.4370 O.2       4 ALP1        0.0000 
      7 CA         -6.3740   -0.0420   -3.4715 C.3       3 GLC5        0.0000 
      8 CA         -6.2500   -0.4410   -5.5790 C.3       9 GLL5        0.0000 
      9 CA         -6.4980    0.3570   -1.3640 C.3       6 GLP5        0.0000 
     10 CA         -9.2855    0.4205   -6.8400 C.3       3 GLC5        0.0000 
     11 CA         -7.5900   -0.1770   -6.2860 C.3       9 GLL5        0.0000 
     12 CA        -10.9810    1.0180   -7.3940 C.3       6 GLP5        0.0000 
     13 CA         -8.2550    1.4895   -5.4590 C.3       3 GLC5        0.0000 
     14 CA         -8.9200    3.1560   -4.6320 C.3       6 GLP5        0.0000 
     15 N          -6.7610   -1.2025   -8.7015 N.am      2 SEC2        0.0000 
     16 N          -7.3150   -0.1160   -7.7090 N.am      8 SEL2        0.0000 
     17 N          -6.2070   -2.2890   -9.6940 N.am      5 SEP2        0.0000 
     18 O          -6.9320    1.0890   -8.0730 O.2       1 ALC1        0.0000 
     19 O          -7.3150   -0.1160   -7.7090 O.2       7 ALL1        0.0000 
     20 CA         -6.6815   -3.3970   -6.3645 C.3       3 GLC5        0.0000 
     21 CA         -5.6880   -1.8270   -5.9640 C.3       9 GLL5        0.0000 
     22 CA         -7.6750   -4.9670   -6.7650 C.3       6 GLP5        0.0000 
     23 N          -5.4205   -2.7290   -3.2550 N.am      2 SEC2        0.0000 
     24 N          -4.2470   -2.2150   -3.9310 N.am      8 SEL2        0.0000 
     25 N          -6.5940   -3.2430   -2.5790 N.am      5 SEP2        0.0000 
     26 CA         -0.7550    2.5460   -5.2540 C.3       3 GLC5        0.0000 
     27 CA         -2.7520    2.4660   -6.1300 C.3       9 GLL5        0.0000 
     28 CA          1.2420    2.6260   -4.3780 C.3       6 GLP5        0.0000 
     29 CA         -0.0900    5.3515   -8.3825 C.3       3 GLC5        0.0000 
     30 CA         -1.2480    3.8800   -7.4640 C.3       9 GLL5        0.0000 
     31 CA          1.0680    6.8230   -9.3010 C.3       6 GLP5        0.0000 
     32 CA         -0.0670    3.9280   -5.7550 C.3       3 GLC5        0.0000 
     33 CA          1.1140    3.9760   -4.0460 C.3       6 GLP5        0.0000 
     34 CA          0.3660    2.6625   -6.2330 C.3       3 GLC5        0.0000 
     35 CA         -0.5100    2.6990   -8.0880 C.3       9 GLL5        0.0000 
     36 CA          4.8800    3.7235   -8.3995 C.3       3 GLC5        0.0000 
     37 CA          4.0340    1.8470   -9.2360 C.3       9 GLL5        0.0000 
     38 CA          5.7260    5.6000   -7.5630 C.3       6 GLP5        0.0000 
     39 CA          3.9900   -1.3400   -8.8925 C.3       3 GLC5        0.0000 
     40 CA          4.3800    0.5380   -9.9400 C.3       9 GLL5        0.0000 
     41 CA          3.6000   -3.2180   -7.8450 C.3       6 GLP5        0.0000 
     42 CA          5.7645   -1.1400  -10.3700 C.3       3 GLC5        0.0000 
     43 CA          7.1490   -2.8180  -10.8000 C.3       6 GLP5        0.0000 
     44 CA          3.2620   -2.1530   -9.5785 C.3       3 GLC5        0.0000 
     45 CA          2.9240   -1.0880  -11.3120 C.3       9 GLL5        0.0000 
     46 CA          4.6415   -2.1685  -11.6535 C.3       3 GLC5        0.0000 
     47 CA          6.3590   -3.2490  -11.9950 C.3       6 GLP5        0.0000 
     48 CA         -1.3395   -2.1230  -12.0055 C.3       3 GLC5        0.0000 
     49 CA          0.7470   -2.3450  -11.3970 C.3       9 GLL5        0.0000 
     50 CA         -3.4260   -1.9010  -12.6140 C.3       6 GLP5        0.0000 
     51 CA          1.2850   -4.1450  -11.4050 C.3       3 GLC5        0.0000 
     52 CA          1.8230   -5.9450  -11.4130 C.3       6 GLP5        0.0000 
     53 CA         -3.0348   -3.7516   -6.0523 C.3       3 GLC5        0.0000 
     54 CA         -3.0650   -1.7070   -6.1460 C.3       9 GLL5        0.0000 
     55 CA         -2.7540   -5.6430   -5.4850 C.3       6 GLP5        0.0000 
     56 CA         -0.5932   -3.3145   -7.3287 C.3       3 GLC5        0.0000 
     57 CA         -1.7060   -1.6660   -8.1360 C.3       9 GLL5        0.0000 
     58 CA         -0.0210   -5.2400   -6.8560 C.3       6 GLP5        0.0000 
     59 CA          0.9905   -1.7455   -6.1992 C.3       3 GLC5        0.0000 
     60 CA         -0.6250   -1.1120   -7.4670 C.3       9 GLL5        0.0000 
     61 CA          2.6670   -2.5120   -5.6160 C.3       6 GLP5        0.0000 
     62 CA         -1.1427   -2.0453   -4.2705 C.3       3 GLC5        0.0000 
     63 CA         -0.7470   -0.8460   -6.0980 C.3       9 GLL5        0.0000 
     64 CA         -0.6550   -2.9580   -2.5840 C.3       6 GLP5        0.0000 
     65 CA         -3.2460    4.1060   -4.5420 C.3       3 GLC5        0.0000 
     66 CA         -3.1180    5.6670   -3.3720 C.3       6 GLP5        0.0000 
     67 CA         -2.7627    5.4132   -6.3635 C.3       3 GLC5        0.0000 
     68 CA         -2.7050    3.5670   -7.1820 C.3       9 GLL5        0.0000 
     69 CA         -3.5490    7.1030   -5.4040 C.3       6 GLP5        0.0000 
     70 CA          1.1065    5.0040   -9.1850 C.3       3 GLC5        0.0000 
     71 CA          0.3990    3.1430   -9.2410 C.3       9 GLL5        0.0000 
     72 CA          3.2391    2.6559   -7.2305 C.3       3 GLC5        0.0000 
     73 CA          1.8910    3.2270   -8.8970 C.3       9 GLL5        0.0000 
     74 CA          3.3510    3.1190   -5.4010 C.3       6 GLP5        0.0000 
     75 CA          4.1884    0.2647  -12.6155 C.3       3 GLC5        0.0000 
     76 CA          4.9650    0.8540  -14.3120 C.3       6 GLP5        0.0000 
     77 CA          0.9782   -2.6113  -13.3643 C.3       3 GLC5        0.0000 
     78 CA          1.4880   -1.0860  -11.8380 C.3       9 GLL5        0.0000 
     79 CA          0.8390   -3.5070  -15.1110 C.3       6 GLP5        0.0000 
@<TRIPOS>BOND
@<TRIPOS>SUBSTRUCTURE
     1 ALC1        4 GROUP        1 X    ALC  0     ROOT ALC X 1
     2 SEC2        1 GROUP        1 X    SEC  0     **** SEC X 2
     3 GLC5        7 GROUP        1 X    GLC  0     **** GLC X 6
     4 ALP1        6 GROUP        1 Y    ALP  0     ROOT ALP Y 8
     5 SEP2        3 GROUP        1 Y    SEP  0     **** SEP Y 9
     6 GLP5        9 GROUP        1 Y    GLP  0     **** GLP Y 13
     7 ALL1        5 GROUP        1 Z    ALL  0     ROOT ALL Z 15
     8 SEL2        2 GROUP        1 Z    SEL  0     **** SEL Z 16
     9 GLL5        8 GROUP        1 Z    GLL  0     **** GLL Z 20
@<TRIPOS>SET

