#    Name: 3h3s_H15_2_ligand
#    Modification time : Tue Mar 25 13:33:18 2014

@<TRIPOS>MOLECULE
3h3s_H15_2_ligand
   72    72     1     0     0
SMALL
NO_CHARGES


@<TRIPOS>ATOM
      1 O21        -4.2440    0.8230   -3.8520 O.2       1 H15600      0.0000 
      2 C21        -4.5390    1.2490   -4.9430 C.2       1 H15600      0.0000 
      3 N2         -5.3060    0.6480   -5.8430 N.am      1 H15600      0.0000 
      4 C2         -6.2500   -0.4410   -5.5790 C.3       1 H15600      0.0000 
      5 C1         -7.5900   -0.1770   -6.2860 C.3       1 H15600      0.0000 
      6 O1         -7.3150   -0.1160   -7.7090 O.3       1 H15600      0.0000 
      7 C3         -5.6880   -1.8270   -5.9640 C.3       1 H15600      0.0000 
      8 C4         -4.3030   -1.8460   -5.3160 C.3       1 H15600      0.0000 
      9 C5         -3.0650   -1.7070   -6.1460 C.ar      1 H15600      0.0000 
     10 C6         -2.9470   -1.9440   -7.5080 C.ar      1 H15600      0.0000 
     11 C7         -1.7060   -1.6660   -8.1360 C.ar      1 H15600      0.0000 
     12 C8         -0.6250   -1.1120   -7.4670 C.ar      1 H15600      0.0000 
     13 C9         -0.7470   -0.8460   -6.0980 C.ar      1 H15600      0.0000 
     14 C10        -1.9630   -1.1310   -5.4860 C.ar      1 H15600      0.0000 
     15 O4         -4.2470   -2.2150   -3.9310 O.3       1 H15600      0.0000 
     16 C22        -3.9960    2.6240   -5.2940 C.3       1 H15600      0.0000 
     17 C23        -2.7520    2.4660   -6.1300 C.3       1 H15600      0.0000 
     18 C24        -2.7050    3.5670   -7.1820 C.3       1 H15600      0.0000 
     19 C25        -1.2480    3.8800   -7.4640 C.3       1 H15600      0.0000 
     20 C26        -0.5100    2.6990   -8.0880 C.3       1 H15600      0.0000 
     21 C27         0.3990    3.1430   -9.2410 C.3       1 H15600      0.0000 
     22 C28         1.8910    3.2270   -8.8970 C.3       1 H15600      0.0000 
     23 C29         2.5500    1.8500   -8.8710 C.3       1 H15600      0.0000 
     24 C30         4.0340    1.8470   -9.2360 C.3       1 H15600      0.0000 
     25 C31         4.3800    0.5380   -9.9400 C.3       1 H15600      0.0000 
     26 C32         3.4190    0.3400  -11.1120 C.3       1 H15600      0.0000 
     27 C33         2.9240   -1.0880  -11.3120 C.3       1 H15600      0.0000 
     28 C34         1.4880   -1.0860  -11.8380 C.3       1 H15600      0.0000 
     29 C35         0.7470   -2.3450  -11.3970 C.3       1 H15600      0.0000 
     30 H          -5.2713    0.9472   -6.8704 H         1 H15600      0.0000 
     31 H          -6.4696   -0.4747   -4.4956 H         1 H15600      0.0000 
     32 H          -7.9871    0.7580   -5.9157 H         1 H15600      0.0000 
     33 H          -8.2634   -0.9876   -6.0439 H         1 H15600      0.0000 
     34 H          -5.5969   -1.8898   -7.0157 H         1 H15600      0.0000 
     35 H          -6.2959   -2.5825   -5.5421 H         1 H15600      0.0000 
     36 H          -4.3647   -0.4851   -5.0359 H         1 H15600      0.0000 
     37 H          -3.7199   -2.3066   -8.0532 H         1 H15600      0.0000 
     38 H          -1.6148   -1.8946   -9.1534 H         1 H15600      0.0000 
     39 H           0.2425   -0.9008   -7.9561 H         1 H15600      0.0000 
     40 H           0.0273   -0.4587   -5.5742 H         1 H15600      0.0000 
     41 H          -2.0734   -0.9034   -4.4615 H         1 H15600      0.0000 
     42 H          -3.7593    3.1598   -4.3807 H         1 H15600      0.0000 
     43 H          -4.7464    3.1740   -5.8523 H         1 H15600      0.0000 
     44 H          -2.7613    1.4999   -6.6252 H         1 H15600      0.0000 
     45 H          -1.8720    2.5387   -5.4983 H         1 H15600      0.0000 
     46 H          -3.1998    4.4470   -6.8033 H         1 H15600      0.0000 
     47 H          -3.1846    3.2225   -8.0842 H         1 H15600      0.0000 
     48 H          -0.7485    4.1580   -6.5279 H         1 H15600      0.0000 
     49 H          -1.1860    4.7385   -8.1439 H         1 H15600      0.0000 
     50 H          -1.2374    1.9777   -8.4663 H         1 H15600      0.0000 
     51 H           0.0979    2.2088   -7.3246 H         1 H15600      0.0000 
     52 H           0.0604    4.1332   -9.5992 H         1 H15600      0.0000 
     53 H           0.2680    2.4423  -10.0867 H         1 H15600      0.0000 
     54 H           2.0043    3.6995   -7.9177 H         1 H15600      0.0000 
     55 H           2.3927    3.8528   -9.6398 H         1 H15600      0.0000 
     56 H           2.0104    1.1822   -9.5673 H         1 H15600      0.0000 
     57 H           2.4303    1.4154   -7.8617 H         1 H15600      0.0000 
     58 H           4.6258    1.9385   -8.3338 H         1 H15600      0.0000 
     59 H           4.2426    2.6784   -9.8977 H         1 H15600      0.0000 
     60 H           4.2743   -0.2835   -9.2464 H         1 H15600      0.0000 
     61 H           5.3936    0.5848  -10.3109 H         1 H15600      0.0000 
     62 H           3.9177    0.6796  -12.0416 H         1 H15600      0.0000 
     63 H           2.5443    1.0056  -10.9705 H         1 H15600      0.0000 
     64 H           2.9568   -1.6179  -10.3633 H         1 H15600      0.0000 
     65 H           3.5662   -1.5962  -12.0270 H         1 H15600      0.0000 
     66 H           1.5052   -1.0403  -12.9257 H         1 H15600      0.0000 
     67 H           0.9679   -0.2092  -11.4558 H         1 H15600      0.0000 
     68 H           1.1922   -3.1749  -11.7331 H         1 H15600      0.0000 
     69 H           0.7017   -2.4196  -10.4008 H         1 H15600      0.0000 
     70 H          -0.1940   -2.3597  -11.7351 H         1 H15600      0.0000 
     71 H          -7.0775    0.8392   -7.8859 H         1 H15600      0.0000 
     72 H          -4.0112   -1.3717   -3.4479 H         1 H15600      0.0000 
@<TRIPOS>BOND
     1    2    1 2    
     2    3    2 am   
     3   16    2 1    
     4    4    3 1    
     5   30    3 1    
     6    5    4 1    
     7    7    4 1    
     8   31    4 1    
     9    6    5 1    
    10   32    5 1    
    11   33    5 1    
    12   71    6 1    
    13    8    7 1    
    14   34    7 1    
    15   35    7 1    
    16    9    8 1    
    17   15    8 1    
    18   36    8 1    
    19   10    9 ar   
    20   14    9 ar   
    21   11   10 ar   
    22   37   10 1    
    23   12   11 ar   
    24   38   11 1    
    25   13   12 ar   
    26   39   12 1    
    27   14   13 ar   
    28   40   13 1    
    29   41   14 1    
    30   72   15 1    
    31   17   16 1    
    32   42   16 1    
    33   43   16 1    
    34   18   17 1    
    35   44   17 1    
    36   45   17 1    
    37   19   18 1    
    38   46   18 1    
    39   47   18 1    
    40   20   19 1    
    41   48   19 1    
    42   49   19 1    
    43   21   20 1    
    44   50   20 1    
    45   51   20 1    
    46   22   21 1    
    47   52   21 1    
    48   53   21 1    
    49   23   22 1    
    50   54   22 1    
    51   55   22 1    
    52   24   23 1    
    53   56   23 1    
    54   57   23 1    
    55   25   24 1    
    56   58   24 1    
    57   59   24 1    
    58   26   25 1    
    59   60   25 1    
    60   61   25 1    
    61   27   26 1    
    62   62   26 1    
    63   63   26 1    
    64   28   27 1    
    65   64   27 1    
    66   65   27 1    
    67   29   28 1    
    68   66   28 1    
    69   67   28 1    
    70   68   29 1    
    71   69   29 1    
    72   70   29 1    
@<TRIPOS>SUBSTRUCTURE
     1 H15600      1 GROUP   
@<TRIPOS>SET

