#    Name: 3puy_ANP_1_INTS_M
#    Modification time : Tue Mar 25 08:34:21 2014

@<TRIPOS>MOLECULE
3puy_ANP_1_INTS_M
   81     0    15     0     0
SMALL
NO_CHARGES


@<TRIPOS>ATOM
      1 Zn         62.7920    3.3890    9.6315 Zn        4 ZIC7        0.0000 
      2 Zn         62.6060    3.8450    8.7000 Zn       14 ZIL7        0.0000 
      3 Zn         62.9780    2.9330   10.5630 Zn        9 ZIP7        0.0000 
      4 N          63.8370    4.7320    8.9430 N.am      2 SEC2        0.0000 
      5 N          62.6060    3.8450    8.7000 N.am     12 SEL2        0.0000 
      6 N          65.0680    5.6190    9.1860 N.am      7 SEP2        0.0000 
      7 N          61.9155    5.3460    8.8505 N.am      2 SEC2        0.0000 
      8 N          61.2250    6.8470    9.0010 N.am      7 SEP2        0.0000 
      9 N          61.5595    4.3675    4.9685 N.am      2 SEC2        0.0000 
     10 N          61.9290    4.3520    6.3240 N.am     12 SEL2        0.0000 
     11 N          61.1900    4.3830    3.6130 N.am      7 SEP2        0.0000 
     12 N          60.6315    4.8480    6.4970 N.am      2 SEC2        0.0000 
     13 N          59.3340    5.3440    6.6700 N.am      7 SEP2        0.0000 
     14 N          62.1920    5.7025    6.3605 N.am      2 SEC2        0.0000 
     15 N          62.4550    7.0530    6.3970 N.am      7 SEP2        0.0000 
     16 NZ         63.2325    1.1800    6.6635 N.4       3 LYC4        0.0000 
     17 NZ         63.6410    2.5760    6.7750 N.4      13 LYL4        0.0000 
     18 NZ         62.8240   -0.2160    6.5520 N.4       8 LYP4        0.0000 
     19 N          63.2325    1.1800    6.6635 N.am      2 SEC2        0.0000 
     20 N          63.6410    2.5760    6.7750 N.am     12 SEL2        0.0000 
     21 N          62.8240   -0.2160    6.5520 N.am      7 SEP2        0.0000 
     22 N          64.5580    2.2105    5.7700 N.am      2 SEC2        0.0000 
     23 N          65.4750    1.8450    4.7650 N.am      7 SEP2        0.0000 
     24 N          63.9940    2.2100    8.2890 N.am      2 SEC2        0.0000 
     25 N          64.3470    1.8440    9.8030 N.am      7 SEP2        0.0000 
     26 NZ         61.6715   -0.1610    7.4935 N.4       3 LYC4        0.0000 
     27 NZ         60.5190   -0.1060    8.4350 N.4      13 LYL4        0.0000 
     28 N          59.3475   -0.2730    7.3460 N.am      2 SEC2        0.0000 
     29 N          60.5190   -0.1060    8.4350 N.am     12 SEL2        0.0000 
     30 N          58.1760   -0.4400    6.2570 N.am      7 SEP2        0.0000 
     31 N          59.3280   -0.8840    8.5780 N.am      2 SEC2        0.0000 
     32 N          58.1370   -1.6620    8.7210 N.am      7 SEP2        0.0000 
     33 N          60.4500   -1.0690    9.3695 N.am      2 SEC2        0.0000 
     34 N          60.3810   -2.0320   10.3040 N.am      7 SEP2        0.0000 
     35 N          61.6715   -0.1610    7.4935 N.am      2 SEC2        0.0000 
     36 Zn         62.1940    2.3765   10.2470 Zn        4 ZIC7        0.0000 
     37 Zn         61.4100    1.8200    9.9310 Zn       14 ZIL7        0.0000 
     38 N          61.5475    0.7290   11.1170 N.am      2 SEC2        0.0000 
     39 N          61.4100    1.8200    9.9310 N.am     12 SEL2        0.0000 
     40 N          61.6850   -0.3620   12.3030 N.am      7 SEP2        0.0000 
     41 N          59.1150    0.2595   12.6425 N.am      2 SEC2        0.0000 
     42 N          58.7890    0.7950   11.2790 N.am     12 SEL2        0.0000 
     43 N          59.4410   -0.2760   14.0060 N.am      7 SEP2        0.0000 
     44 N          57.7900    0.4890   12.2230 N.am      2 SEC2        0.0000 
     45 N          56.7910    0.1830   13.1670 N.am      7 SEP2        0.0000 
     46 CA         57.1260   -0.3220    9.7695 C.3       5 GLC5        0.0000 
     47 CA         56.2950    1.3040    9.3960 C.3      15 GLL5        0.0000 
     48 CA         57.9570   -1.9480   10.1430 C.3      10 GLP5        0.0000 
     49 CA         53.4025    0.8555    9.7030 C.3       5 GLC5        0.0000 
     50 CA         54.9600    1.8620    8.9080 C.3      15 GLL5        0.0000 
     51 CA         51.8450   -0.1510   10.4980 C.3      10 GLP5        0.0000 
     52 CA         57.1145    4.0060    8.0045 C.3       5 GLC5        0.0000 
     53 CA         55.1580    3.0610    8.0050 C.3      15 GLL5        0.0000 
     54 CA         59.0710    4.9510    8.0040 C.3      10 GLP5        0.0000 
     55 N          55.1315    3.6865    5.7915 N.am      2 SEC2        0.0000 
     56 N          54.5870    2.7510    6.7350 N.am     12 SEL2        0.0000 
     57 N          55.6760    4.6220    4.8480 N.am      7 SEP2        0.0000 
     58 O          55.4145    1.6665    6.2340 O.2       1 ALC1        0.0000 
     59 O          54.5870    2.7510    6.7350 O.2      11 ALL1        0.0000 
     60 O          56.2420    0.5820    5.7330 O.2       6 ALP1        0.0000 
     61 CA         55.0380    6.1615    9.0070 C.3       5 GLC5        0.0000 
     62 CA         54.4170    4.2010    8.6760 C.3      15 GLL5        0.0000 
     63 CA         55.6590    8.1220    9.3380 C.3      10 GLP5        0.0000 
     64 N          52.5330    5.7055    7.7235 N.am      2 SEC2        0.0000 
     65 N          53.5920    4.8860    7.7370 N.am     12 SEL2        0.0000 
     66 N          51.4740    6.5250    7.7100 N.am      7 SEP2        0.0000 
     67 O          54.7795    5.4715    7.1410 O.2       1 ALC1        0.0000 
     68 O          53.5920    4.8860    7.7370 O.2      11 ALL1        0.0000 
     69 O          55.9670    6.0570    6.5450 O.2       6 ALP1        0.0000 
     70 CA         52.7005    1.7040   10.1245 C.3       5 GLC5        0.0000 
     71 CA         53.5560    3.5590    9.7510 C.3      15 GLL5        0.0000 
     72 CA         49.3445    3.8700   12.9685 C.3       5 GLC5        0.0000 
     73 CA         50.2760    5.3120   12.2780 C.3      15 GLL5        0.0000 
     74 CA         48.4130    2.4280   13.6590 C.3      10 GLP5        0.0000 
     75 CA         50.8660    7.1605   12.0505 C.3       5 GLC5        0.0000 
     76 CA         51.4560    9.0090   11.8230 C.3      10 GLP5        0.0000 
     77 CA         56.7829    2.1420    7.2477 C.3       5 GLC5        0.0000 
     78 CA         58.1730    1.9620    5.9170 C.3      10 GLP5        0.0000 
     79 CA         52.7230    7.1301   12.2030 C.3       5 GLC5        0.0000 
     80 CA         52.9750    5.5340   12.8330 C.3      15 GLL5        0.0000 
     81 CA         52.9720    8.9370   11.9440 C.3      10 GLP5        0.0000 
@<TRIPOS>BOND
@<TRIPOS>SUBSTRUCTURE
     1 ALC1       58 GROUP        1 X    ALC  0     ROOT ALC X 1
     2 SEC2        4 GROUP        1 X    SEC  0     **** SEC X 2
     3 LYC4       16 GROUP        1 X    LYC  0     **** LYC X 4
     4 ZIC7        1 GROUP        1 X    ZIC  0     **** ZIC X 5
     5 GLC5       46 GROUP        1 X    GLC  0     **** GLC X 6
     6 ALP1       60 GROUP        1 Y    ALP  0     ROOT ALP Y 8
     7 SEP2        6 GROUP        1 Y    SEP  0     **** SEP Y 9
     8 LYP4       18 GROUP        1 Y    LYP  0     **** LYP Y 11
     9 ZIP7        3 GROUP        1 Y    ZIP  0     **** ZIP Y 12
    10 GLP5       48 GROUP        1 Y    GLP  0     **** GLP Y 13
    11 ALL1       59 GROUP        1 Z    ALL  0     ROOT ALL Z 15
    12 SEL2        5 GROUP        1 Z    SEL  0     **** SEL Z 16
    13 LYL4       17 GROUP        1 Z    LYL  0     **** LYL Z 18
    14 ZIL7        2 GROUP        1 Z    ZIL  0     **** ZIL Z 19
    15 GLL5       47 GROUP        1 Z    GLL  0     **** GLL Z 20
@<TRIPOS>SET

