#    Name: 3puy_ANP_1_ligand
#    Modification time : Tue Mar 25 08:34:21 2014

@<TRIPOS>MOLECULE
3puy_ANP_1_ligand
   43    45     1     0     0
SMALL
NO_CHARGES


@<TRIPOS>ATOM
      1 PG         62.4480    3.3330    7.2940 P.3       1 ANP2501     0.0000 
      2 O1G        62.6060    3.8450    8.7000 O.co2     1 ANP2501     0.0000 
      3 O2G        61.9290    4.3520    6.3240 O.co2     1 ANP2501     0.0000 
      4 O3G        63.6410    2.5760    6.7750 O.co2     1 ANP2501     0.0000 
      5 PB         60.5910    1.3640    8.7500 P.3       1 ANP2501     0.0000 
      6 O1B        60.5190   -0.1060    8.4350 O.co2     1 ANP2501     0.0000 
      7 O2B        61.4100    1.8200    9.9310 O.co2     1 ANP2501     0.0000 
      8 N3B        61.1460    2.1770    7.3120 N.4       1 ANP2501     0.0000 
      9 PA         58.5510    2.0620   10.5120 P.3       1 ANP2501     0.0000 
     10 O1A        59.0750    3.3670   11.0350 O.co2     1 ANP2501     0.0000 
     11 O2A        58.7890    0.7950   11.2790 O.co2     1 ANP2501     0.0000 
     12 O3A        59.0890    1.8390    9.0240 O.3       1 ANP2501     0.0000 
     13 O5'        56.9780    2.2280   10.2460 O.3       1 ANP2501     0.0000 
     14 C5'        56.2950    1.3040    9.3960 C.3       1 ANP2501     0.0000 
     15 C4'        54.9600    1.8620    8.9080 C.3       1 ANP2501     0.0000 
     16 O4'        54.1210    2.2720    9.9960 O.3       1 ANP2501     0.0000 
     17 C3'        55.1580    3.0610    8.0050 C.3       1 ANP2501     0.0000 
     18 O3'        54.5870    2.7510    6.7350 O.3       1 ANP2501     0.0000 
     19 C2'        54.4170    4.2010    8.6760 C.3       1 ANP2501     0.0000 
     20 O2'        53.5920    4.8860    7.7370 O.3       1 ANP2501     0.0000 
     21 C1'        53.5560    3.5590    9.7510 C.3       1 ANP2501     0.0000 
     22 N9         53.5610    4.3590   11.0060 N.pl3     1 ANP2501     0.0000 
     23 C8         54.6500    4.7470   11.7060 C.2       1 ANP2501     0.0000 
     24 N7         54.3150    5.4610   12.8130 N.2       1 ANP2501     0.0000 
     25 C5         52.9750    5.5340   12.8330 C.ar      1 ANP2501     0.0000 
     26 C6         51.9630    6.1430   13.7250 C.ar      1 ANP2501     0.0000 
     27 N6         52.3330    6.8310   14.8360 N.pl3     1 ANP2501     0.0000 
     28 N1         50.6600    5.9910   13.3810 N.ar      1 ANP2501     0.0000 
     29 C2         50.2760    5.3120   12.2780 C.ar      1 ANP2501     0.0000 
     30 N3         51.1420    4.7300   11.4290 N.ar      1 ANP2501     0.0000 
     31 C4         52.4790    4.8080   11.6450 C.ar      1 ANP2501     0.0000 
     32 H          56.0882    0.3519    9.9168 H         1 ANP2501     0.0000 
     33 H          56.8974    1.0528    8.5047 H         1 ANP2501     0.0000 
     34 H          54.4621    1.0894    8.3218 H         1 ANP2501     0.0000 
     35 H          56.1865    3.2857    7.9591 H         1 ANP2501     0.0000 
     36 H          55.1262    4.8379    9.1489 H         1 ANP2501     0.0000 
     37 H          52.5572    3.4696    9.3721 H         1 ANP2501     0.0000 
     38 H          55.5789    4.5390   11.4478 H         1 ANP2501     0.0000 
     39 H          53.3147    6.8714   15.0219 H         1 ANP2501     0.0000 
     40 H          51.5910    7.2364   15.3700 H         1 ANP2501     0.0000 
     41 H          49.2335    5.2349   12.0722 H         1 ANP2501     0.0000 
     42 H          55.1436    2.0012    6.3772 H         1 ANP2501     0.0000 
     43 H          54.2280    5.3942    7.1563 H         1 ANP2501     0.0000 
@<TRIPOS>BOND
     1    2    1 ar   
     2    3    1 ar   
     3    4    1 ar   
     4    8    1 1    
     5    6    5 ar   
     6    7    5 ar   
     7    8    5 1    
     8   12    5 1    
     9   10    9 ar   
    10   11    9 ar   
    11   12    9 1    
    12   13    9 1    
    13   14   13 1    
    14   15   14 1    
    15   32   14 1    
    16   33   14 1    
    17   16   15 1    
    18   17   15 1    
    19   34   15 1    
    20   21   16 1    
    21   18   17 1    
    22   19   17 1    
    23   35   17 1    
    24   42   18 1    
    25   20   19 1    
    26   21   19 1    
    27   36   19 1    
    28   43   20 1    
    29   22   21 1    
    30   37   21 1    
    31   23   22 1    
    32   31   22 1    
    33   24   23 2    
    34   38   23 1    
    35   25   24 1    
    36   26   25 ar   
    37   31   25 ar   
    38   27   26 1    
    39   28   26 ar   
    40   39   27 1    
    41   40   27 1    
    42   29   28 ar   
    43   30   29 ar   
    44   41   29 1    
    45   31   30 ar   
@<TRIPOS>SUBSTRUCTURE
     1 ANP2501     1 GROUP   
@<TRIPOS>SET

