#    Name: 2gq2_NAP_4_INTS_M
#    Modification time : Tue Mar 25 14:55:42 2014

@<TRIPOS>MOLECULE
2gq2_NAP_4_INTS_M
   74     0     9     0     0
SMALL
NO_CHARGES


@<TRIPOS>ATOM
      1 N          19.1705  -11.2295   21.4595 N.am      1 SEC2        0.0000 
      2 N          18.4360  -10.0200   21.1290 N.am      7 SEL2        0.0000 
      3 N          19.9050  -12.4390   21.7900 N.am      4 SEP2        0.0000 
      4 NZ         20.4430   -8.0405   18.1735 N.4       2 LYC4        0.0000 
      5 NZ         19.9640   -8.7430   19.6150 N.4       8 LYL4        0.0000 
      6 NZ         21.7330   -6.4750   17.3380 N.4       5 LYP4        0.0000 
      7 N          20.7130   -8.2845   20.9140 N.am      1 SEC2        0.0000 
      8 N          19.9640   -8.7430   19.6150 N.am      7 SEL2        0.0000 
      9 N          21.4620   -7.8260   22.2130 N.am      4 SEP2        0.0000 
     10 N          20.9615   -7.6445   19.1350 N.am      1 SEC2        0.0000 
     11 N          21.9590   -6.5460   18.6550 N.am      4 SEP2        0.0000 
     12 N          20.4430   -8.0405   18.1735 N.am      1 SEC2        0.0000 
     13 N          20.9220   -7.3380   16.7320 N.am      4 SEP2        0.0000 
     14 CA         15.9660  -10.0080   20.2430 C.3       3 GLC5        0.0000 
     15 CA         16.2560   -8.2530   19.9250 C.3       9 GLL5        0.0000 
     16 CA         15.6760  -11.7630   20.5610 C.3       6 GLP5        0.0000 
     17 CA         16.0895   -6.8065   14.5595 C.3       3 GLC5        0.0000 
     18 CA         15.2860   -6.8620   16.5870 C.3       9 GLL5        0.0000 
     19 CA         16.8930   -6.7510   12.5320 C.3       6 GLP5        0.0000 
     20 CA         15.6665   -3.6795   17.7910 C.3       3 GLC5        0.0000 
     21 CA         15.7190   -5.7060   17.4820 C.3       9 GLL5        0.0000 
     22 CA         15.6140   -1.6530   18.1000 C.3       6 GLP5        0.0000 
     23 CA         19.7690   -4.0075   13.7515 C.3       3 GLC5        0.0000 
     24 CA         19.1590   -2.9480   15.3780 C.3       9 GLL5        0.0000 
     25 CA         20.3790   -5.0670   12.1250 C.3       6 GLP5        0.0000 
     26 N          19.0375   -1.9010   13.1870 N.am      1 SEC2        0.0000 
     27 N          18.4380   -2.6160   14.2590 N.am      7 SEL2        0.0000 
     28 N          19.6370   -1.1860   12.1150 N.am      4 SEP2        0.0000 
     29 CA         18.7710   -4.0725   13.1120 C.3       3 GLC5        0.0000 
     30 CA         17.1630   -3.0780   14.0990 C.3       9 GLL5        0.0000 
     31 CA         16.7225   -1.5140   15.1820 C.3       3 GLC5        0.0000 
     32 CA         16.2820    0.0500   16.2650 C.3       6 GLP5        0.0000 
     33 CA         17.0280   -4.9145   13.3155 C.3       3 GLC5        0.0000 
     34 CA         16.0690   -1.6155   13.1145 C.3       3 GLC5        0.0000 
     35 CA         14.9750   -0.1530   12.1300 C.3       6 GLP5        0.0000 
     36 CA         16.4655   -2.9535   17.1310 C.3       3 GLC5        0.0000 
     37 CA         17.3170   -4.2540   16.1620 C.3       9 GLL5        0.0000 
     38 CA         17.1050   -5.5025   14.3470 C.3       3 GLC5        0.0000 
     39 N          16.9115  -11.1455   18.9665 N.am      1 SEC2        0.0000 
     40 N          18.0960  -10.3630   18.7350 N.am      7 SEL2        0.0000 
     41 N          15.7270  -11.9280   19.1980 N.am      4 SEP2        0.0000 
     42 NZ         20.1675   -8.3935   16.7935 N.4       2 LYC4        0.0000 
     43 NZ         19.4130   -9.4490   16.8550 N.4       8 LYL4        0.0000 
     44 NZ         18.8350   -8.8910   15.6340 N.4       2 LYC4        0.0000 
     45 NZ         17.0280   -8.6910   14.0590 N.4       5 LYP4        0.0000 
     46 N          20.1675   -8.3935   16.7935 N.am      1 SEC2        0.0000 
     47 N          19.4130   -9.4490   16.8550 N.am      7 SEL2        0.0000 
     48 N          18.8350   -8.8910   15.6340 N.am      1 SEC2        0.0000 
     49 N          18.2570   -8.3330   14.4130 N.am      4 SEP2        0.0000 
     50 NZ         17.2450  -10.6555   15.6140 N.4       2 LYC4        0.0000 
     51 NZ         17.9980  -11.5400   16.6170 N.4       8 LYL4        0.0000 
     52 N          16.8625  -11.7340   17.9075 N.am      1 SEC2        0.0000 
     53 N          17.9980  -11.5400   16.6170 N.am      7 SEL2        0.0000 
     54 N          17.2450  -10.6555   15.6140 N.am      1 SEC2        0.0000 
     55 N          16.4920   -9.7710   14.6110 N.am      4 SEP2        0.0000 
     56 CA         24.0050  -12.6470   18.4345 C.3       3 GLC5        0.0000 
     57 CA         22.5380  -13.5050   17.2220 C.3       9 GLL5        0.0000 
     58 CA         25.4720  -11.7890   19.6470 C.3       6 GLP5        0.0000 
     59 CA         27.3270  -13.5455   10.7880 C.3       3 GLC5        0.0000 
     60 CA         27.0120  -13.2990   12.7860 C.3       9 GLL5        0.0000 
     61 CA         27.6420  -13.7920    8.7900 C.3       6 GLP5        0.0000 
     62 CA         29.0685  -12.7925   12.4230 C.3       3 GLC5        0.0000 
     63 CA         31.1250  -12.2860   12.0600 C.3       6 GLP5        0.0000 
     64 NZ         15.3275   -7.9215   14.0075 N.4       2 LYC4        0.0000 
     65 NZ         13.6270   -7.1520   13.9560 N.4       8 LYL4        0.0000 
     66 CA         16.3905   -6.4990   20.7782 C.3       3 GLC5        0.0000 
     67 CA         15.4680   -7.5570   18.8240 C.3       9 GLL5        0.0000 
     68 CA         16.9190   -5.0930   22.1820 C.3       6 GLP5        0.0000 
     69 CA         17.6827   -2.1130   16.6442 C.3       3 GLC5        0.0000 
     70 CA         18.6080   -3.7840   16.3450 C.3       9 GLL5        0.0000 
     71 CA         16.4820   -0.8600   17.4270 C.3       6 GLP5        0.0000 
     72 CA         27.4908  -11.3320   11.8930 C.3       3 GLC5        0.0000 
     73 CA         26.2530  -12.1510   12.9340 C.3       9 GLL5        0.0000 
     74 CA         28.3490   -9.9390   10.9260 C.3       6 GLP5        0.0000 
@<TRIPOS>BOND
@<TRIPOS>SUBSTRUCTURE
     1 SEC2        1 GROUP        1 X    SEC  0     ROOT SEC X 2
     2 LYC4        4 GROUP        1 X    LYC  0     **** LYC X 4
     3 GLC5       14 GROUP        1 X    GLC  0     **** GLC X 6
     4 SEP2        3 GROUP        1 Y    SEP  0     ROOT SEP Y 9
     5 LYP4        6 GROUP        1 Y    LYP  0     **** LYP Y 11
     6 GLP5       16 GROUP        1 Y    GLP  0     **** GLP Y 13
     7 SEL2        2 GROUP        1 Z    SEL  0     ROOT SEL Z 16
     8 LYL4        5 GROUP        1 Z    LYL  0     **** LYL Z 18
     9 GLL5       15 GROUP        1 Z    GLL  0     **** GLL Z 20
@<TRIPOS>SET

