#    Name: 2gq2_NAP_4_ligand
#    Modification time : Tue Mar 25 14:55:42 2014

@<TRIPOS>MOLECULE
2gq2_NAP_4_ligand
   73    77     1     0     0
SMALL
NO_CHARGES


@<TRIPOS>ATOM
      1 PA         18.6470   -9.3260   19.8440 P.3       1 NAP300      0.0000 
      2 O1A        18.4360  -10.0200   21.1290 O.co2     1 NAP300      0.0000 
      3 O2A        19.9640   -8.7430   19.6150 O.co2     1 NAP300      0.0000 
      4 O5B        17.6370   -8.0680   19.7500 O.3       1 NAP300      0.0000 
      5 C5B        16.2560   -8.2530   19.9250 C.3       1 NAP300      0.0000 
      6 C4B        15.4680   -7.5570   18.8240 C.3       1 NAP300      0.0000 
      7 O4B        15.7460   -6.1650   18.8180 O.3       1 NAP300      0.0000 
      8 C3B        15.7890   -8.0320   17.4160 C.3       1 NAP300      0.0000 
      9 O3B        15.1460   -9.2530   17.1060 O.3       1 NAP300      0.0000 
     10 C2B        15.2860   -6.8620   16.5870 C.3       1 NAP300      0.0000 
     11 O2B        13.8530   -6.8580   16.5420 O.3       1 NAP300      0.0000 
     12 C1B        15.7190   -5.7060   17.4820 C.3       1 NAP300      0.0000 
     13 N9A        17.0140   -5.0500   17.2260 N.pl3     1 NAP300      0.0000 
     14 C8A        18.1000   -5.0380   18.0750 C.2       1 NAP300      0.0000 
     15 N7A        19.0750   -4.2730   17.5270 N.2       1 NAP300      0.0000 
     16 C5A        18.6080   -3.7840   16.3450 C.ar      1 NAP300      0.0000 
     17 C6A        19.1590   -2.9480   15.3780 C.ar      1 NAP300      0.0000 
     18 N6A        20.3850   -2.4740   15.4980 N.pl3     1 NAP300      0.0000 
     19 N1A        18.4380   -2.6160   14.2590 N.ar      1 NAP300      0.0000 
     20 C2A        17.1630   -3.0780   14.0990 C.ar      1 NAP300      0.0000 
     21 N3A        16.6030   -3.9090   15.0540 N.ar      1 NAP300      0.0000 
     22 C4A        17.3170   -4.2540   16.1620 C.ar      1 NAP300      0.0000 
     23 O3         18.0960  -10.3630   18.7350 O.3       1 NAP300      0.0000 
     24 PN         18.9190  -10.7140   17.4130 P.3       1 NAP300      0.0000 
     25 O1N        19.4130   -9.4490   16.8550 O.co2     1 NAP300      0.0000 
     26 O2N        17.9980  -11.5400   16.6170 O.co2     1 NAP300      0.0000 
     27 O5D        20.2110  -11.5340   17.9350 O.3       1 NAP300      0.0000 
     28 C5D        21.5130  -11.2380   17.4230 C.3       1 NAP300      0.0000 
     29 C4D        21.8950  -12.3670   16.4630 C.3       1 NAP300      0.0000 
     30 O4D        22.7920  -12.0770   15.3940 O.3       1 NAP300      0.0000 
     31 C3D        22.5380  -13.5050   17.2220 C.3       1 NAP300      0.0000 
     32 O3D        21.5040  -14.3400   17.6750 O.3       1 NAP300      0.0000 
     33 C2D        23.3590  -14.2230   16.1720 C.3       1 NAP300      0.0000 
     34 O2D        22.7980  -15.4860   15.8950 O.3       1 NAP300      0.0000 
     35 C1D        23.2670  -13.3490   14.9270 C.3       1 NAP300      0.0000 
     36 N1N        24.5670  -13.3470   14.1900 N.pl3     1 NAP300      0.0000 
     37 C2N        25.3140  -14.5000   14.0340 C.ar      1 NAP300      0.0000 
     38 C3N        26.5320  -14.4810   13.3380 C.ar      1 NAP300      0.0000 
     39 C7N        27.3520  -15.7270   13.1760 C.2       1 NAP300      0.0000 
     40 O7N        28.0000  -16.2850   14.3080 O.2       1 NAP300      0.0000 
     41 N7N        27.4370  -16.2690   11.9570 N.am      1 NAP300      0.0000 
     42 C4N        27.0120  -13.2990   12.7860 C.ar      1 NAP300      0.0000 
     43 C5N        26.2530  -12.1510   12.9340 C.ar      1 NAP300      0.0000 
     44 C6N        25.0360  -12.1830   13.6300 C.ar      1 NAP300      0.0000 
     45 P2B        12.8670   -6.7850   15.2100 P.3       1 NAP300      0.0000 
     46 O1X        13.6270   -7.1520   13.9560 O.co2     1 NAP300      0.0000 
     47 O2X        11.7140   -7.7490   15.3460 O.co2     1 NAP300      0.0000 
     48 O3X        12.3180   -5.3910   15.0530 O.co2     1 NAP300      0.0000 
     49 H          15.9013   -7.8487   20.8904 H         1 NAP300      0.0000 
     50 H          15.9740   -9.3213   19.9074 H         1 NAP300      0.0000 
     51 H          14.4060   -7.7173   18.9926 H         1 NAP300      0.0000 
     52 H          16.8538   -8.0583   17.3247 H         1 NAP300      0.0000 
     53 H          15.7717   -6.8119   15.6963 H         1 NAP300      0.0000 
     54 H          14.9185   -4.9290   17.4176 H         1 NAP300      0.0000 
     55 H          18.1451   -5.5015   18.9163 H         1 NAP300      0.0000 
     56 H          20.8760   -2.7296   16.3308 H         1 NAP300      0.0000 
     57 H          20.7114   -1.9024   14.7452 H         1 NAP300      0.0000 
     58 H          16.6092   -2.8121   13.2679 H         1 NAP300      0.0000 
     59 H          22.2611  -11.2002   18.2095 H         1 NAP300      0.0000 
     60 H          21.5294  -10.3055   16.8663 H         1 NAP300      0.0000 
     61 H          20.9529  -12.7931   16.0521 H         1 NAP300      0.0000 
     62 H          23.1563  -13.1240   17.9620 H         1 NAP300      0.0000 
     63 H          24.3663  -14.2592   16.4843 H         1 NAP300      0.0000 
     64 H          22.4956  -13.8200   14.2962 H         1 NAP300      0.0000 
     65 H          24.9780  -15.3930   14.4325 H         1 NAP300      0.0000 
     66 H          28.0013  -17.0909   11.8793 H         1 NAP300      0.0000 
     67 H          26.9286  -15.8039   11.2322 H         1 NAP300      0.0000 
     68 H          27.8982  -13.2810   12.2868 H         1 NAP300      0.0000 
     69 H          26.5791  -11.2585   12.5310 H         1 NAP300      0.0000 
     70 H          24.4890  -11.3058   13.7169 H         1 NAP300      0.0000 
     71 H          14.1681   -9.0537   17.1690 H         1 NAP300      0.0000 
     72 H          20.7439  -13.7231   17.8791 H         1 NAP300      0.0000 
     73 H          21.9670  -15.5273   16.4499 H         1 NAP300      0.0000 
@<TRIPOS>BOND
     1    2    1 ar   
     2    3    1 ar   
     3    4    1 1    
     4   23    1 1    
     5    5    4 1    
     6    6    5 1    
     7   49    5 1    
     8   50    5 1    
     9    7    6 1    
    10    8    6 1    
    11   51    6 1    
    12   12    7 1    
    13    9    8 1    
    14   10    8 1    
    15   52    8 1    
    16   71    9 1    
    17   11   10 1    
    18   12   10 1    
    19   53   10 1    
    20   45   11 1    
    21   13   12 1    
    22   54   12 1    
    23   14   13 1    
    24   22   13 1    
    25   15   14 2    
    26   55   14 1    
    27   16   15 1    
    28   17   16 ar   
    29   22   16 ar   
    30   18   17 1    
    31   19   17 ar   
    32   56   18 1    
    33   57   18 1    
    34   20   19 ar   
    35   21   20 ar   
    36   58   20 1    
    37   22   21 ar   
    38   24   23 1    
    39   25   24 ar   
    40   26   24 ar   
    41   27   24 1    
    42   28   27 1    
    43   29   28 1    
    44   59   28 1    
    45   60   28 1    
    46   30   29 1    
    47   31   29 1    
    48   61   29 1    
    49   35   30 1    
    50   32   31 1    
    51   33   31 1    
    52   62   31 1    
    53   72   32 1    
    54   34   33 1    
    55   35   33 1    
    56   63   33 1    
    57   73   34 1    
    58   36   35 1    
    59   64   35 1    
    60   37   36 ar   
    61   44   36 ar   
    62   38   37 ar   
    63   65   37 1    
    64   39   38 1    
    65   42   38 ar   
    66   40   39 2    
    67   41   39 am   
    68   66   41 1    
    69   67   41 1    
    70   43   42 ar   
    71   68   42 1    
    72   44   43 ar   
    73   69   43 1    
    74   70   44 1    
    75   46   45 ar   
    76   47   45 ar   
    77   48   45 ar   
@<TRIPOS>SUBSTRUCTURE
     1 NAP300      1 GROUP   
@<TRIPOS>SET

