#    Name: 4hgs_15G_1_INTS_M
#    Modification time : Tue Mar 25 01:01:43 2014

@<TRIPOS>MOLECULE
4hgs_15G_1_INTS_M
   83     0     6     0     0
SMALL
NO_CHARGES


@<TRIPOS>ATOM
      1 CA         36.1180  -21.5475   29.3755 C.3       2 GLC5        0.0000 
      2 CA         35.4500  -20.9500   27.4130 C.3       6 GLL5        0.0000 
      3 CA         36.7860  -22.1450   31.3380 C.3       4 GLP5        0.0000 
      4 CA         36.7250  -20.2125   29.5865 C.3       2 GLC5        0.0000 
      5 CA         36.1820  -19.6970   27.5760 C.3       6 GLL5        0.0000 
      6 CA         37.2680  -20.7280   31.5970 C.3       4 GLP5        0.0000 
      7 CA         36.8695   -8.8975   28.9670 C.3       2 GLC5        0.0000 
      8 CA         37.6410  -10.3210   27.9430 C.3       6 GLL5        0.0000 
      9 CA         36.0980   -7.4740   29.9910 C.3       4 GLP5        0.0000 
     10 CA         39.0990   -9.4325   28.0080 C.3       2 GLC5        0.0000 
     11 CA         40.5570   -8.5440   28.0730 C.3       4 GLP5        0.0000 
     12 CA         35.6960  -10.4320   28.7370 C.3       2 GLC5        0.0000 
     13 CA         33.7510  -10.5430   29.5310 C.3       4 GLP5        0.0000 
     14 CA         36.2145  -10.0505   26.9280 C.3       2 GLC5        0.0000 
     15 CA         34.7880   -9.7800   25.9130 C.3       4 GLP5        0.0000 
     16 CA         37.8805  -11.2160   20.6040 C.3       2 GLC5        0.0000 
     17 CA         38.3700  -13.2660   20.7700 C.3       6 GLL5        0.0000 
     18 CA         37.3910   -9.1660   20.4380 C.3       4 GLP5        0.0000 
     19 CA         38.9075  -15.0665   24.4235 C.3       2 GLC5        0.0000 
     20 CA         38.0790  -13.7710   23.1420 C.3       6 GLL5        0.0000 
     21 CA         39.7360  -16.3620   25.7050 C.3       4 GLP5        0.0000 
     22 CA         34.8860  -13.9265   29.4475 C.3       2 GLC5        0.0000 
     23 CA         36.2970  -15.0460   28.3180 C.3       6 GLL5        0.0000 
     24 CA         33.4750  -12.8070   30.5770 C.3       4 GLP5        0.0000 
     25 CA         34.6845  -15.0090   30.1920 C.3       2 GLC5        0.0000 
     26 CA         35.5510  -16.2660   28.6430 C.3       6 GLL5        0.0000 
     27 CA         33.8180  -13.7520   31.7410 C.3       4 GLP5        0.0000 
     28 N          40.7275  -10.1810   21.9245 N.am      1 SEC2        0.0000 
     29 N          39.6840  -10.6100   22.7060 N.am      5 SEL2        0.0000 
     30 N          41.7710   -9.7520   21.1430 N.am      3 SEP2        0.0000 
     31 CA         39.3700  -11.7065   28.4400 C.3       2 GLC5        0.0000 
     32 CA         37.6100  -12.6880   27.7260 C.3       6 GLL5        0.0000 
     33 CA         41.1300  -10.7250   29.1540 C.3       4 GLP5        0.0000 
     34 CA         36.1990  -11.2340   26.8195 C.3       2 GLC5        0.0000 
     35 CA         37.3015  -13.3410   31.0860 C.3       2 GLC5        0.0000 
     36 CA         37.2010  -13.0030   29.1040 C.3       6 GLL5        0.0000 
     37 CA         37.4020  -13.6790   33.0680 C.3       4 GLP5        0.0000 
     38 CA         35.3380  -12.9050   29.8405 C.3       2 GLC5        0.0000 
     39 N          35.9160  -13.9980   30.6310 N.am      1 SEC2        0.0000 
     40 N          36.5670  -14.1620   29.3620 N.am      5 SEL2        0.0000 
     41 N          35.2650  -13.8340   31.9000 N.am      3 SEP2        0.0000 
     42 CA         35.8650  -19.3160   30.3470 C.3       2 GLC5        0.0000 
     43 CA         35.6000  -18.6190   28.4090 C.3       6 GLL5        0.0000 
     44 CA         36.1300  -20.0130   32.2850 C.3       4 GLP5        0.0000 
     45 CA         31.9405  -23.1470   28.0585 C.3       2 GLC5        0.0000 
     46 CA         33.4620  -22.1380   28.0060 C.3       6 GLL5        0.0000 
     47 CA         30.4190  -24.1560   28.1110 C.3       4 GLP5        0.0000 
     48 CA         31.0265  -19.3560   29.6330 C.3       2 GLC5        0.0000 
     49 CA         32.4690  -20.1030   29.4970 C.3       6 GLL5        0.0000 
     50 CA         29.5840  -18.6090   29.7690 C.3       4 GLP5        0.0000 
     51 CA         32.8045  -21.5780   30.5145 C.3       2 GLC5        0.0000 
     52 CA         33.1400  -23.0530   31.5320 C.3       4 GLP5        0.0000 
     53 CA         36.7735  -20.8752   25.8547 C.3       2 GLC5        0.0000 
     54 CA         37.7310  -21.4270   24.2150 C.3       4 GLP5        0.0000 
     55 CA         37.8680  -19.1570   28.5373 C.3       2 GLC5        0.0000 
     56 CA         39.8450  -19.1560   29.0820 C.3       4 GLP5        0.0000 
     57 CA         40.0255  -13.5225   24.7542 C.3       2 GLC5        0.0000 
     58 CA         38.3890  -12.2310   24.7490 C.3       6 GLL5        0.0000 
     59 CA         41.5630  -14.6770   25.4370 C.3       4 GLP5        0.0000 
     60 CA         36.7680  -12.1680   23.9067 C.3       2 GLC5        0.0000 
     61 CA         35.0480  -11.9680   23.7420 C.3       4 GLP5        0.0000 
     62 CA         36.5745  -13.0255   23.0980 C.3       2 GLC5        0.0000 
     63 CA         35.5683  -13.5770   26.2583 C.3       2 GLC5        0.0000 
     64 CA         37.7630  -13.3850   25.2070 C.3       6 GLL5        0.0000 
     65 CA         33.5850  -13.6540   26.5970 C.3       4 GLP5        0.0000 
     66 CA         36.2998  -12.7340   24.8308 C.3       2 GLC5        0.0000 
     67 CA         37.3400  -13.6150   26.6320 C.3       6 GLL5        0.0000 
     68 CA         38.4169  -15.2730   26.0706 C.3       2 GLC5        0.0000 
     69 CA         36.9335  -16.1075   30.2527 C.3       2 GLC5        0.0000 
     70 CA         37.9430  -16.5590   32.0250 C.3       4 GLP5        0.0000 
     71 CA         34.7979  -14.6327   27.3681 C.3       2 GLC5        0.0000 
     72 CA         38.8692  -13.3822   29.2985 C.3       2 GLC5        0.0000 
     73 CA         40.3330  -13.9190   30.1820 C.3       4 GLP5        0.0000 
     74 CA         35.4952  -13.2497   27.5060 C.3       2 GLC5        0.0000 
     75 CA         32.1305  -18.7267   28.2645 C.3       2 GLC5        0.0000 
     76 CA         34.3130  -18.7310   29.1000 C.3       6 GLL5        0.0000 
     77 CA         30.2970  -18.1170   27.5120 C.3       4 GLP5        0.0000 
     78 CA         33.4081  -22.1814   29.8987 C.3       2 GLC5        0.0000 
     79 CA         33.6150  -19.9420   28.9340 C.3       6 GLL5        0.0000 
     80 CA         32.3312  -18.1559   30.0505 C.3       2 GLC5        0.0000 
     81 CA         31.4460  -16.5920   30.8440 C.3       4 GLP5        0.0000 
     82 CA         34.0767  -20.3423   30.6639 C.3       2 GLC5        0.0000 
     83 CA         34.8680  -20.8300   32.1730 C.3       4 GLP5        0.0000 
@<TRIPOS>BOND
@<TRIPOS>SUBSTRUCTURE
     1 SEC2       28 GROUP        1 X    SEC  0     ROOT SEC X 2
     2 GLC5        1 GROUP        1 X    GLC  0     **** GLC X 6
     3 SEP2       30 GROUP        1 Y    SEP  0     ROOT SEP Y 9
     4 GLP5        3 GROUP        1 Y    GLP  0     **** GLP Y 13
     5 SEL2       29 GROUP        1 Z    SEL  0     ROOT SEL Z 16
     6 GLL5        2 GROUP        1 Z    GLL  0     **** GLL Z 20
@<TRIPOS>SET

