#    Name: 4hgs_15G_1_ligand
#    Modification time : Tue Mar 25 01:01:43 2014

@<TRIPOS>MOLECULE
4hgs_15G_1_ligand
   45    48     1     0     0
SMALL
NO_CHARGES


@<TRIPOS>ATOM
      1 C1         34.1660  -21.0210   28.1160 C.ar      1 15G401      0.0000 
      2 C2         35.4500  -20.9500   27.4130 C.ar      1 15G401      0.0000 
      3 C3         36.1820  -19.6970   27.5760 C.ar      1 15G401      0.0000 
      4 C7         37.6410  -10.3210   27.9430 C.3       1 15G401      0.0000 
      5 C8         38.3890  -12.2310   24.7490 C.2       1 15G401      0.0000 
      6 C9         38.5870  -12.5050   23.3940 C.2       1 15G401      0.0000 
      7 C10        39.1700  -11.6900   22.4480 C.2       1 15G401      0.0000 
      8 C11        38.3700  -13.2660   20.7700 C.3       1 15G401      0.0000 
      9 C12        38.1230  -14.3950   21.7660 C.3       1 15G401      0.0000 
     10 C13        38.0790  -13.7710   23.1420 C.2       1 15G401      0.0000 
     11 C14        37.7630  -13.3850   25.2070 C.2       1 15G401      0.0000 
     12 C15        37.3400  -13.6150   26.6320 C.ar      1 15G401      0.0000 
     13 C16        36.6440  -14.8680   26.9530 C.ar      1 15G401      0.0000 
     14 C19        36.2970  -15.0460   28.3180 C.ar      1 15G401      0.0000 
     15 C20        35.5510  -16.2660   28.6430 C.3       1 15G401      0.0000 
     16 O1         39.6840  -10.6100   22.7060 O.2       1 15G401      0.0000 
     17 N2         39.1570  -12.1270   21.2490 N.am      1 15G401      0.0000 
     18 N3         37.5720  -14.3120   24.2540 N.pl3     1 15G401      0.0000 
     19 C17        37.6100  -12.6880   27.7260 C.ar      1 15G401      0.0000 
     20 C18        37.2010  -13.0030   29.1040 C.ar      1 15G401      0.0000 
     21 N1         36.5670  -14.1620   29.3620 N.ar      1 15G401      0.0000 
     22 O2         38.2750  -11.4370   27.6040 O.3       1 15G401      0.0000 
     23 O3         36.3100  -17.4170   28.5540 O.3       1 15G401      0.0000 
     24 C4         35.6000  -18.6190   28.4090 C.ar      1 15G401      0.0000 
     25 C5         34.3130  -18.7310   29.1000 C.ar      1 15G401      0.0000 
     26 C6         33.6150  -19.9420   28.9340 C.ar      1 15G401      0.0000 
     27 F1         33.4620  -22.1380   28.0060 F         1 15G401      0.0000 
     28 F2         32.4690  -20.1030   29.4970 F         1 15G401      0.0000 
     29 H          35.7876  -21.6850   26.8778 H         1 15G401      0.0000 
     30 H          37.0652  -19.5592   27.1350 H         1 15G401      0.0000 
     31 H          38.6155  -11.4802   25.2143 H         1 15G401      0.0000 
     32 H          37.3705  -12.9133   20.4026 H         1 15G401      0.0000 
     33 H          38.8568  -13.7137   19.8639 H         1 15G401      0.0000 
     34 H          38.9298  -15.1035   21.7098 H         1 15G401      0.0000 
     35 H          37.1815  -14.8656   21.5460 H         1 15G401      0.0000 
     36 H          36.4432  -15.5233   26.2534 H         1 15G401      0.0000 
     37 H          34.6532  -16.3141   27.9685 H         1 15G401      0.0000 
     38 H          35.1137  -16.1421   29.6709 H         1 15G401      0.0000 
     39 H          39.7462  -11.6730   20.4719 H         1 15G401      0.0000 
     40 H          37.1661  -15.1623   24.3527 H         1 15G401      0.0000 
     41 H          37.4225  -12.3099   29.8206 H         1 15G401      0.0000 
     42 H          33.9764  -17.9804   29.6474 H         1 15G401      0.0000 
     43 H          38.2152   -9.5130   27.8113 H         1 15G401      0.0000 
     44 H          36.8132  -10.1842   27.3989 H         1 15G401      0.0000 
     45 H          37.3624  -10.3292   28.9034 H         1 15G401      0.0000 
@<TRIPOS>BOND
     1    2    1 ar   
     2   26    1 ar   
     3   27    1 1    
     4    3    2 ar   
     5   29    2 1    
     6   24    3 ar   
     7   30    3 1    
     8   22    4 1    
     9   43    4 1    
    10   44    4 1    
    11   45    4 1    
    12    6    5 1    
    13   11    5 2    
    14   31    5 1    
    15    7    6 1    
    16   10    6 2    
    17   16    7 2    
    18   17    7 am   
    19    9    8 1    
    20   17    8 1    
    21   32    8 1    
    22   33    8 1    
    23   10    9 1    
    24   34    9 1    
    25   35    9 1    
    26   18   10 1    
    27   12   11 1    
    28   18   11 1    
    29   13   12 ar   
    30   19   12 ar   
    31   14   13 ar   
    32   36   13 1    
    33   15   14 1    
    34   21   14 ar   
    35   23   15 1    
    36   37   15 1    
    37   38   15 1    
    38   39   17 1    
    39   40   18 1    
    40   20   19 ar   
    41   22   19 1    
    42   21   20 ar   
    43   41   20 1    
    44   24   23 1    
    45   25   24 ar   
    46   26   25 ar   
    47   42   25 1    
    48   28   26 1    
@<TRIPOS>SUBSTRUCTURE
     1 15G401      1 GROUP   
@<TRIPOS>SET

