#    Name: 3gp0_NIL_1_INTS_M
#    Modification time : Tue Mar 25 12:48:56 2014

@<TRIPOS>MOLECULE
3gp0_NIL_1_INTS_M
  104     0     9     0     0
SMALL
NO_CHARGES


@<TRIPOS>ATOM
      1 N          19.6860   60.4195   21.5790 N.am      2 SEC2        0.0000 
      2 N          19.8780   60.1390   22.9360 N.am      8 SEL2        0.0000 
      3 N          19.4940   60.7000   20.2220 N.am      5 SEP2        0.0000 
      4 O          17.1955   58.4770   24.4845 O.2       1 ALC1        0.0000 
      5 O          18.3680   58.6150   23.7530 O.2       7 ALL1        0.0000 
      6 O          16.0230   58.3390   25.2160 O.2       4 ALP1        0.0000 
      7 CA         11.2855   53.4420   22.7025 C.3       3 GLC5        0.0000 
      8 CA         13.0550   53.7100   22.0060 C.3       9 GLL5        0.0000 
      9 CA          9.5160   53.1740   23.3990 C.3       6 GLP5        0.0000 
     10 CA         21.3660   58.5030   22.9905 C.3       3 GLC5        0.0000 
     11 CA         19.6470   57.5120   22.0380 C.3       9 GLL5        0.0000 
     12 CA         23.0850   59.4940   23.9430 C.3       6 GLP5        0.0000 
     13 CA         21.8530   56.2720   23.0465 C.3       3 GLC5        0.0000 
     14 CA         22.1010   56.2240   21.0030 C.3       9 GLL5        0.0000 
     15 CA         21.6050   56.3200   25.0900 C.3       6 GLP5        0.0000 
     16 CA         22.7715   54.3485   21.2110 C.3       3 GLC5        0.0000 
     17 CA         23.4420   52.4730   21.4190 C.3       6 GLP5        0.0000 
     18 CA         23.8370   56.3020   21.2980 C.3       3 GLC5        0.0000 
     19 CA         25.5730   56.3800   21.5930 C.3       6 GLP5        0.0000 
     20 CA         22.1910   53.9070   20.4335 C.3       3 GLC5        0.0000 
     21 CA         20.9400   55.3410   19.4480 C.3       9 GLL5        0.0000 
     22 CA         22.8690   55.2790   18.3605 C.3       3 GLC5        0.0000 
     23 CA         24.7980   55.2170   17.2730 C.3       6 GLP5        0.0000 
     24 CA         22.6150   58.2200   18.2880 C.3       3 GLC5        0.0000 
     25 CA         21.3140   57.3350   19.4510 C.3       9 GLL5        0.0000 
     26 CA         23.9160   59.1050   17.1250 C.3       6 GLP5        0.0000 
     27 CA         21.6105   59.1915   19.8935 C.3       3 GLC5        0.0000 
     28 CA         21.9070   61.0480   20.3360 C.3       6 GLP5        0.0000 
     29 CA         16.5605   61.0000   26.6810 C.3       3 GLC5        0.0000 
     30 CA         18.4420   60.1960   26.3010 C.3       9 GLL5        0.0000 
     31 CA         14.6790   61.8040   27.0610 C.3       6 GLP5        0.0000 
     32 CA         20.3165   64.7065   28.7685 C.3       3 GLC5        0.0000 
     33 CA         19.1860   63.1270   28.6500 C.3       9 GLL5        0.0000 
     34 CA         21.4470   66.2860   28.8870 C.3       6 GLP5        0.0000 
     35 CA         18.8195   64.1890   30.4005 C.3       3 GLC5        0.0000 
     36 CA         18.4530   65.2510   32.1510 C.3       6 GLP5        0.0000 
     37 CA         21.9195   62.1425   25.6515 C.3       3 GLC5        0.0000 
     38 CA         19.8120   62.6190   26.2570 C.3       9 GLL5        0.0000 
     39 CA         24.0270   61.6660   25.0460 C.3       6 GLP5        0.0000 
     40 CA         20.7695   62.0075   23.2025 C.3       3 GLC5        0.0000 
     41 CA         19.7860   61.8080   25.1080 C.3       9 GLL5        0.0000 
     42 CA         21.7530   62.2070   21.2970 C.3       6 GLP5        0.0000 
     43 O          21.5930   63.3460   27.1620 O.2       1 ALC1        0.0000 
     44 O          20.4830   63.7890   26.2300 O.2       7 ALL1        0.0000 
     45 O          22.7030   62.9030   28.0940 O.2       4 ALP1        0.0000 
     46 CA         18.9630   66.0960   26.3825 C.3       3 GLC5        0.0000 
     47 CA         20.2290   64.7980   25.3740 C.3       9 GLL5        0.0000 
     48 CA         17.6970   67.3940   27.3910 C.3       6 GLP5        0.0000 
     49 CA         20.8380   65.5420   27.1305 C.3       3 GLC5        0.0000 
     50 CA         20.1965   64.4950   23.1785 C.3       3 GLC5        0.0000 
     51 CA         20.1640   64.1920   20.9830 C.3       6 GLP5        0.0000 
     52 CA         20.6125   70.1815   24.1450 C.3       3 GLC5        0.0000 
     53 CA         22.0460   68.7000   23.2470 C.3       9 GLL5        0.0000 
     54 CA         19.1790   71.6630   25.0430 C.3       6 GLP5        0.0000 
     55 CA         23.9335   69.4980   25.9900 C.3       3 GLC5        0.0000 
     56 CA         24.3000   69.3720   23.8450 C.3       9 GLL5        0.0000 
     57 CA         23.5670   69.6240   28.1350 C.3       6 GLP5        0.0000 
     58 CA         26.0835   68.6765   23.7745 C.3       3 GLC5        0.0000 
     59 CA         27.8670   67.9810   23.7040 C.3       6 GLP5        0.0000 
     60 N          25.6215   68.2405   25.3345 N.am      2 SEC2        0.0000 
     61 N          24.3900   68.3550   24.7240 N.am      8 SEL2        0.0000 
     62 N          26.8530   68.1260   25.9450 N.am      5 SEP2        0.0000 
     63 CA         23.4570   68.5640   26.5305 C.3       3 GLC5        0.0000 
     64 CA         23.3470   67.5040   24.9260 C.3       9 GLL5        0.0000 
     65 CA         24.3570   67.1480   23.0435 C.3       3 GLC5        0.0000 
     66 CA         25.3670   66.7920   21.1610 C.3       6 GLP5        0.0000 
     67 CA         16.9460   56.6557   24.1882 C.3       3 GLC5        0.0000 
     68 CA         18.4440   57.7110   22.7500 C.3       9 GLL5        0.0000 
     69 CA         16.0030   56.0090   25.7780 C.3       6 GLP5        0.0000 
     70 CA         17.8815   58.2022   20.8912 C.3       3 GLC5        0.0000 
     71 CA         17.8740   59.1020   19.1840 C.3       6 GLP5        0.0000 
     72 CA         17.9378   57.4640   20.1457 C.3       3 GLC5        0.0000 
     73 CA         17.3950   55.9320   21.4600 C.3       9 GLL5        0.0000 
     74 CA         14.2157   51.9573   22.2238 C.3       3 GLC5        0.0000 
     75 CA         14.4220   54.1530   21.4650 C.3       9 GLL5        0.0000 
     76 CA         14.6930   49.9830   22.7120 C.3       6 GLP5        0.0000 
     77 CA         14.4974   54.4793   23.7865 C.3       3 GLC5        0.0000 
     78 CA         15.0610   54.7990   25.6970 C.3       6 GLP5        0.0000 
     79 CA         18.7793   58.0613   20.3638 C.3       3 GLC5        0.0000 
     80 CA         20.4944   56.6951   23.4057 C.3       3 GLC5        0.0000 
     81 CA         19.7220   56.5290   21.0490 C.3       9 GLL5        0.0000 
     82 CA         19.5252   57.9720   19.5173 C.3       3 GLC5        0.0000 
     83 CA         21.0119   57.1390   17.8410 C.3       3 GLC5        0.0000 
     84 CA         20.8720   57.6880   16.0320 C.3       6 GLP5        0.0000 
     85 CA         19.2455   58.5255   26.2248 C.3       3 GLC5        0.0000 
     86 CA         19.0860   60.5960   25.1220 C.3       9 GLL5        0.0000 
     87 CA         19.7270   56.6550   26.7380 C.3       6 GLP5        0.0000 
     88 CA         21.2605   60.3480   24.5290 C.3       3 GLC5        0.0000 
     89 CA         20.3685   60.4920   27.0832 C.3       3 GLC5        0.0000 
     90 CA         21.9730   60.5880   28.4550 C.3       6 GLP5        0.0000 
     91 CA         17.4748   59.2665   27.9555 C.3       3 GLC5        0.0000 
     92 CA         18.4570   61.0080   27.4390 C.3       9 GLL5        0.0000 
     93 CA         16.5000   57.9310   29.0410 C.3       6 GLP5        0.0000 
     94 CA         17.3425   62.7082   28.5419 C.3       3 GLC5        0.0000 
     95 CA         15.6890   63.0450   29.0450 C.3       6 GLP5        0.0000 
     96 CA         20.4845   61.4798   28.2469 C.3       3 GLC5        0.0000 
     97 CA         20.8860   61.4008   27.0688 C.3       3 GLC5        0.0000 
     98 CA         18.5085   66.9075   25.6013 C.3       3 GLC5        0.0000 
     99 CA         18.8170   65.9400   23.9070 C.3       9 GLL5        0.0000 
    100 CA         20.1763   65.3895   22.5396 C.3       3 GLC5        0.0000 
    101 CA         24.7787   71.0423   22.3485 C.3       3 GLC5        0.0000 
    102 CA         23.1410   69.5810   23.0690 C.3       9 GLL5        0.0000 
    103 CA         25.8370   72.6080   21.2400 C.3       6 GLP5        0.0000 
    104 CA         24.4069   68.0241   22.3313 C.3       3 GLC5        0.0000 
@<TRIPOS>BOND
@<TRIPOS>SUBSTRUCTURE
     1 ALC1        4 GROUP        1 X    ALC  0     ROOT ALC X 1
     2 SEC2        1 GROUP        1 X    SEC  0     **** SEC X 2
     3 GLC5        7 GROUP        1 X    GLC  0     **** GLC X 6
     4 ALP1        6 GROUP        1 Y    ALP  0     ROOT ALP Y 8
     5 SEP2        3 GROUP        1 Y    SEP  0     **** SEP Y 9
     6 GLP5        9 GROUP        1 Y    GLP  0     **** GLP Y 13
     7 ALL1        5 GROUP        1 Z    ALL  0     ROOT ALL Z 15
     8 SEL2        2 GROUP        1 Z    SEL  0     **** SEL Z 16
     9 GLL5        8 GROUP        1 Z    GLL  0     **** GLL Z 20
@<TRIPOS>SET

