#    Name: 3gp0_NIL_1_ligand
#    Modification time : Tue Mar 25 12:48:56 2014

@<TRIPOS>MOLECULE
3gp0_NIL_1_ligand
   61    65     1     0     0
SMALL
NO_CHARGES


@<TRIPOS>ATOM
      1 O17        19.8780   60.1390   22.9360 O.2       1 NIL1        0.0000 
      2 C16        19.1410   59.7490   23.8470 C.2       1 NIL1        0.0000 
      3 N14        18.3680   58.6150   23.7530 N.am      1 NIL1        0.0000 
      4 C11        18.4440   57.7110   22.7500 C.ar      1 NIL1        0.0000 
      5 C9         17.3340   56.8940   22.4470 C.ar      1 NIL1        0.0000 
      6 C8         17.3950   55.9320   21.4600 C.ar      1 NIL1        0.0000 
      7 N51        16.3110   55.1500   21.2400 N.pl3     1 NIL1        0.0000 
      8 C56        15.2030   55.0650   22.0270 C.2       1 NIL1        0.0000 
      9 C55        14.4220   54.1530   21.4650 C.2       1 NIL1        0.0000 
     10 C58        13.0550   53.7100   22.0060 C.3       1 NIL1        0.0000 
     11 N54        15.0210   53.6560   20.3830 N.2       1 NIL1        0.0000 
     12 C52        16.1830   54.2740   20.2330 C.2       1 NIL1        0.0000 
     13 C6         18.6080   55.7200   20.7550 C.ar      1 NIL1        0.0000 
     14 C12        19.6470   57.5120   22.0380 C.ar      1 NIL1        0.0000 
     15 C5         19.7220   56.5290   21.0490 C.ar      1 NIL1        0.0000 
     16 C2         21.0390   56.3490   20.2500 C.3       1 NIL1        0.0000 
     17 F4         22.1010   56.2240   21.0030 F         1 NIL1        0.0000 
     18 F3         20.9400   55.3410   19.4480 F         1 NIL1        0.0000 
     19 F1         21.3140   57.3350   19.4510 F         1 NIL1        0.0000 
     20 C18        19.0860   60.5960   25.1220 C.ar      1 NIL1        0.0000 
     21 C25        18.4420   60.1960   26.3010 C.ar      1 NIL1        0.0000 
     22 C23        18.4570   61.0080   27.4390 C.ar      1 NIL1        0.0000 
     23 C22        19.1550   62.2240   27.4160 C.ar      1 NIL1        0.0000 
     24 C27        19.1860   63.1270   28.6500 C.3       1 NIL1        0.0000 
     25 C21        19.8120   62.6190   26.2570 C.ar      1 NIL1        0.0000 
     26 C19        19.7860   61.8080   25.1080 C.ar      1 NIL1        0.0000 
     27 N31        20.4830   63.7890   26.2300 N.pl3     1 NIL1        0.0000 
     28 C33        20.2290   64.7980   25.3740 C.ar      1 NIL1        0.0000 
     29 N40        19.0500   64.9280   24.7240 N.ar      1 NIL1        0.0000 
     30 C38        18.8170   65.9400   23.9070 C.ar      1 NIL1        0.0000 
     31 C36        19.8230   66.9020   23.7160 C.ar      1 NIL1        0.0000 
     32 C35        21.0570   66.7530   24.3810 C.ar      1 NIL1        0.0000 
     33 N34        21.2200   65.7040   25.2090 N.ar      1 NIL1        0.0000 
     34 C41        22.1420   67.6590   24.1940 C.ar      1 NIL1        0.0000 
     35 C49        22.0460   68.7000   23.2470 C.ar      1 NIL1        0.0000 
     36 C47        23.1410   69.5810   23.0690 C.ar      1 NIL1        0.0000 
     37 C45        24.3000   69.3720   23.8450 C.ar      1 NIL1        0.0000 
     38 N44        24.3900   68.3550   24.7240 N.ar      1 NIL1        0.0000 
     39 C42        23.3470   67.5040   24.9260 C.ar      1 NIL1        0.0000 
     40 H          17.6576   58.4440   24.5350 H         1 NIL1        0.0000 
     41 H          16.4584   57.0304   22.9863 H         1 NIL1        0.0000 
     42 H          15.0419   55.5700   22.8195 H         1 NIL1        0.0000 
     43 H          16.8290   54.1269   19.5279 H         1 NIL1        0.0000 
     44 H          18.6666   54.9936   20.0492 H         1 NIL1        0.0000 
     45 H          20.4629   58.0937   22.2526 H         1 NIL1        0.0000 
     46 H          17.9504   59.2893   26.3278 H         1 NIL1        0.0000 
     47 H          17.9615   60.7180   28.2858 H         1 NIL1        0.0000 
     48 H          20.2804   62.1072   24.2624 H         1 NIL1        0.0000 
     49 H          21.2760   63.9252   26.9418 H         1 NIL1        0.0000 
     50 H          17.9271   66.0562   23.4014 H         1 NIL1        0.0000 
     51 H          19.6644   67.6998   23.1036 H         1 NIL1        0.0000 
     52 H          21.2003   68.8192   22.6962 H         1 NIL1        0.0000 
     53 H          23.0902   70.3373   22.4038 H         1 NIL1        0.0000 
     54 H          25.0943   70.0378   23.7150 H         1 NIL1        0.0000 
     55 H          23.4083   66.7339   25.6097 H         1 NIL1        0.0000 
     56 H          13.1271   53.3226   22.9251 H         1 NIL1        0.0000 
     57 H          12.4115   54.4736   22.0595 H         1 NIL1        0.0000 
     58 H          12.6344   53.0124   21.4260 H         1 NIL1        0.0000 
     59 H          19.5973   62.6667   29.4368 H         1 NIL1        0.0000 
     60 H          19.7155   63.9596   28.4877 H         1 NIL1        0.0000 
     61 H          18.2678   63.4125   28.9245 H         1 NIL1        0.0000 
@<TRIPOS>BOND
     1    2    1 2    
     2    3    2 am   
     3   20    2 1    
     4    4    3 1    
     5   40    3 1    
     6    5    4 ar   
     7   14    4 ar   
     8    6    5 ar   
     9   41    5 1    
    10    7    6 1    
    11   13    6 ar   
    12    8    7 1    
    13   12    7 1    
    14    9    8 2    
    15   42    8 1    
    16   10    9 1    
    17   11    9 1    
    18   56   10 1    
    19   57   10 1    
    20   58   10 1    
    21   12   11 2    
    22   43   12 1    
    23   15   13 ar   
    24   44   13 1    
    25   15   14 ar   
    26   45   14 1    
    27   16   15 1    
    28   17   16 1    
    29   18   16 1    
    30   19   16 1    
    31   21   20 ar   
    32   26   20 ar   
    33   22   21 ar   
    34   46   21 1    
    35   23   22 ar   
    36   47   22 1    
    37   24   23 1    
    38   25   23 ar   
    39   59   24 1    
    40   60   24 1    
    41   61   24 1    
    42   26   25 ar   
    43   27   25 1    
    44   48   26 1    
    45   28   27 1    
    46   49   27 1    
    47   29   28 ar   
    48   33   28 ar   
    49   30   29 ar   
    50   31   30 ar   
    51   50   30 1    
    52   32   31 ar   
    53   51   31 1    
    54   33   32 ar   
    55   34   32 1    
    56   35   34 ar   
    57   39   34 ar   
    58   36   35 ar   
    59   52   35 1    
    60   37   36 ar   
    61   53   36 1    
    62   38   37 ar   
    63   54   37 1    
    64   39   38 ar   
    65   55   39 1    
@<TRIPOS>SUBSTRUCTURE
     1 NIL1        1 GROUP   
@<TRIPOS>SET

