#    Name: 3fc1_52P_1_INTS_M
#    Modification time : Tue Mar 25 03:32:08 2014

@<TRIPOS>MOLECULE
3fc1_52P_1_INTS_M
   78     0     6     0     0
SMALL
NO_CHARGES


@<TRIPOS>ATOM
      1 CA         36.2130   30.6955   32.3095 C.3       2 GLC5        0.0000 
      2 CA         36.8510   32.5670   31.2450 C.3       6 GLL5        0.0000 
      3 CA         35.5750   28.8240   33.3740 C.3       4 GLP5        0.0000 
      4 CA         35.2680   32.5480   31.7770 C.3       2 GLC5        0.0000 
      5 CA         33.6850   32.5290   32.3090 C.3       4 GLP5        0.0000 
      6 CA         36.3740   33.9155   30.0135 C.3       2 GLC5        0.0000 
      7 CA         35.8970   35.2640   28.7820 C.3       4 GLP5        0.0000 
      8 CA         37.6940   33.9010   31.9330 C.3       2 GLC5        0.0000 
      9 CA         38.5370   35.2350   32.6210 C.3       4 GLP5        0.0000 
     10 CA         37.0250   29.9175   32.6620 C.3       2 GLC5        0.0000 
     11 CA         38.4750   31.0110   31.9500 C.3       6 GLL5        0.0000 
     12 CA         42.4435   29.5480   28.3520 C.3       2 GLC5        0.0000 
     13 CA         41.9650   29.9150   30.2870 C.3       6 GLL5        0.0000 
     14 CA         42.9220   29.1810   26.4170 C.3       4 GLP5        0.0000 
     15 CA         40.6455   28.7105   29.4800 C.3       2 GLC5        0.0000 
     16 CA         39.3260   27.5060   28.6730 C.3       4 GLP5        0.0000 
     17 CA         43.1735   29.7880   31.9630 C.3       2 GLC5        0.0000 
     18 CA         44.3820   29.6610   33.6390 C.3       4 GLP5        0.0000 
     19 CA         44.0165   31.1945   28.1050 C.3       2 GLC5        0.0000 
     20 CA         44.5630   30.7640   30.0280 C.3       6 GLL5        0.0000 
     21 CA         43.4700   31.6250   26.1820 C.3       4 GLP5        0.0000 
     22 CA         43.8345   33.8960   29.7730 C.3       2 GLC5        0.0000 
     23 CA         45.3680   32.8640   30.8560 C.3       6 GLL5        0.0000 
     24 CA         42.3010   34.9280   28.6900 C.3       4 GLP5        0.0000 
     25 CA         49.9740   31.6455   33.6200 C.3       2 GLC5        0.0000 
     26 CA         48.2150   32.0250   32.8300 C.3       6 GLL5        0.0000 
     27 CA         51.7330   31.2660   34.4100 C.3       4 GLP5        0.0000 
     28 CA         47.4690   33.1405   34.2590 C.3       2 GLC5        0.0000 
     29 CA         46.7230   34.2560   35.6880 C.3       4 GLP5        0.0000 
     30 CA         46.9405   31.4195   34.1190 C.3       2 GLC5        0.0000 
     31 CA         45.6660   30.8140   35.4080 C.3       4 GLP5        0.0000 
     32 CA         50.8655   31.9380   32.6595 C.3       2 GLC5        0.0000 
     33 CA         49.9980   32.6100   30.9090 C.3       6 GLL5        0.0000 
     34 CA         47.4235   33.7270   27.1620 C.3       2 GLC5        0.0000 
     35 CA         47.1870   35.1850   28.4960 C.3       6 GLL5        0.0000 
     36 CA         47.6600   32.2690   25.8280 C.3       4 GLP5        0.0000 
     37 CA         46.1920   36.3380   28.2145 C.3       2 GLC5        0.0000 
     38 CA         45.1970   37.4910   27.9330 C.3       4 GLP5        0.0000 
     39 N          46.3355   37.1375   32.2260 N.am      1 SEC2        0.0000 
     40 N          46.8820   35.8740   31.9620 N.am      5 SEL2        0.0000 
     41 N          45.7890   38.4010   32.4900 N.am      3 SEP2        0.0000 
     42 N          47.6320   36.9665   31.8185 N.am      1 SEC2        0.0000 
     43 N          48.3820   38.0590   31.6750 N.am      3 SEP2        0.0000 
     44 N          45.2830   36.8035   32.3275 N.am      1 SEC2        0.0000 
     45 N          44.7770   35.2060   32.1650 N.am      5 SEL2        0.0000 
     46 CA         42.0685   31.8000   27.3750 C.3       2 GLC5        0.0000 
     47 CA         40.6670   31.9750   28.5680 C.3       6 GLL5        0.0000 
     48 CA         39.7655   32.9750   27.0795 C.3       2 GLC5        0.0000 
     49 CA         38.8640   33.9750   25.5910 C.3       4 GLP5        0.0000 
     50 CA         37.3230   33.7745   29.3425 C.3       2 GLC5        0.0000 
     51 CA         38.7490   32.2850   29.9030 C.3       6 GLL5        0.0000 
     52 CA         39.0695   33.0922   31.8320 C.3       2 GLC5        0.0000 
     53 CA         38.0210   31.9520   31.0380 C.3       6 GLL5        0.0000 
     54 CA         39.8910   34.7030   32.1700 C.3       4 GLP5        0.0000 
     55 CA         39.3145   31.5175   33.6607 C.3       2 GLC5        0.0000 
     56 CA         39.5460   32.3350   35.4890 C.3       4 GLP5        0.0000 
     57 CA         39.6935   29.0302   29.9102 C.3       2 GLC5        0.0000 
     58 CA         39.6910   30.3890   31.7150 C.3       6 GLL5        0.0000 
     59 CA         39.9760   32.6287   31.6588 C.3       2 GLC5        0.0000 
     60 CA         40.4310   30.7200   30.5800 C.3       6 GLL5        0.0000 
     61 CA         44.8034   30.8462   32.0610 C.3       2 GLC5        0.0000 
     62 CA         50.5858   34.1872   31.7650 C.3       2 GLC5        0.0000 
     63 CA         48.6950   32.8010   31.3550 C.3       6 GLL5        0.0000 
     64 CA         51.8250   35.6690   32.3980 C.3       4 GLP5        0.0000 
     65 CA         50.9110   34.6377   30.8845 C.3       2 GLC5        0.0000 
     66 CA         50.4300   33.2100   29.7390 C.3       6 GLL5        0.0000 
     67 CA         48.2865   33.1837   27.5235 C.3       2 GLC5        0.0000 
     68 CA         49.5640   34.0030   29.0030 C.3       6 GLL5        0.0000 
     69 CA         48.6063   36.4333   29.8402 C.3       2 GLC5        0.0000 
     70 CA         48.2620   34.1940   29.4350 C.3       6 GLL5        0.0000 
     71 CA         49.4880   38.1770   30.7150 C.3       4 GLP5        0.0000 
     72 CA         41.3065   33.3738   28.9043 C.3       2 GLC5        0.0000 
     73 CA         39.6220   33.3388   30.9780 C.3       2 GLC5        0.0000 
     74 CA         39.9570   31.6640   29.6690 C.3       6 GLL5        0.0000 
     75 CA         39.1637   30.7736   28.3639 C.3       2 GLC5        0.0000 
     76 CA         38.7970   29.4950   27.2170 C.3       4 GLP5        0.0000 
     77 CA         36.5602   31.4711   29.7871 C.3       2 GLC5        0.0000 
     78 CA         35.0280   30.6700   29.0520 C.3       4 GLP5        0.0000 
@<TRIPOS>BOND
@<TRIPOS>SUBSTRUCTURE
     1 SEC2       39 GROUP        1 X    SEC  0     ROOT SEC X 2
     2 GLC5        1 GROUP        1 X    GLC  0     **** GLC X 6
     3 SEP2       41 GROUP        1 Y    SEP  0     ROOT SEP Y 9
     4 GLP5        3 GROUP        1 Y    GLP  0     **** GLP Y 13
     5 SEL2       40 GROUP        1 Z    SEL  0     ROOT SEL Z 16
     6 GLL5        2 GROUP        1 Z    GLL  0     **** GLL Z 20
@<TRIPOS>SET

