#    Name: 3fc1_52P_1_ligand
#    Modification time : Tue Mar 25 03:32:08 2014

@<TRIPOS>MOLECULE
3fc1_52P_1_ligand
   37    40     1     0     0
SMALL
NO_CHARGES


@<TRIPOS>ATOM
      1 F1         36.8510   32.5670   31.2450 F         1 52P362      0.0000 
      2 C2         38.0210   31.9520   31.0380 C.ar      1 52P362      0.0000 
      3 C3         38.4750   31.0110   31.9500 C.ar      1 52P362      0.0000 
      4 C4         39.6910   30.3890   31.7150 C.ar      1 52P362      0.0000 
      5 C5         40.4310   30.7200   30.5800 C.ar      1 52P362      0.0000 
      6 S6         41.9650   29.9150   30.2870 S.3       1 52P362      0.0000 
      7 C7         43.2720   31.0880   30.5140 C.2       1 52P362      0.0000 
      8 C8         44.5630   30.7640   30.0280 C.2       1 52P362      0.0000 
      9 C9         45.6000   31.6340   30.1920 C.2       1 52P362      0.0000 
     10 C10        45.3680   32.8640   30.8560 C.2       1 52P362      0.0000 
     11 C11        46.3990   33.8150   31.0630 C.2       1 52P362      0.0000 
     12 C12        47.8010   33.5940   30.6130 C.ar      1 52P362      0.0000 
     13 C13        48.6950   32.8010   31.3550 C.ar      1 52P362      0.0000 
     14 CL14       48.2150   32.0250   32.8300 Cl        1 52P362      0.0000 
     15 C15        49.9980   32.6100   30.9090 C.ar      1 52P362      0.0000 
     16 C16        50.4300   33.2100   29.7390 C.ar      1 52P362      0.0000 
     17 C17        49.5640   34.0030   29.0030 C.ar      1 52P362      0.0000 
     18 C18        48.2620   34.1940   29.4350 C.ar      1 52P362      0.0000 
     19 CL19       47.1870   35.1850   28.4960 Cl        1 52P362      0.0000 
     20 C20        46.0390   35.0120   31.7480 C.2       1 52P362      0.0000 
     21 O21        46.8820   35.8740   31.9620 O.2       1 52P362      0.0000 
     22 N22        44.7770   35.2060   32.1650 N.2       1 52P362      0.0000 
     23 C23        43.8430   34.3200   31.9640 C.2       1 52P362      0.0000 
     24 N24        44.0970   33.1500   31.3200 N.pl3     1 52P362      0.0000 
     25 N25        43.0560   32.2300   31.1330 N.2       1 52P362      0.0000 
     26 C26        39.9570   31.6640   29.6690 C.ar      1 52P362      0.0000 
     27 F27        40.6670   31.9750   28.5680 F         1 52P362      0.0000 
     28 C28        38.7490   32.2850   29.9030 C.ar      1 52P362      0.0000 
     29 H          37.9241   30.7813   32.7779 H         1 52P362      0.0000 
     30 H          40.0496   29.6860   32.3722 H         1 52P362      0.0000 
     31 H          44.6948   29.8592   29.5508 H         1 52P362      0.0000 
     32 H          46.5401   31.4246   29.8498 H         1 52P362      0.0000 
     33 H          50.6431   32.0183   31.4543 H         1 52P362      0.0000 
     34 H          51.3979   33.0672   29.4136 H         1 52P362      0.0000 
     35 H          49.8893   34.4507   28.1339 H         1 52P362      0.0000 
     36 H          42.8537   34.4924   32.3012 H         1 52P362      0.0000 
     37 H          38.3869   32.9870   29.2481 H         1 52P362      0.0000 
@<TRIPOS>BOND
     1    2    1 1    
     2    3    2 ar   
     3   28    2 ar   
     4    4    3 ar   
     5   29    3 1    
     6    5    4 ar   
     7   30    4 1    
     8    6    5 1    
     9   26    5 ar   
    10    7    6 1    
    11    8    7 1    
    12   25    7 2    
    13    9    8 2    
    14   31    8 1    
    15   10    9 1    
    16   32    9 1    
    17   11   10 2    
    18   24   10 1    
    19   12   11 1    
    20   20   11 1    
    21   13   12 ar   
    22   18   12 ar   
    23   14   13 1    
    24   15   13 ar   
    25   16   15 ar   
    26   33   15 1    
    27   17   16 ar   
    28   34   16 1    
    29   18   17 ar   
    30   35   17 1    
    31   19   18 1    
    32   21   20 2    
    33   22   20 1    
    34   23   22 2    
    35   24   23 1    
    36   36   23 1    
    37   25   24 1    
    38   27   26 1    
    39   28   26 ar   
    40   37   28 1    
@<TRIPOS>SUBSTRUCTURE
     1 52P362      1 GROUP   
@<TRIPOS>SET

