#    Name: 2gtk_208_1_INTS_M
#    Modification time : Tue Mar 25 15:06:36 2014

@<TRIPOS>MOLECULE
2gtk_208_1_INTS_M
   87     0     6     0     0
SMALL
NO_CHARGES


@<TRIPOS>ATOM
      1 CA          0.2005   29.3205   13.9585 C.3       2 GLC5        0.0000 
      2 CA          0.2960   28.7680   15.4750 C.3       6 GLL5        0.0000 
      3 CA          0.1050   29.8730   12.4420 C.3       4 GLP5        0.0000 
      4 CA          0.5105   30.7575   15.1225 C.3       2 GLC5        0.0000 
      5 CA          0.7250   32.7470   14.7700 C.3       4 GLP5        0.0000 
      6 CA         -1.2475   26.5290   15.5725 C.3       2 GLC5        0.0000 
      7 CA         -0.1200   27.8040   16.5870 C.3       6 GLL5        0.0000 
      8 CA         -2.3750   25.2540   14.5580 C.3       4 GLP5        0.0000 
      9 N          -1.6900   25.7665   20.3830 N.am      1 SEC2        0.0000 
     10 N          -2.1170   26.9220   19.9260 N.am      5 SEL2        0.0000 
     11 N          -1.2630   24.6110   20.8400 N.am      3 SEP2        0.0000 
     12 N          -2.4385   27.2795   21.2025 N.am      1 SEC2        0.0000 
     13 N          -2.7600   27.6370   22.4790 N.am      3 SEP2        0.0000 
     14 N          -0.9210   30.0415   19.1140 N.am      1 SEC2        0.0000 
     15 N          -1.7210   29.0300   19.3250 N.am      5 SEL2        0.0000 
     16 N          -0.1210   31.0530   18.9030 N.am      3 SEP2        0.0000 
     17 N          -2.3520   29.6890   20.2190 N.am      1 SEC2        0.0000 
     18 N          -2.9830   30.3480   21.1130 N.am      3 SEP2        0.0000 
     19 CA         -0.3480   27.7775   21.6290 C.3       2 GLC5        0.0000 
     20 CA          0.9770   27.4680   20.0680 C.3       6 GLL5        0.0000 
     21 CA         -1.6730   28.0870   23.1900 C.3       4 GLP5        0.0000 
     22 CA          1.8965   28.3295   21.5725 C.3       2 GLC5        0.0000 
     23 CA          2.8160   29.1910   23.0770 C.3       4 GLP5        0.0000 
     24 CA          2.9410   26.2960   17.2155 C.3       2 GLC5        0.0000 
     25 CA          3.2640   27.2670   19.0130 C.3       6 GLL5        0.0000 
     26 CA          2.6180   25.3250   15.4180 C.3       4 GLP5        0.0000 
     27 CA          1.7510   22.8750   20.3920 C.3       2 GLC5        0.0000 
     28 CA          3.9450   23.3650   20.3950 C.3       6 GLL5        0.0000 
     29 CA         -0.4430   22.3850   20.3890 C.3       4 GLP5        0.0000 
     30 CA          7.4275   24.3255   20.4560 C.3       2 GLC5        0.0000 
     31 CA          6.9290   24.5960   18.5960 C.3       6 GLL5        0.0000 
     32 CA          7.9260   24.0550   22.3160 C.3       4 GLP5        0.0000 
     33 CA          7.4190   26.6425   18.8470 C.3       2 GLC5        0.0000 
     34 CA          7.9090   28.6890   19.0980 C.3       4 GLP5        0.0000 
     35 CA          8.6175   27.3785   14.5820 C.3       2 GLC5        0.0000 
     36 CA          7.6300   26.3670   15.8900 C.3       6 GLL5        0.0000 
     37 CA          9.6050   28.3900   13.2740 C.3       4 GLP5        0.0000 
     38 CA          7.8145   28.1850   16.2735 C.3       2 GLC5        0.0000 
     39 CA          7.9990   30.0030   16.6570 C.3       4 GLP5        0.0000 
     40 CA          8.0720   21.7255   15.4630 C.3       2 GLC5        0.0000 
     41 CA          6.1750   21.8420   14.4770 C.3       6 GLL5        0.0000 
     42 CA          9.9690   21.6090   16.4490 C.3       4 GLP5        0.0000 
     43 CA          6.7975   24.9415   11.8345 C.3       2 GLC5        0.0000 
     44 CA          7.0720   23.2420   12.2750 C.3       6 GLL5        0.0000 
     45 CA          6.5230   26.6410   11.3940 C.3       4 GLP5        0.0000 
     46 CA          8.9225   23.5435   11.8280 C.3       2 GLC5        0.0000 
     47 CA         10.7730   23.8450   11.3810 C.3       4 GLP5        0.0000 
     48 CA          4.2465   20.3750   16.7310 C.3       2 GLC5        0.0000 
     49 CA          5.6210   20.6950   15.0690 C.3       6 GLL5        0.0000 
     50 CA          2.8720   20.0550   18.3930 C.3       4 GLP5        0.0000 
     51 CA          7.7575   20.3890   15.6470 C.3       2 GLC5        0.0000 
     52 CA          9.8940   20.0830   16.2250 C.3       4 GLP5        0.0000 
     53 CA          1.3530   26.8055   15.7245 C.3       2 GLC5        0.0000 
     54 CA         -0.2068   25.5838   19.6448 C.3       2 GLC5        0.0000 
     55 CA         -0.0240   27.4050   18.9110 C.3       6 GLL5        0.0000 
     56 CA         -0.8900   23.7310   19.8000 C.3       4 GLP5        0.0000 
     57 CA          0.6942   24.8850   19.9080 C.3       2 GLC5        0.0000 
     58 CA          2.3360   25.3940   20.2620 C.3       6 GLL5        0.0000 
     59 CA          5.3323   28.1852   18.3993 C.3       2 GLC5        0.0000 
     60 CA          6.8140   29.4500   17.9130 C.3       4 GLP5        0.0000 
     61 CA          2.7053   25.1985   22.1625 C.3       2 GLC5        0.0000 
     62 CA          3.5190   24.6780   20.0120 C.3       6 GLL5        0.0000 
     63 CA          2.4830   25.3610   24.1880 C.3       4 GLP5        0.0000 
     64 CA          4.1630   21.6415   19.9065 C.3       2 GLC5        0.0000 
     65 CA          5.2050   23.1970   19.9190 C.3       6 GLL5        0.0000 
     66 CA          3.7510   20.0020   19.6560 C.3       4 GLP5        0.0000 
     67 CA          6.2505   23.6680   21.2365 C.3       2 GLC5        0.0000 
     68 CA          4.4052   25.9222   17.1065 C.3       2 GLC5        0.0000 
     69 CA          4.5360   25.2810   19.2860 C.3       6 GLL5        0.0000 
     70 CA          4.3240   25.9170   15.1910 C.3       4 GLP5        0.0000 
     71 CA          5.6311   26.1134   20.6468 C.3       2 GLC5        0.0000 
     72 CA          4.4370   26.5740   18.7580 C.3       6 GLL5        0.0000 
     73 CA          7.0300   26.4500   22.0900 C.3       4 GLP5        0.0000 
     74 CA          5.6117   25.1685   16.5303 C.3       2 GLC5        0.0000 
     75 CA          8.4905   23.1040   16.5200 C.3       2 GLC5        0.0000 
     76 CA          7.1540   24.9540   16.0390 C.3       6 GLL5        0.0000 
     77 CA          5.8580   25.7888   15.5778 C.3       2 GLC5        0.0000 
     78 CA          4.1830   22.5288   15.0775 C.3       2 GLC5        0.0000 
     79 CA          2.4680   23.7890   15.3820 C.3       4 GLP5        0.0000 
     80 CA          4.2017   21.5542   12.4057 C.3       2 GLC5        0.0000 
     81 CA          6.3860   21.8500   13.0830 C.3       6 GLL5        0.0000 
     82 CA          2.1830   21.8170   12.1130 C.3       4 GLP5        0.0000 
     83 CA          8.2003   20.5898   13.1702 C.3       2 GLC5        0.0000 
     84 CA          6.0550   20.7330   12.3140 C.3       6 GLL5        0.0000 
     85 CA         10.1800   19.8880   13.6420 C.3       4 GLP5        0.0000 
     86 CA          3.7925   20.7080   12.8610 C.3       2 GLC5        0.0000 
     87 CA          5.5110   19.6080   12.9190 C.3       6 GLL5        0.0000 
@<TRIPOS>BOND
@<TRIPOS>SUBSTRUCTURE
     1 SEC2        9 GROUP        1 X    SEC  0     ROOT SEC X 2
     2 GLC5        1 GROUP        1 X    GLC  0     **** GLC X 6
     3 SEP2       11 GROUP        1 Y    SEP  0     ROOT SEP Y 9
     4 GLP5        3 GROUP        1 Y    GLP  0     **** GLP Y 13
     5 SEL2       10 GROUP        1 Z    SEL  0     ROOT SEL Z 16
     6 GLL5        2 GROUP        1 Z    GLL  0     **** GLL Z 20
@<TRIPOS>SET

