#    Name: 2gtk_208_1_ligand
#    Modification time : Tue Mar 25 15:06:36 2014

@<TRIPOS>MOLECULE
2gtk_208_1_ligand
   53    56     1     0     0
SMALL
NO_CHARGES


@<TRIPOS>ATOM
      1 C30         0.2960   28.7680   15.4750 C.3       1 2081001     0.0000 
      2 C28        -0.1200   27.8040   16.5870 C.3       1 2081001     0.0000 
      3 O25         0.3980   28.2430   17.8380 O.3       1 2081001     0.0000 
      4 C15        -0.0240   27.4050   18.9110 C.3       1 2081001     0.0000 
      5 C13        -1.3820   27.8110   19.4020 C.2       1 2081001     0.0000 
      6 O22        -2.1170   26.9220   19.9260 O.co2     1 2081001     0.0000 
      7 O20        -1.7210   29.0300   19.3250 O.co2     1 2081001     0.0000 
      8 C19         0.9770   27.4680   20.0680 C.3       1 2081001     0.0000 
      9 C18         2.2210   26.6840   19.7700 C.ar      1 2081001     0.0000 
     10 C21         3.2640   27.2670   19.0130 C.ar      1 2081001     0.0000 
     11 C17         2.3360   25.3940   20.2620 C.ar      1 2081001     0.0000 
     12 C11         3.5190   24.6780   20.0120 C.ar      1 2081001     0.0000 
     13 C12         3.9450   23.3650   20.3950 C.2       1 2081001     0.0000 
     14 C10         5.2050   23.1970   19.9190 C.2       1 2081001     0.0000 
     15 C8          4.5360   25.2810   19.2860 C.ar      1 2081001     0.0000 
     16 C14         4.4370   26.5740   18.7580 C.ar      1 2081001     0.0000 
     17 N4          5.6220   24.3690   19.2270 N.pl3     1 2081001     0.0000 
     18 C9          6.9290   24.5960   18.5960 C.3       1 2081001     0.0000 
     19 C3          6.8700   24.2440   17.1430 C.2       1 2081001     0.0000 
     20 C7          7.1540   24.9540   16.0390 C.2       1 2081001     0.0000 
     21 C26         7.6300   26.3670   15.8900 C.3       1 2081001     0.0000 
     22 O5          6.9430   24.1820   14.9140 O.3       1 2081001     0.0000 
     23 N2          6.4580   22.9710   16.6950 N.2       1 2081001     0.0000 
     24 C1          6.5170   22.9690   15.3210 C.2       1 2081001     0.0000 
     25 C6          6.1750   21.8420   14.4770 C.ar      1 2081001     0.0000 
     26 C16         6.3860   21.8500   13.0830 C.ar      1 2081001     0.0000 
     27 CL23        7.0720   23.2420   12.2750 Cl        1 2081001     0.0000 
     28 C27         6.0550   20.7330   12.3140 C.ar      1 2081001     0.0000 
     29 C31         5.5110   19.6080   12.9190 C.ar      1 2081001     0.0000 
     30 C29         5.2930   19.5900   14.2990 C.ar      1 2081001     0.0000 
     31 C24         5.6210   20.6950   15.0690 C.ar      1 2081001     0.0000 
     32 H           0.2521   26.8060   16.3178 H         1 2081001     0.0000 
     33 H          -1.2176   27.7572   16.5925 H         1 2081001     0.0000 
     34 H          -0.0774   26.3637   18.5903 H         1 2081001     0.0000 
     35 H           0.4955   27.0739   20.9695 H         1 2081001     0.0000 
     36 H           1.2332   28.5169   20.2527 H         1 2081001     0.0000 
     37 H           3.1375   28.2255   18.6497 H         1 2081001     0.0000 
     38 H           1.5828   24.9647   20.7956 H         1 2081001     0.0000 
     39 H           3.4155   22.7626   20.8865 H         1 2081001     0.0000 
     40 H           5.7611   22.4203   20.0148 H         1 2081001     0.0000 
     41 H           5.1859   26.9752   18.2197 H         1 2081001     0.0000 
     42 H           7.6967   23.9835   19.0833 H         1 2081001     0.0000 
     43 H           7.2225   25.6472   18.6995 H         1 2081001     0.0000 
     44 H           6.2156   20.7467   11.2984 H         1 2081001     0.0000 
     45 H           5.2667   18.7843   12.3537 H         1 2081001     0.0000 
     46 H           4.8883   18.7533   14.7395 H         1 2081001     0.0000 
     47 H           5.4597   20.6828   16.0877 H         1 2081001     0.0000 
     48 H           1.2905   28.8302   15.3902 H         1 2081001     0.0000 
     49 H          -0.0568   28.4818   14.5841 H         1 2081001     0.0000 
     50 H          -0.0426   29.6943   15.6405 H         1 2081001     0.0000 
     51 H           8.5072   26.5135   16.3472 H         1 2081001     0.0000 
     52 H           7.7543   26.6177   14.9300 H         1 2081001     0.0000 
     53 H           6.9824   27.0204   16.2821 H         1 2081001     0.0000 
@<TRIPOS>BOND
     1    2    1 1    
     2   48    1 1    
     3   49    1 1    
     4   50    1 1    
     5    3    2 1    
     6   32    2 1    
     7   33    2 1    
     8    4    3 1    
     9    5    4 1    
    10    8    4 1    
    11   34    4 1    
    12    6    5 ar   
    13    7    5 ar   
    14    9    8 1    
    15   35    8 1    
    16   36    8 1    
    17   10    9 ar   
    18   11    9 ar   
    19   16   10 ar   
    20   37   10 1    
    21   12   11 ar   
    22   38   11 1    
    23   13   12 1    
    24   15   12 ar   
    25   14   13 2    
    26   39   13 1    
    27   17   14 1    
    28   40   14 1    
    29   16   15 ar   
    30   17   15 1    
    31   41   16 1    
    32   18   17 1    
    33   19   18 1    
    34   42   18 1    
    35   43   18 1    
    36   20   19 2    
    37   23   19 1    
    38   21   20 1    
    39   22   20 1    
    40   51   21 1    
    41   52   21 1    
    42   53   21 1    
    43   24   22 1    
    44   24   23 2    
    45   25   24 1    
    46   26   25 ar   
    47   31   25 ar   
    48   27   26 1    
    49   28   26 ar   
    50   29   28 ar   
    51   44   28 1    
    52   30   29 ar   
    53   45   29 1    
    54   31   30 ar   
    55   46   30 1    
    56   47   31 1    
@<TRIPOS>SUBSTRUCTURE
     1 2081001     1 GROUP   
@<TRIPOS>SET

