#    Name: 4jem_C5P_2_INTS_M
#    Modification time : Tue Mar 25 05:50:45 2014

@<TRIPOS>MOLECULE
4jem_C5P_2_INTS_M
   45     0     9     0     0
SMALL
NO_CHARGES


@<TRIPOS>ATOM
      1 N          12.3595   17.1845   20.4285 N.am      2 SEC2        0.0000 
      2 N          13.5920   17.8510   20.6210 N.am      8 SEL2        0.0000 
      3 N          11.1270   16.5180   20.2360 N.am      5 SEP2        0.0000 
      4 N          15.5835   20.8835   20.7665 N.am      2 SEC2        0.0000 
      5 N          14.4680   20.1210   21.3010 N.am      8 SEL2        0.0000 
      6 N          16.6990   21.6460   20.2320 N.am      5 SEP2        0.0000 
      7 N          14.1285   21.1180   18.6810 N.am      2 SEC2        0.0000 
      8 N          13.7660   19.6640   18.8770 N.am      8 SEL2        0.0000 
      9 N          14.4910   22.5720   18.4850 N.am      5 SEP2        0.0000 
     10 N          12.7250   19.3820   18.2330 N.am      2 SEC2        0.0000 
     11 N          11.6840   19.1000   17.5890 N.am      5 SEP2        0.0000 
     12 CA         13.0215   22.3030   20.7180 C.3       3 GLC5        0.0000 
     13 CA         11.6680   21.1180   20.6340 C.3       9 GLL5        0.0000 
     14 CA         14.3750   23.4880   20.8020 C.3       6 GLP5        0.0000 
     15 CA          9.1130   20.0215   19.6725 C.3       3 GLC5        0.0000 
     16 CA         10.2180   21.3030   20.9800 C.3       9 GLL5        0.0000 
     17 CA          8.0080   18.7400   18.3650 C.3       6 GLP5        0.0000 
     18 N           8.6760   23.4625   18.7935 N.am      2 SEC2        0.0000 
     19 N           8.6230   22.9820   20.2010 N.am      8 SEL2        0.0000 
     20 N           8.7290   23.9430   17.3860 N.am      5 SEP2        0.0000 
     21 O           7.6580   22.0910   20.4425 O.2       1 ALC1        0.0000 
     22 O           8.6230   22.9820   20.2010 O.2       7 ALL1        0.0000 
     23 O           6.6930   21.2000   20.6840 O.2       4 ALP1        0.0000 
     24 CA          9.7190   24.6185   23.4195 C.3       3 GLC5        0.0000 
     25 CA          9.5100   23.0700   22.5320 C.3       9 GLL5        0.0000 
     26 CA          9.9280   26.1670   24.3070 C.3       6 GLP5        0.0000 
     27 O           7.4215   22.3135   21.7335 O.2       1 ALC1        0.0000 
     28 O           8.1500   23.4270   22.7830 O.2       7 ALL1        0.0000 
     29 O           7.3840   22.4560   22.8250 O.2       1 ALC1        0.0000 
     30 O           6.6180   21.4850   22.8670 O.2       4 ALP1        0.0000 
     31 CA          8.9450   20.0645   23.7860 C.3       3 GLC5        0.0000 
     32 CA          9.8350   21.7480   23.2540 C.3       9 GLL5        0.0000 
     33 CA          8.0550   18.3810   24.3180 C.3       6 GLP5        0.0000 
     34 CA         13.7820   19.5560   25.8055 C.3       3 GLC5        0.0000 
     35 CA         13.5320   21.2910   24.6060 C.3       9 GLL5        0.0000 
     36 CA         14.0320   17.8210   27.0050 C.3       6 GLP5        0.0000 
     37 CA         11.0820   19.9375   24.8990 C.3       3 GLC5        0.0000 
     38 CA         12.3420   21.0900   23.7780 C.3       9 GLL5        0.0000 
     39 CA          9.8220   18.7850   26.0200 C.3       6 GLP5        0.0000 
     40 O          14.3645   23.8085   27.1540 O.2       1 ALC1        0.0000 
     41 O          14.5950   22.4990   26.5200 O.2       7 ALL1        0.0000 
     42 O          14.1340   25.1180   27.7880 O.2       4 ALP1        0.0000 
     43 CA         10.5450   19.1938   20.9425 C.3       3 GLC5        0.0000 
     44 CA         10.1470   17.1770   21.0780 C.3       6 GLP5        0.0000 
     45 CA         13.6560   22.3392   22.4970 C.3       3 GLC5        0.0000 
@<TRIPOS>BOND
@<TRIPOS>SUBSTRUCTURE
     1 ALC1       21 GROUP        1 X    ALC  0     ROOT ALC X 1
     2 SEC2        1 GROUP        1 X    SEC  0     **** SEC X 2
     3 GLC5       12 GROUP        1 X    GLC  0     **** GLC X 6
     4 ALP1       23 GROUP        1 Y    ALP  0     ROOT ALP Y 8
     5 SEP2        3 GROUP        1 Y    SEP  0     **** SEP Y 9
     6 GLP5       14 GROUP        1 Y    GLP  0     **** GLP Y 13
     7 ALL1       22 GROUP        1 Z    ALL  0     ROOT ALL Z 15
     8 SEL2        2 GROUP        1 Z    SEL  0     **** SEL Z 16
     9 GLL5       13 GROUP        1 Z    GLL  0     **** GLL Z 20
@<TRIPOS>SET

