#    Name: 4jem_C5P_2_ligand
#    Modification time : Tue Mar 25 05:50:45 2014

@<TRIPOS>MOLECULE
4jem_C5P_2_ligand
   33    34     1     0     0
SMALL
NO_CHARGES


@<TRIPOS>ATOM
      1 O3P        13.5920   17.8510   20.6210 O.co2     1 C5P201      0.0000 
      2 P          13.5730   19.3650   20.3640 P.3       1 C5P201      0.0000 
      3 O1P        14.4680   20.1210   21.3010 O.co2     1 C5P201      0.0000 
      4 O2P        13.7660   19.6640   18.8770 O.co2     1 C5P201      0.0000 
      5 O5'        12.0620   19.7630   20.6910 O.3       1 C5P201      0.0000 
      6 C5'        11.6680   21.1180   20.6340 C.3       1 C5P201      0.0000 
      7 C4'        10.2180   21.3030   20.9800 C.3       1 C5P201      0.0000 
      8 O4'         9.9290   20.7350   22.2850 O.3       1 C5P201      0.0000 
      9 C3'         9.7420   22.7590   21.0380 C.3       1 C5P201      0.0000 
     10 O3'         8.6230   22.9820   20.2010 O.3       1 C5P201      0.0000 
     11 C2'         9.5100   23.0700   22.5320 C.3       1 C5P201      0.0000 
     12 O2'         8.1500   23.4270   22.7830 O.3       1 C5P201      0.0000 
     13 C1'         9.8350   21.7480   23.2540 C.3       1 C5P201      0.0000 
     14 N1         11.1250   21.8130   24.0020 N.am      1 C5P201      0.0000 
     15 C2         11.1050   22.7760   25.1160 C.2       1 C5P201      0.0000 
     16 N3         12.2630   22.9800   25.9320 N.2       1 C5P201      0.0000 
     17 C4         13.4680   22.2590   25.7000 C.2       1 C5P201      0.0000 
     18 C5         13.5320   21.2910   24.6060 C.2       1 C5P201      0.0000 
     19 C6         12.3420   21.0900   23.7780 C.2       1 C5P201      0.0000 
     20 O2         10.1320   23.4350   25.4430 O.2       1 C5P201      0.0000 
     21 N4         14.5950   22.4990   26.5200 N.pl3     1 C5P201      0.0000 
     22 H          11.8339   21.5468   19.6226 H         1 C5P201      0.0000 
     23 H          12.2664   21.7444   21.3296 H         1 C5P201      0.0000 
     24 H           9.5999   20.7906   20.2365 H         1 C5P201      0.0000 
     25 H          10.6095   23.3674   20.7311 H         1 C5P201      0.0000 
     26 H          10.2105   23.7946   22.8385 H         1 C5P201      0.0000 
     27 H           9.0302   21.5470   23.9464 H         1 C5P201      0.0000 
     28 H          14.3656   20.7800   24.4279 H         1 C5P201      0.0000 
     29 H          12.3936   20.4065   23.0157 H         1 C5P201      0.0000 
     30 H          15.4021   21.9389   26.3335 H         1 C5P201      0.0000 
     31 H          14.4891   23.2085   27.2167 H         1 C5P201      0.0000 
     32 H           7.9710   22.2638   20.4440 H         1 C5P201      0.0000 
     33 H           7.6091   22.7053   22.3511 H         1 C5P201      0.0000 
@<TRIPOS>BOND
     1    2    1 ar   
     2    3    2 ar   
     3    4    2 ar   
     4    5    2 1    
     5    6    5 1    
     6    7    6 1    
     7   22    6 1    
     8   23    6 1    
     9    8    7 1    
    10    9    7 1    
    11   24    7 1    
    12   13    8 1    
    13   10    9 1    
    14   11    9 1    
    15   25    9 1    
    16   32   10 1    
    17   12   11 1    
    18   13   11 1    
    19   26   11 1    
    20   33   12 1    
    21   14   13 1    
    22   27   13 1    
    23   15   14 am   
    24   19   14 1    
    25   16   15 1    
    26   20   15 2    
    27   17   16 2    
    28   18   17 1    
    29   21   17 1    
    30   19   18 2    
    31   28   18 1    
    32   29   19 1    
    33   30   21 1    
    34   31   21 1    
@<TRIPOS>SUBSTRUCTURE
     1 C5P201      1 GROUP   
@<TRIPOS>SET

