#    Name: 2oa1_FAD_2_INTS_M
#    Modification time : Tue Mar 25 22:05:15 2014

@<TRIPOS>MOLECULE
2oa1_FAD_2_INTS_M
  107     0     9     0     0
SMALL
NO_CHARGES


@<TRIPOS>ATOM
      1 CA        -22.7820   36.6430   14.9485 C.3       3 GLC5        0.0000 
      2 CA        -22.3690   35.4280   16.6110 C.3       9 GLL5        0.0000 
      3 CA        -23.1950   37.8580   13.2860 C.3       6 GLP5        0.0000 
      4 N         -19.3935   33.9195   19.0830 N.am      2 SEC2        0.0000 
      5 N         -20.6990   33.9830   19.5620 N.am      8 SEL2        0.0000 
      6 N         -18.0880   33.8560   18.6040 N.am      5 SEP2        0.0000 
      7 N         -20.7620   35.8905   22.5615 N.am      2 SEC2        0.0000 
      8 N         -21.8540   35.6770   21.2630 N.am      8 SEL2        0.0000 
      9 N         -19.6700   36.1040   23.8600 N.am      5 SEP2        0.0000 
     10 O         -23.3380   35.0330   21.5965 O.2       1 ALC1        0.0000 
     11 O         -21.8540   35.6770   21.2630 O.2       7 ALL1        0.0000 
     12 O         -24.8220   34.3890   21.9300 O.2       4 ALP1        0.0000 
     13 CA        -19.3760   36.5325   18.7150 C.3       3 GLC5        0.0000 
     14 CA        -20.9220   36.8760   19.3470 C.3       9 GLL5        0.0000 
     15 CA        -17.8300   36.1890   18.0830 C.3       6 GLP5        0.0000 
     16 CA        -20.6715   37.9245   17.5080 C.3       3 GLC5        0.0000 
     17 CA        -20.4210   38.9730   15.6690 C.3       6 GLP5        0.0000 
     18 CA        -21.2200   41.1800   24.0320 C.3       3 GLC5        0.0000 
     19 CA        -20.6410   40.9600   21.9770 C.3       9 GLL5        0.0000 
     20 CA        -21.7990   41.4000   26.0870 C.3       6 GLP5        0.0000 
     21 CA        -19.2565   42.2590   22.4770 C.3       3 GLC5        0.0000 
     22 CA        -17.8720   43.5580   22.9770 C.3       6 GLP5        0.0000 
     23 O         -20.8025   43.2940   23.3985 O.2       1 ALC1        0.0000 
     24 O         -21.3160   42.0790   22.3020 O.2       7 ALL1        0.0000 
     25 O         -20.2890   44.5090   24.4950 O.2       4 ALP1        0.0000 
     26 N         -19.1475   41.2810   23.8430 N.am      2 SEC2        0.0000 
     27 N         -19.6820   40.4900   22.8340 N.am      8 SEL2        0.0000 
     28 N         -18.6130   42.0720   24.8520 N.am      5 SEP2        0.0000 
     29 CA        -17.9940   39.8695   20.9010 C.3       3 GLC5        0.0000 
     30 CA        -19.1690   39.2130   22.7000 C.3       9 GLL5        0.0000 
     31 CA        -16.8190   40.5260   19.1020 C.3       6 GLP5        0.0000 
     32 CA        -18.3850   37.3785   22.7250 C.3       3 GLC5        0.0000 
     33 CA        -17.6010   35.5440   22.7500 C.3       6 GLP5        0.0000 
     34 CA        -20.3450   38.2955   23.7690 C.3       3 GLC5        0.0000 
     35 CA        -21.5210   37.3780   24.8380 C.3       6 GLP5        0.0000 
     36 CA        -19.3230   39.7905   24.5585 C.3       3 GLC5        0.0000 
     37 CA        -19.4770   40.3680   26.4170 C.3       6 GLP5        0.0000 
     38 CA        -17.9800   40.8925   22.6285 C.3       3 GLC5        0.0000 
     39 CA        -16.7910   42.5720   22.5570 C.3       6 GLP5        0.0000 
     40 N         -19.6500   37.2495   22.7725 N.am      2 SEC2        0.0000 
     41 N         -19.6300   38.3950   21.6850 N.am      8 SEL2        0.0000 
     42 CA        -18.6970   39.6825   19.9620 C.3       3 GLC5        0.0000 
     43 CA        -20.5750   38.8390   20.8220 C.3       9 GLL5        0.0000 
     44 CA        -21.0480   38.1085   22.8300 C.3       3 GLC5        0.0000 
     45 N         -23.2815   28.1920    5.3135 N.am      2 SEC2        0.0000 
     46 N         -24.9090   27.7600    5.7770 N.am      8 SEL2        0.0000 
     47 N         -21.6540   28.6240    4.8500 N.am      5 SEP2        0.0000 
     48 N         -22.5925   27.5035    4.6910 N.am      2 SEC2        0.0000 
     49 N         -23.5310   26.3830    4.5320 N.am      8 SEL2        0.0000 
     50 O         -25.1295   24.7710    4.1670 O.2       1 ALC1        0.0000 
     51 O         -25.7250   25.8000    4.6970 O.2       7 ALL1        0.0000 
     52 O         -24.5340   23.7420    3.6370 O.2       4 ALP1        0.0000 
     53 N         -27.1445   23.8810    5.0035 N.am      2 SEC2        0.0000 
     54 N         -27.8870   25.2080    4.8430 N.am      8 SEL2        0.0000 
     55 N         -26.4020   22.5540    5.1640 N.am      5 SEP2        0.0000 
     56 CA        -29.1850   28.4580    5.3440 C.3       3 GLC5        0.0000 
     57 CA        -28.7490   28.5820    7.2530 C.3       9 GLL5        0.0000 
     58 CA        -29.6210   28.3340    3.4350 C.3       6 GLP5        0.0000 
     59 CA        -30.5340   28.7655    5.8295 C.3       3 GLC5        0.0000 
     60 CA        -30.0260   28.8510    7.7240 C.3       9 GLL5        0.0000 
     61 CA        -31.0420   28.6800    3.9350 C.3       6 GLP5        0.0000 
     62 CA        -33.9030   30.8305    8.4675 C.3       3 GLC5        0.0000 
     63 CA        -31.7010   30.4240    8.6390 C.3       9 GLL5        0.0000 
     64 CA        -36.1050   31.2370    8.2960 C.3       6 GLP5        0.0000 
     65 CA        -32.5965   28.8345    8.3180 C.3       3 GLC5        0.0000 
     66 CA        -33.4920   27.2450    7.9970 C.3       6 GLP5        0.0000 
     67 CA        -32.8265   30.7285   10.2445 C.3       3 GLC5        0.0000 
     68 CA        -33.9520   31.0330   11.8500 C.3       6 GLP5        0.0000 
     69 CA        -32.1285   32.0870    8.3670 C.3       3 GLC5        0.0000 
     70 CA        -32.5560   33.7500    8.0950 C.3       6 GLP5        0.0000 
     71 CA        -29.0120   34.3395    9.3895 C.3       3 GLC5        0.0000 
     72 CA        -29.4550   32.1960    9.5360 C.3       9 GLL5        0.0000 
     73 CA        -28.5690   36.4830    9.2430 C.3       6 GLP5        0.0000 
     74 CA        -31.0055   32.9730    8.8155 C.3       3 GLC5        0.0000 
     75 CA        -28.8685   32.9300    7.9410 C.3       3 GLC5        0.0000 
     76 CA        -28.2820   33.6640    6.3460 C.3       6 GLP5        0.0000 
     77 CA        -24.2970   30.1770    5.7065 C.3       3 GLC5        0.0000 
     78 CA        -25.2620   30.1600    7.3160 C.3       9 GLL5        0.0000 
     79 CA        -23.3320   30.1940    4.0970 C.3       6 GLP5        0.0000 
     80 CA        -22.9380   28.2500    7.8745 C.3       3 GLC5        0.0000 
     81 CA        -24.4580   29.7390    8.5440 C.3       9 GLL5        0.0000 
     82 CA        -21.4180   26.7610    7.2050 C.3       6 GLP5        0.0000 
     83 O         -25.4980   27.8615    9.0785 O.2       1 ALC1        0.0000 
     84 O         -25.3510   29.1500    9.4800 O.2       7 ALL1        0.0000 
     85 O         -25.6450   26.5730    8.6770 O.2       4 ALP1        0.0000 
     86 CA        -24.1715   32.9395    8.9855 C.3       3 GLC5        0.0000 
     87 CA        -23.7040   30.8930    9.2320 C.3       9 GLL5        0.0000 
     88 CA        -24.6390   34.9860    8.7390 C.3       6 GLP5        0.0000 
     89 N         -19.8685   31.7855   12.6625 N.am      2 SEC2        0.0000 
     90 N         -21.0440   32.6450   13.0610 N.am      8 SEL2        0.0000 
     91 N         -18.6930   30.9260   12.2640 N.am      5 SEP2        0.0000 
     92 N         -20.2455   33.1675   13.9365 N.am      2 SEC2        0.0000 
     93 N         -19.4470   33.6900   14.8120 N.am      5 SEP2        0.0000 
     94 N         -21.6230   35.3825   10.1420 N.am      2 SEC2        0.0000 
     95 N         -21.4150   34.5600   11.4170 N.am      8 SEL2        0.0000 
     96 N         -21.8310   36.2050    8.8670 N.am      5 SEP2        0.0000 
     97 N         -22.7355   35.4095   11.0585 N.am      2 SEC2        0.0000 
     98 N         -24.0560   36.2590   10.7000 N.am      5 SEP2        0.0000 
     99 CA        -21.1285   37.1795   16.4083 C.3       3 GLC5        0.0000 
    100 CA        -19.6805   35.6103   18.2117 C.3       3 GLC5        0.0000 
    101 CA        -21.3030   35.3440   17.6840 C.3       9 GLL5        0.0000 
    102 CA        -19.8062   42.0902   20.4845 C.3       3 GLC5        0.0000 
    103 CA        -21.0980   40.1170   20.9430 C.3       9 GLL5        0.0000 
    104 CA        -18.7430   43.6420   19.5090 C.3       6 GLP5        0.0000 
    105 CA        -21.7492   29.5230   11.6382 C.3       3 GLC5        0.0000 
    106 CA        -23.2430   31.2340   11.6800 C.3       9 GLL5        0.0000 
    107 CA        -20.4210   28.2280   12.2190 C.3       6 GLP5        0.0000 
@<TRIPOS>BOND
@<TRIPOS>SUBSTRUCTURE
     1 ALC1       10 GROUP        1 X    ALC  0     ROOT ALC X 1
     2 SEC2        4 GROUP        1 X    SEC  0     **** SEC X 2
     3 GLC5        1 GROUP        1 X    GLC  0     **** GLC X 6
     4 ALP1       12 GROUP        1 Y    ALP  0     ROOT ALP Y 8
     5 SEP2        6 GROUP        1 Y    SEP  0     **** SEP Y 9
     6 GLP5        3 GROUP        1 Y    GLP  0     **** GLP Y 13
     7 ALL1       11 GROUP        1 Z    ALL  0     ROOT ALL Z 15
     8 SEL2        5 GROUP        1 Z    SEL  0     **** SEL Z 16
     9 GLL5        2 GROUP        1 Z    GLL  0     **** GLL Z 20
@<TRIPOS>SET

