#    Name: 2oa1_FAD_2_ligand
#    Modification time : Tue Mar 25 22:05:15 2014

@<TRIPOS>MOLECULE
2oa1_FAD_2_ligand
   84    89     1     0     0
SMALL
NO_CHARGES


@<TRIPOS>ATOM
      1 PA        -23.5940   33.9340   14.8350 P.3       1 FAD2004     0.0000 
      2 O1A       -23.8980   32.4480   14.8890 O.co2     1 FAD2004     0.0000 
      3 O2A       -24.7830   34.8650   15.1110 O.co2     1 FAD2004     0.0000 
      4 O5B       -22.4580   34.1890   15.9640 O.3       1 FAD2004     0.0000 
      5 C5B       -22.3690   35.4280   16.6110 C.3       1 FAD2004     0.0000 
      6 C4B       -21.3030   35.3440   17.6840 C.3       1 FAD2004     0.0000 
      7 O4B       -20.9560   36.6910   17.9680 O.3       1 FAD2004     0.0000 
      8 C3B       -21.7590   34.7190   18.9970 C.3       1 FAD2004     0.0000 
      9 O3B       -20.6990   33.9830   19.5620 O.3       1 FAD2004     0.0000 
     10 C2B       -22.0050   35.9390   19.8740 C.3       1 FAD2004     0.0000 
     11 O2B       -21.8540   35.6770   21.2630 O.3       1 FAD2004     0.0000 
     12 C1B       -20.9220   36.8760   19.3470 C.3       1 FAD2004     0.0000 
     13 N9A       -21.1980   38.2480   19.7450 N.pl3     1 FAD2004     0.0000 
     14 C8A       -22.0980   39.1320   19.2020 C.2       1 FAD2004     0.0000 
     15 N7A       -22.0100   40.2660   19.9470 N.2       1 FAD2004     0.0000 
     16 C5A       -21.0980   40.1170   20.9430 C.ar      1 FAD2004     0.0000 
     17 C6A       -20.6410   40.9600   21.9770 C.ar      1 FAD2004     0.0000 
     18 N6A       -21.3160   42.0790   22.3020 N.pl3     1 FAD2004     0.0000 
     19 N1A       -19.6820   40.4900   22.8340 N.ar      1 FAD2004     0.0000 
     20 C2A       -19.1690   39.2130   22.7000 C.ar      1 FAD2004     0.0000 
     21 N3A       -19.6300   38.3950   21.6850 N.ar      1 FAD2004     0.0000 
     22 C4A       -20.5750   38.8390   20.8220 C.ar      1 FAD2004     0.0000 
     23 N1        -24.9090   27.7600    5.7770 N.2       1 FAD2004     0.0000 
     24 C2        -24.6580   26.6400    4.9870 C.2       1 FAD2004     0.0000 
     25 O2        -23.5310   26.3830    4.5320 O.2       1 FAD2004     0.0000 
     26 N3        -25.7250   25.8000    4.6970 N.am      1 FAD2004     0.0000 
     27 C4        -27.0130   26.0240    5.1660 C.2       1 FAD2004     0.0000 
     28 O4        -27.8870   25.2080    4.8430 O.2       1 FAD2004     0.0000 
     29 C4X       -27.2570   27.1760    5.9630 C.2       1 FAD2004     0.0000 
     30 N5        -28.5310   27.4610    6.4790 N.2       1 FAD2004     0.0000 
     31 C5X       -28.7490   28.5820    7.2530 C.ar      1 FAD2004     0.0000 
     32 C6        -30.0260   28.8510    7.7240 C.ar      1 FAD2004     0.0000 
     33 C7        -30.2720   29.9880    8.5090 C.ar      1 FAD2004     0.0000 
     34 C7M       -31.7010   30.4240    8.6390 C.3       1 FAD2004     0.0000 
     35 C8        -29.2190   30.8750    8.8300 C.ar      1 FAD2004     0.0000 
     36 C8M       -29.4550   32.1960    9.5360 C.3       1 FAD2004     0.0000 
     37 C9        -27.9340   30.6030    8.3380 C.ar      1 FAD2004     0.0000 
     38 C9A       -27.6840   29.4590    7.5470 C.ar      1 FAD2004     0.0000 
     39 N10       -26.3940   29.1880    7.0490 N.pl3     1 FAD2004     0.0000 
     40 C10       -26.1820   28.0490    6.2600 C.2       1 FAD2004     0.0000 
     41 C1'       -25.2620   30.1600    7.3160 C.3       1 FAD2004     0.0000 
     42 C2'       -24.4580   29.7390    8.5440 C.3       1 FAD2004     0.0000 
     43 O2'       -25.3510   29.1500    9.4800 O.3       1 FAD2004     0.0000 
     44 C3'       -23.7040   30.8930    9.2320 C.3       1 FAD2004     0.0000 
     45 O3'       -22.7840   31.5620    8.3870 O.3       1 FAD2004     0.0000 
     46 C4'       -22.9120   30.4020   10.4350 C.3       1 FAD2004     0.0000 
     47 O4'       -23.1930   29.0260   10.6860 O.3       1 FAD2004     0.0000 
     48 C5'       -23.2430   31.2340   11.6800 C.3       1 FAD2004     0.0000 
     49 O5'       -23.0680   32.6300   11.4910 O.3       1 FAD2004     0.0000 
     50 P         -22.0280   33.5350   12.3460 P.3       1 FAD2004     0.0000 
     51 O1P       -21.0440   32.6450   13.0610 O.co2     1 FAD2004     0.0000 
     52 O2P       -21.4150   34.5600   11.4170 O.co2     1 FAD2004     0.0000 
     53 O3P       -22.9850   34.3390   13.3850 O.3       1 FAD2004     0.0000 
     54 H         -23.3104   35.7132   17.0973 H         1 FAD2004     0.0000 
     55 H         -22.0892   36.2376   15.9252 H         1 FAD2004     0.0000 
     56 H         -20.4574   34.8135   17.3070 H         1 FAD2004     0.0000 
     57 H         -22.6417   34.2076   18.8575 H         1 FAD2004     0.0000 
     58 H         -22.9444   36.3535   19.5979 H         1 FAD2004     0.0000 
     59 H         -19.9888   36.5313   19.7666 H         1 FAD2004     0.0000 
     60 H         -22.6610   38.9757   18.4601 H         1 FAD2004     0.0000 
     61 H         -22.1246   42.2812   21.7495 H         1 FAD2004     0.0000 
     62 H         -20.9485   42.6081   23.0669 H         1 FAD2004     0.0000 
     63 H         -18.4493   38.8738   23.3510 H         1 FAD2004     0.0000 
     64 H         -25.5503   24.9571    4.0958 H         1 FAD2004     0.0000 
     65 H         -30.8051   28.2149    7.4994 H         1 FAD2004     0.0000 
     66 H         -27.1576   31.2441    8.5540 H         1 FAD2004     0.0000 
     67 H         -25.6699   31.1580    7.4820 H         1 FAD2004     0.0000 
     68 H         -24.5990   30.1941    6.4504 H         1 FAD2004     0.0000 
     69 H         -23.7184   29.0024    8.2256 H         1 FAD2004     0.0000 
     70 H         -24.4505   31.5984    9.6170 H         1 FAD2004     0.0000 
     71 H         -21.8542   30.5446   10.2202 H         1 FAD2004     0.0000 
     72 H         -22.6067   30.8501   12.5080 H         1 FAD2004     0.0000 
     73 H         -24.2889   30.9879   11.9686 H         1 FAD2004     0.0000 
     74 H         -31.7904   31.2370    9.2144 H         1 FAD2004     0.0000 
     75 H         -32.1033   30.6475    7.7512 H         1 FAD2004     0.0000 
     76 H         -32.2710   29.7114    9.0480 H         1 FAD2004     0.0000 
     77 H         -28.6011   32.6939    9.6874 H         1 FAD2004     0.0000 
     78 H         -30.0552   32.7971    9.0083 H         1 FAD2004     0.0000 
     79 H         -29.8821   32.0676   10.4311 H         1 FAD2004     0.0000 
     80 H         -20.6082   34.3340   20.4939 H         1 FAD2004     0.0000 
     81 H         -22.7158   35.2529   21.5414 H         1 FAD2004     0.0000 
     82 H         -25.7316   28.3542    9.0089 H         1 FAD2004     0.0000 
     83 H         -22.6589   30.9508    7.6055 H         1 FAD2004     0.0000 
     84 H         -24.1711   28.9243   10.5041 H         1 FAD2004     0.0000 
@<TRIPOS>BOND
     1    2    1 ar   
     2    3    1 ar   
     3    4    1 1    
     4   53    1 1    
     5    5    4 1    
     6    6    5 1    
     7   54    5 1    
     8   55    5 1    
     9    7    6 1    
    10    8    6 1    
    11   56    6 1    
    12   12    7 1    
    13    9    8 1    
    14   10    8 1    
    15   57    8 1    
    16   80    9 1    
    17   11   10 1    
    18   12   10 1    
    19   58   10 1    
    20   81   11 1    
    21   13   12 1    
    22   59   12 1    
    23   14   13 1    
    24   22   13 1    
    25   15   14 2    
    26   60   14 1    
    27   16   15 1    
    28   17   16 ar   
    29   22   16 ar   
    30   18   17 1    
    31   19   17 ar   
    32   61   18 1    
    33   62   18 1    
    34   20   19 ar   
    35   21   20 ar   
    36   63   20 1    
    37   22   21 ar   
    38   24   23 1    
    39   40   23 2    
    40   25   24 2    
    41   26   24 am   
    42   27   26 am   
    43   64   26 1    
    44   28   27 2    
    45   29   27 1    
    46   30   29 2    
    47   40   29 1    
    48   31   30 1    
    49   32   31 ar   
    50   38   31 ar   
    51   33   32 ar   
    52   65   32 1    
    53   34   33 1    
    54   35   33 ar   
    55   74   34 1    
    56   75   34 1    
    57   76   34 1    
    58   36   35 1    
    59   37   35 ar   
    60   77   36 1    
    61   78   36 1    
    62   79   36 1    
    63   38   37 ar   
    64   66   37 1    
    65   39   38 1    
    66   40   39 1    
    67   41   39 1    
    68   42   41 1    
    69   67   41 1    
    70   68   41 1    
    71   43   42 1    
    72   44   42 1    
    73   69   42 1    
    74   82   43 1    
    75   45   44 1    
    76   46   44 1    
    77   70   44 1    
    78   83   45 1    
    79   47   46 1    
    80   48   46 1    
    81   71   46 1    
    82   84   47 1    
    83   49   48 1    
    84   72   48 1    
    85   73   48 1    
    86   50   49 1    
    87   51   50 ar   
    88   52   50 ar   
    89   53   50 1    
@<TRIPOS>SUBSTRUCTURE
     1 FAD2004     1 GROUP   
@<TRIPOS>SET

