#    Name: 2f38_15M_1_INTS_M
#    Modification time : Mon Apr  7 18:04:19 2014

@<TRIPOS>MOLECULE
2f38_15M_1_INTS_M
   88     0     6     0     0
SMALL
NO_CHARGES


@<TRIPOS>ATOM
      1 CA         24.5165   -9.7030   36.6085 C.3       2 GLC5        0.0000 
      2 CA         24.0880  -11.1160   37.9410 C.3       6 GLL5        0.0000 
      3 CA         24.9450   -8.2900   35.2760 C.3       4 GLP5        0.0000 
      4 CA         23.0765  -13.9235   37.5160 C.3       2 GLC5        0.0000 
      5 CA         22.9590  -12.0970   37.5670 C.3       6 GLL5        0.0000 
      6 CA         23.1940  -15.7500   37.4650 C.3       4 GLP5        0.0000 
      7 CA         20.4640  -10.1860   36.7160 C.3       2 GLC5        0.0000 
      8 CA         21.5580  -11.4500   37.7290 C.3       6 GLL5        0.0000 
      9 CA         19.3700   -8.9220   35.7030 C.3       4 GLP5        0.0000 
     10 CA         19.4815   -9.9155   39.2670 C.3       2 GLC5        0.0000 
     11 CA         21.1910  -11.1600   39.1600 C.3       6 GLL5        0.0000 
     12 CA         17.7720   -8.6710   39.3740 C.3       4 GLP5        0.0000 
     13 CA         21.8675  -11.2460   41.8070 C.3       2 GLC5        0.0000 
     14 CA         20.7850  -12.1020   40.0670 C.3       6 GLL5        0.0000 
     15 CA         22.9500  -10.3900   43.5470 C.3       4 GLP5        0.0000 
     16 CA         16.0735  -12.6410   42.6810 C.3       2 GLC5        0.0000 
     17 CA         17.2810  -13.8290   41.3650 C.3       6 GLL5        0.0000 
     18 CA         14.8660  -11.4530   43.9970 C.3       4 GLP5        0.0000 
     19 CA         16.5340  -15.5000   41.1830 C.3       2 GLC5        0.0000 
     20 CA         15.7870  -17.1710   41.0010 C.3       4 GLP5        0.0000 
     21 CA         16.1150  -15.2525   39.3675 C.3       2 GLC5        0.0000 
     22 CA         16.8550  -13.5870   39.9140 C.3       6 GLL5        0.0000 
     23 CA         15.3750  -16.9180   38.8210 C.3       4 GLP5        0.0000 
     24 CA         17.3935  -15.4820   39.0400 C.3       2 GLC5        0.0000 
     25 CA         18.1530  -13.4160   39.1180 C.3       6 GLL5        0.0000 
     26 CA         16.6340  -17.5480   38.9620 C.3       4 GLP5        0.0000 
     27 CA         17.6800  -15.9195   37.7815 C.3       2 GLC5        0.0000 
     28 CA         18.0000  -13.9600   37.7530 C.3       6 GLL5        0.0000 
     29 CA         17.3600  -17.8790   37.8100 C.3       4 GLP5        0.0000 
     30 CA         19.6290  -15.4345   38.0320 C.3       2 GLC5        0.0000 
     31 CA         21.2580  -16.9090   38.3110 C.3       4 GLP5        0.0000 
     32 CA         18.5400  -10.9495   34.5370 C.3       2 GLC5        0.0000 
     33 CA         18.6320  -13.0020   34.3910 C.3       6 GLL5        0.0000 
     34 CA         18.4480   -8.8970   34.6830 C.3       4 GLP5        0.0000 
     35 CA         20.9745  -14.8615   35.9345 C.3       2 GLC5        0.0000 
     36 CA         20.0690  -13.5480   34.5710 C.3       6 GLL5        0.0000 
     37 CA         21.8800  -16.1750   37.2980 C.3       4 GLP5        0.0000 
     38 CA         20.7825  -15.4440   34.4075 C.3       2 GLC5        0.0000 
     39 CA         21.4960  -17.3400   34.2440 C.3       4 GLP5        0.0000 
     40 CA         23.4420  -12.5005   33.4595 C.3       2 GLC5        0.0000 
     41 CA         21.4020  -11.6890   33.4660 C.3       6 GLL5        0.0000 
     42 CA         25.4820  -13.3120   33.4530 C.3       4 GLP5        0.0000 
     43 CA         21.9255   -9.1125   32.0495 C.3       2 GLC5        0.0000 
     44 CA         22.2270  -11.2080   32.4170 C.3       6 GLL5        0.0000 
     45 CA         21.6240   -7.0170   31.6820 C.3       4 GLP5        0.0000 
     46 CA         23.8650  -12.2855   29.6015 C.3       2 GLC5        0.0000 
     47 CA         22.6030  -12.0860   31.3500 C.3       6 GLL5        0.0000 
     48 CA         25.1270  -12.4850   27.8530 C.3       4 GLP5        0.0000 
     49 CA         26.3325  -13.8535   35.0625 C.3       2 GLC5        0.0000 
     50 CA         27.1830  -14.3950   36.6720 C.3       6 GLL5        0.0000 
     51 CA         26.2915  -16.3475   36.5060 C.3       2 GLC5        0.0000 
     52 CA         25.4000  -18.3000   36.3400 C.3       4 GLP5        0.0000 
     53 CA         27.6820  -15.9565   35.3545 C.3       2 GLC5        0.0000 
     54 CA         28.1810  -17.5180   34.0370 C.3       4 GLP5        0.0000 
     55 CA         27.8265  -11.3170   37.9935 C.3       2 GLC5        0.0000 
     56 CA         27.1650  -13.2760   37.7330 C.3       6 GLL5        0.0000 
     57 CA         28.4880   -9.3580   38.2540 C.3       4 GLP5        0.0000 
     58 N          25.7420  -10.2390   35.4365 N.am      1 SEC2        0.0000 
     59 N          26.0460  -11.1450   36.4200 N.am      5 SEL2        0.0000 
     60 N          25.4380   -9.3330   34.4530 N.am      3 SEP2        0.0000 
     61 N          15.6975  -13.5015   33.4655 N.am      1 SEC2        0.0000 
     62 N          16.3420  -13.4890   34.8990 N.am      5 SEL2        0.0000 
     63 N          15.0530  -13.5140   32.0320 N.am      3 SEP2        0.0000 
     64 CA         20.6058  -15.3995   39.0602 C.3       2 GLC5        0.0000 
     65 CA         19.2390  -14.2070   39.8770 C.3       6 GLL5        0.0000 
     66 CA         17.9252  -16.0023   40.4808 C.3       2 GLC5        0.0000 
     67 CA         16.8770  -17.6970   40.3620 C.3       4 GLP5        0.0000 
     68 CA         16.6500  -15.1865   36.2485 C.3       2 GLC5        0.0000 
     69 CA         17.8300  -13.1380   36.7180 C.3       6 GLL5        0.0000 
     70 CA         15.5530  -16.9550   36.4620 C.3       4 GLP5        0.0000 
     71 CA         20.5153  -10.6352   31.8828 C.3       2 GLC5        0.0000 
     72 CA         19.2160   -9.8220   30.8240 C.3       4 GLP5        0.0000 
     73 CA         24.0440  -11.2555   31.5502 C.3       2 GLC5        0.0000 
     74 CA         25.6730  -10.8640   31.2170 C.3       4 GLP5        0.0000 
     75 CA         21.3693  -11.8880   30.1352 C.3       2 GLC5        0.0000 
     76 CA         20.3590  -11.0130   28.9270 C.3       4 GLP5        0.0000 
     77 CA         23.6122  -13.4960   32.6603 C.3       2 GLC5        0.0000 
     78 CA         22.1560  -13.4400   31.3370 C.3       6 GLL5        0.0000 
     79 CA         20.0907  -13.8105   30.4153 C.3       2 GLC5        0.0000 
     80 CA         18.4390  -13.9410   28.9630 C.3       4 GLP5        0.0000 
     81 CA         23.0362  -15.4335   31.8053 C.3       2 GLC5        0.0000 
     82 CA         24.3300  -17.1870   31.7430 C.3       4 GLP5        0.0000 
     83 CA         25.5295  -14.9458   37.9252 C.3       2 GLC5        0.0000 
     84 CA         23.8850  -16.0560   38.6480 C.3       4 GLP5        0.0000 
     85 CA         28.7345  -13.2748   36.4022 C.3       2 GLC5        0.0000 
     86 CA         30.2950  -12.7140   35.6020 C.3       4 GLP5        0.0000 
     87 CA         28.2275  -15.0587   38.0827 C.3       2 GLC5        0.0000 
     88 CA         29.2810  -16.2820   38.9630 C.3       4 GLP5        0.0000 
@<TRIPOS>BOND
@<TRIPOS>SUBSTRUCTURE
     1 SEC2       58 GROUP        1 X    SEC  0     ROOT SEC X 2
     2 GLC5        1 GROUP        1 X    GLC  0     **** GLC X 6
     3 SEP2       60 GROUP        1 Y    SEP  0     ROOT SEP Y 9
     4 GLP5        3 GROUP        1 Y    GLP  0     **** GLP Y 13
     5 SEL2       59 GROUP        1 Z    SEL  0     ROOT SEL Z 16
     6 GLL5        2 GROUP        1 Z    GLL  0     **** GLL Z 20
@<TRIPOS>SET

