#    Name: 2f38_15M_1_ligand
#    Modification time : Mon Apr  7 18:04:19 2014

@<TRIPOS>MOLECULE
2f38_15M_1_ligand
   67    68     1     0     0
SMALL
NO_CHARGES


@<TRIPOS>ATOM
      1 C1         25.4460  -11.6840   37.4540 C.2       1 15M325      0.0000 
      2 C2         24.0880  -11.1160   37.9410 C.3       1 15M325      0.0000 
      3 C3         22.9590  -12.0970   37.5670 C.3       1 15M325      0.0000 
      4 C4         21.5580  -11.4500   37.7290 C.3       1 15M325      0.0000 
      5 C5         21.1910  -11.1600   39.1600 C.2       1 15M325      0.0000 
      6 C6         20.7850  -12.1020   40.0670 C.2       1 15M325      0.0000 
      7 C7         20.6680  -13.5730   39.7420 C.3       1 15M325      0.0000 
      8 C8         19.2390  -14.2070   39.8770 C.3       1 15M325      0.0000 
      9 C9         18.7080  -14.4080   41.3220 C.3       1 15M325      0.0000 
     10 C10        17.2810  -13.8290   41.3650 C.3       1 15M325      0.0000 
     11 C11        16.8550  -13.5870   39.9140 C.3       1 15M325      0.0000 
     12 C12        18.1530  -13.4160   39.1180 C.3       1 15M325      0.0000 
     13 C13        18.0000  -13.9600   37.7530 C.2       1 15M325      0.0000 
     14 C14        17.8300  -13.1380   36.7180 C.2       1 15M325      0.0000 
     15 C15        17.6640  -13.6980   35.3520 C.3       1 15M325      0.0000 
     16 C16        18.6320  -13.0020   34.3910 C.3       1 15M325      0.0000 
     17 C17        20.0690  -13.5480   34.5710 C.3       1 15M325      0.0000 
     18 C18        20.9470  -13.0430   33.4660 C.ar      1 15M325      0.0000 
     19 C19        21.4020  -11.6890   33.4660 C.ar      1 15M325      0.0000 
     20 C20        22.2270  -11.2080   32.4170 C.ar      1 15M325      0.0000 
     21 C21        22.6030  -12.0860   31.3500 C.ar      1 15M325      0.0000 
     22 C22        22.1560  -13.4400   31.3370 C.ar      1 15M325      0.0000 
     23 C23        21.3290  -13.9200   32.3980 C.ar      1 15M325      0.0000 
     24 C24        27.1830  -14.3950   36.6720 C.3       1 15M325      0.0000 
     25 C25        27.1650  -13.2760   37.7330 C.3       1 15M325      0.0000 
     26 N          25.9950  -12.7360   38.1070 N.am      1 15M325      0.0000 
     27 O1         26.0460  -11.1450   36.4200 O.2       1 15M325      0.0000 
     28 O9         19.4940  -13.7400   42.2700 O.3       1 15M325      0.0000 
     29 O11        16.0890  -12.4130   39.8220 O.3       1 15M325      0.0000 
     30 O15        16.3420  -13.4890   34.8990 O.3       1 15M325      0.0000 
     31 H          23.9111  -10.1660   37.4617 H         1 15M325      0.0000 
     32 H          24.1196  -10.9972   39.0127 H         1 15M325      0.0000 
     33 H          23.0178  -12.9731   38.2104 H         1 15M325      0.0000 
     34 H          23.0840  -12.4094   36.5317 H         1 15M325      0.0000 
     35 H          20.8154  -12.1285   37.2825 H         1 15M325      0.0000 
     36 H          21.5427  -10.5187   37.1428 H         1 15M325      0.0000 
     37 H          21.2693  -10.1493   39.4291 H         1 15M325      0.0000 
     38 H          20.5319  -11.8510   41.0422 H         1 15M325      0.0000 
     39 H          21.3529  -14.1557   40.3949 H         1 15M325      0.0000 
     40 H          21.0151  -13.7548   38.7022 H         1 15M325      0.0000 
     41 H          19.2668  -15.2120   39.4083 H         1 15M325      0.0000 
     42 H          18.6308  -15.4619   41.4996 H         1 15M325      0.0000 
     43 H          17.2908  -12.9006   41.8982 H         1 15M325      0.0000 
     44 H          16.6232  -14.5402   41.8207 H         1 15M325      0.0000 
     45 H          16.3585  -14.4537   39.5598 H         1 15M325      0.0000 
     46 H          18.4236  -12.3932   39.1095 H         1 15M325      0.0000 
     47 H          18.0338  -14.9832   37.6684 H         1 15M325      0.0000 
     48 H          17.8039  -12.1186   36.7920 H         1 15M325      0.0000 
     49 H          17.9162  -14.7467   35.3639 H         1 15M325      0.0000 
     50 H          18.6349  -11.9346   34.5892 H         1 15M325      0.0000 
     51 H          18.3156  -13.1776   33.3674 H         1 15M325      0.0000 
     52 H          20.0282  -14.6328   34.5555 H         1 15M325      0.0000 
     53 H          20.4442  -13.2153   35.5339 H         1 15M325      0.0000 
     54 H          21.1294  -11.0669   34.2276 H         1 15M325      0.0000 
     55 H          22.5524  -10.2469   32.4172 H         1 15M325      0.0000 
     56 H          23.1938  -11.7384   30.5965 H         1 15M325      0.0000 
     57 H          22.4228  -14.0586   30.5803 H         1 15M325      0.0000 
     58 H          21.0096  -14.8842   32.3981 H         1 15M325      0.0000 
     59 H          27.9061  -12.4896   37.3415 H         1 15M325      0.0000 
     60 H          27.7540  -13.7057   38.6214 H         1 15M325      0.0000 
     61 H          25.4811  -13.1407   38.9372 H         1 15M325      0.0000 
     62 H          28.1121  -14.7136   36.4839 H         1 15M325      0.0000 
     63 H          26.6533  -15.1916   36.9634 H         1 15M325      0.0000 
     64 H          26.7966  -14.0883   35.8022 H         1 15M325      0.0000 
     65 H          20.4271  -14.0585   42.1031 H         1 15M325      0.0000 
     66 H          15.4525  -12.5778   39.0685 H         1 15M325      0.0000 
     67 H          15.9190  -12.9084   35.5946 H         1 15M325      0.0000 
@<TRIPOS>BOND
     1    2    1 1    
     2   26    1 am   
     3   27    1 2    
     4    3    2 1    
     5   31    2 1    
     6   32    2 1    
     7    4    3 1    
     8   33    3 1    
     9   34    3 1    
    10    5    4 1    
    11   35    4 1    
    12   36    4 1    
    13    6    5 2    
    14   37    5 1    
    15    7    6 1    
    16   38    6 1    
    17    8    7 1    
    18   39    7 1    
    19   40    7 1    
    20    9    8 1    
    21   12    8 1    
    22   41    8 1    
    23   10    9 1    
    24   28    9 1    
    25   42    9 1    
    26   11   10 1    
    27   43   10 1    
    28   44   10 1    
    29   12   11 1    
    30   29   11 1    
    31   45   11 1    
    32   13   12 1    
    33   46   12 1    
    34   14   13 2    
    35   47   13 1    
    36   15   14 1    
    37   48   14 1    
    38   16   15 1    
    39   30   15 1    
    40   49   15 1    
    41   17   16 1    
    42   50   16 1    
    43   51   16 1    
    44   18   17 1    
    45   52   17 1    
    46   53   17 1    
    47   19   18 ar   
    48   23   18 ar   
    49   20   19 ar   
    50   54   19 1    
    51   21   20 ar   
    52   55   20 1    
    53   22   21 ar   
    54   56   21 1    
    55   23   22 ar   
    56   57   22 1    
    57   58   23 1    
    58   25   24 1    
    59   62   24 1    
    60   63   24 1    
    61   64   24 1    
    62   26   25 1    
    63   59   25 1    
    64   60   25 1    
    65   61   26 1    
    66   65   28 1    
    67   66   29 1    
    68   67   30 1    
@<TRIPOS>SUBSTRUCTURE
     1 15M325      1 GROUP   
@<TRIPOS>SET

