#    Name: 1nbm_ATP_1_INTS_M
#    Modification time : Mon Mar 24 17:56:50 2014

@<TRIPOS>MOLECULE
1nbm_ATP_1_INTS_M
   45     0    15     0     0
SMALL
NO_CHARGES


@<TRIPOS>ATOM
      1 NZ        104.1850   66.8880   50.6715 N.4       3 LYC4        0.0000 
      2 NZ        103.6440   65.4920   50.3820 N.4      13 LYL4        0.0000 
      3 NZ        104.7260   68.2840   50.9610 N.4       8 LYP4        0.0000 
      4 N         104.1850   66.8880   50.6715 N.am      2 SEC2        0.0000 
      5 N         103.6440   65.4920   50.3820 N.am     12 SEL2        0.0000 
      6 N         104.7260   68.2840   50.9610 N.am      7 SEP2        0.0000 
      7 Zn        104.4490   65.5095   47.1095 Zn        4 ZIC7        0.0000 
      8 Zn        104.0990   65.1670   47.8990 Zn       14 ZIL7        0.0000 
      9 Zn        104.7990   65.8520   46.3200 Zn        9 ZIP7        0.0000 
     10 N          99.7070   66.6000   50.7535 N.am      2 SEC2        0.0000 
     11 N         100.9130   66.6430   49.9120 N.am     12 SEL2        0.0000 
     12 N          98.5010   66.5570   51.5950 N.am      7 SEP2        0.0000 
     13 N          99.4470   67.1560   49.5700 N.am      2 SEC2        0.0000 
     14 N          97.9810   67.6690   49.2280 N.am      7 SEP2        0.0000 
     15 N         101.8790   67.7200   46.6310 N.am      2 SEC2        0.0000 
     16 N         102.0070   66.6800   47.5830 N.am     12 SEL2        0.0000 
     17 N         101.7510   68.7600   45.6790 N.am      7 SEP2        0.0000 
     18 N          99.9150   66.9230   44.6340 N.am      2 SEC2        0.0000 
     19 N          99.9030   65.9270   45.5680 N.am     12 SEL2        0.0000 
     20 N          99.9270   67.9190   43.7000 N.am      7 SEP2        0.0000 
     21 N          98.8765   65.9245   44.7525 N.am      2 SEC2        0.0000 
     22 N          97.8500   65.9220   43.9370 N.am      7 SEP2        0.0000 
     23 CA         98.5490   63.9100   49.7525 C.3       5 GLC5        0.0000 
     24 CA         97.7620   63.5490   47.6800 C.3      15 GLL5        0.0000 
     25 CA         99.3360   64.2710   51.8250 C.3      10 GLP5        0.0000 
     26 CA         97.7285   65.7075   47.7485 C.3       5 GLC5        0.0000 
     27 CA         97.6950   67.8660   47.8170 C.3      10 GLP5        0.0000 
     28 CA         94.5740   63.5310   48.1755 C.3       5 GLC5        0.0000 
     29 CA         96.4110   62.9680   47.3450 C.3      15 GLL5        0.0000 
     30 CA         92.7370   64.0940   49.0060 C.3      10 GLP5        0.0000 
     31 CA         90.4870   67.1130   45.1720 C.3       5 GLC5        0.0000 
     32 CA         92.0430   66.8860   43.6270 C.3      15 GLL5        0.0000 
     33 CA         88.9310   67.3400   46.7170 C.3      10 GLP5        0.0000 
     34 O          90.5860   68.3530   42.4340 O.2       1 ALC1        0.0000 
     35 O          92.1150   67.9690   42.8480 O.2      11 ALL1        0.0000 
     36 O          89.0570   68.7370   42.0200 O.2       6 ALP1        0.0000 
     37 CA         89.7055   65.0885   45.9880 C.3       5 GLC5        0.0000 
     38 CA         90.7580   65.2390   44.6270 C.3      15 GLL5        0.0000 
     39 CA         88.6530   64.9380   47.3490 C.3      10 GLP5        0.0000 
     40 CA         91.8780   65.1925   42.6790 C.3       5 GLC5        0.0000 
     41 CA         92.9980   65.1460   40.7310 C.3      10 GLP5        0.0000 
     42 CA         93.6610   63.5545   47.5392 C.3       5 GLC5        0.0000 
     43 CA         94.3870   63.6710   46.4190 C.3      15 GLL5        0.0000 
     44 CA         92.8784   65.5129   42.6071 C.3       5 GLC5        0.0000 
     45 CA         93.1560   66.2870   44.2480 C.3      15 GLL5        0.0000 
@<TRIPOS>BOND
@<TRIPOS>SUBSTRUCTURE
     1 ALC1       34 GROUP        1 X    ALC  0     ROOT ALC X 1
     2 SEC2        4 GROUP        1 X    SEC  0     **** SEC X 2
     3 LYC4        1 GROUP        1 X    LYC  0     **** LYC X 4
     4 ZIC7        7 GROUP        1 X    ZIC  0     **** ZIC X 5
     5 GLC5       23 GROUP        1 X    GLC  0     **** GLC X 6
     6 ALP1       36 GROUP        1 Y    ALP  0     ROOT ALP Y 8
     7 SEP2        6 GROUP        1 Y    SEP  0     **** SEP Y 9
     8 LYP4        3 GROUP        1 Y    LYP  0     **** LYP Y 11
     9 ZIP7        9 GROUP        1 Y    ZIP  0     **** ZIP Y 12
    10 GLP5       25 GROUP        1 Y    GLP  0     **** GLP Y 13
    11 ALL1       35 GROUP        1 Z    ALL  0     ROOT ALL Z 15
    12 SEL2        5 GROUP        1 Z    SEL  0     **** SEL Z 16
    13 LYL4        2 GROUP        1 Z    LYL  0     **** LYL Z 18
    14 ZIL7        8 GROUP        1 Z    ZIL  0     **** ZIL Z 19
    15 GLL5       24 GROUP        1 Z    GLL  0     **** GLL Z 20
@<TRIPOS>SET

