#    Name: 1nbm_ATP_1_ligand
#    Modification time : Mon Mar 24 17:56:50 2014

@<TRIPOS>MOLECULE
1nbm_ATP_1_ligand
   43    45     1     0     0
SMALL
NO_CHARGES


@<TRIPOS>ATOM
      1 PG        103.5700   64.6040   49.1980 P.3       1 ATP600      0.0000 
      2 O1G       103.6440   65.4920   50.3820 O.co2     1 ATP600      0.0000 
      3 O2G       104.0990   65.1670   47.8990 O.co2     1 ATP600      0.0000 
      4 O3G       103.8230   63.1620   49.4440 O.co2     1 ATP600      0.0000 
      5 PB        101.2260   65.9640   48.6300 P.3       1 ATP600      0.0000 
      6 O1B       100.9130   66.6430   49.9120 O.co2     1 ATP600      0.0000 
      7 O2B       102.0070   66.6800   47.5830 O.co2     1 ATP600      0.0000 
      8 O3B       102.0030   64.6050   48.9440 O.3       1 ATP600      0.0000 
      9 PA         99.7490   64.8400   46.5670 P.3       1 ATP600      0.0000 
     10 O1A        99.9030   65.9270   45.5680 O.co2     1 ATP600      0.0000 
     11 O2A       100.6480   63.6530   46.5050 O.co2     1 ATP600      0.0000 
     12 O3A        99.8370   65.4940   48.0130 O.3       1 ATP600      0.0000 
     13 O5'        98.2310   64.3660   46.6100 O.3       1 ATP600      0.0000 
     14 C5'        97.7620   63.5490   47.6800 C.3       1 ATP600      0.0000 
     15 C4'        96.4110   62.9680   47.3450 C.3       1 ATP600      0.0000 
     16 O4'        95.4220   64.0220   47.3170 O.3       1 ATP600      0.0000 
     17 C3'        96.2860   62.3120   45.9780 C.3       1 ATP600      0.0000 
     18 O3'        96.7510   60.9660   46.0180 O.3       1 ATP600      0.0000 
     19 C2'        94.7830   62.3590   45.7260 C.3       1 ATP600      0.0000 
     20 O2'        94.1090   61.2820   46.3420 O.3       1 ATP600      0.0000 
     21 C1'        94.3870   63.6710   46.4190 C.3       1 ATP600      0.0000 
     22 N9         94.1440   64.7920   45.5190 N.pl3     1 ATP600      0.0000 
     23 C8         95.0460   65.6820   45.0020 C.2       1 ATP600      0.0000 
     24 N7         94.5080   66.6010   44.2350 N.2       1 ATP600      0.0000 
     25 C5         93.1560   66.2870   44.2480 C.ar      1 ATP600      0.0000 
     26 C6         92.0430   66.8860   43.6270 C.ar      1 ATP600      0.0000 
     27 N6         92.1150   67.9690   42.8480 N.pl3     1 ATP600      0.0000 
     28 N1         90.8330   66.3220   43.8440 N.ar      1 ATP600      0.0000 
     29 C2         90.7580   65.2390   44.6270 C.ar      1 ATP600      0.0000 
     30 N3         91.7310   64.5910   45.2650 N.ar      1 ATP600      0.0000 
     31 C4         92.9180   65.1730   45.0290 C.ar      1 ATP600      0.0000 
     32 H          97.6651   64.1247   48.6136 H         1 ATP600      0.0000 
     33 H          98.4524   62.7155   47.8826 H         1 ATP600      0.0000 
     34 H          96.1230   62.2415   48.0939 H         1 ATP600      0.0000 
     35 H          96.7651   62.9202   45.2665 H         1 ATP600      0.0000 
     36 H          94.6110   62.4694   44.6987 H         1 ATP600      0.0000 
     37 H          93.4727   63.4613   46.9952 H         1 ATP600      0.0000 
     38 H          96.0272   65.6131   45.2088 H         1 ATP600      0.0000 
     39 H          91.2442   68.3278   42.5117 H         1 ATP600      0.0000 
     40 H          93.0331   68.3236   42.6712 H         1 ATP600      0.0000 
     41 H          89.7373   64.8231   44.7626 H         1 ATP600      0.0000 
     42 H          97.5608   60.9894   46.6043 H         1 ATP600      0.0000 
     43 H          94.8034   60.5707   46.4511 H         1 ATP600      0.0000 
@<TRIPOS>BOND
     1    2    1 ar   
     2    3    1 ar   
     3    4    1 ar   
     4    8    1 1    
     5    6    5 ar   
     6    7    5 ar   
     7    8    5 1    
     8   12    5 1    
     9   10    9 ar   
    10   11    9 ar   
    11   12    9 1    
    12   13    9 1    
    13   14   13 1    
    14   15   14 1    
    15   32   14 1    
    16   33   14 1    
    17   16   15 1    
    18   17   15 1    
    19   34   15 1    
    20   21   16 1    
    21   18   17 1    
    22   19   17 1    
    23   35   17 1    
    24   42   18 1    
    25   20   19 1    
    26   21   19 1    
    27   36   19 1    
    28   43   20 1    
    29   22   21 1    
    30   37   21 1    
    31   23   22 1    
    32   31   22 1    
    33   24   23 2    
    34   38   23 1    
    35   25   24 1    
    36   26   25 ar   
    37   31   25 ar   
    38   27   26 1    
    39   28   26 ar   
    40   39   27 1    
    41   40   27 1    
    42   29   28 ar   
    43   30   29 ar   
    44   41   29 1    
    45   31   30 ar   
@<TRIPOS>SUBSTRUCTURE
     1 ATP600      1 GROUP   
@<TRIPOS>SET

