#    Name: 1g46_F2B_1_INTS_M
#    Modification time : Tue Mar 25 02:32:03 2014

@<TRIPOS>MOLECULE
1g46_F2B_1_INTS_M
   35     0    12     0     0
SMALL
NO_CHARGES


@<TRIPOS>ATOM
      1 CA         -3.2745    2.9885   17.2800 C.3       4 GLC5        0.0000 
      2 CA         -4.1720    2.3500   15.5910 C.3      12 GLL5        0.0000 
      3 CA         -2.3770    3.6270   18.9690 C.3       8 GLP5        0.0000 
      4 CA         -2.3145    1.2695   15.2195 C.3       4 GLC5        0.0000 
      5 CA         -0.4570    0.1890   14.8480 C.3       8 GLP5        0.0000 
      6 O          -4.6735   -1.3310   16.9245 O.2       1 ALC1        0.0000 
      7 O          -5.6770   -0.5870   16.0830 O.2       9 ALL1        0.0000 
      8 O          -3.6700   -2.0750   17.7660 O.2       5 ALP1        0.0000 
      9 Zn         -6.2785   -1.1300   15.6795 Zn        3 ZIC7        0.0000 
     10 Zn         -5.6770   -0.5870   16.0830 Zn       11 ZIL7        0.0000 
     11 Zn         -6.8800   -1.6730   15.2760 Zn        7 ZIP7        0.0000 
     12 N          -4.0920    0.6825   18.6730 N.am      2 SEC2        0.0000 
     13 N          -5.4220    1.0020   18.1930 N.am     10 SEL2        0.0000 
     14 N          -2.7620    0.3630   19.1530 N.am      6 SEP2        0.0000 
     15 CA         -2.7455    9.8420   16.6875 C.3       4 GLC5        0.0000 
     16 CA         -1.3710    9.0150   15.5610 C.3      12 GLL5        0.0000 
     17 CA         -4.1200   10.6690   17.8140 C.3       8 GLP5        0.0000 
     18 CA         -1.4610   11.2375   16.4625 C.3       4 GLC5        0.0000 
     19 CA         -0.5050    9.9880   14.9340 C.3      12 GLL5        0.0000 
     20 CA         -2.4170   12.4870   17.9910 C.3       8 GLP5        0.0000 
     21 CA         -8.0810    3.6655   15.0972 C.3       4 GLC5        0.0000 
     22 CA         -6.4400    3.2680   15.5950 C.3      12 GLL5        0.0000 
     23 CA         -9.9440    3.5100   14.9690 C.3       8 GLP5        0.0000 
     24 CA         -0.1268    7.0553   14.8807 C.3       4 GLC5        0.0000 
     25 CA         -1.9250    7.9340   14.7600 C.3      12 GLL5        0.0000 
     26 CA          1.5100    6.2150   15.7000 C.3       8 GLP5        0.0000 
     27 CA         -1.8200    7.1748   16.5667 C.3       4 GLC5        0.0000 
     28 CA         -1.9920    5.8750   17.9730 C.3       8 GLP5        0.0000 
     29 CA          0.4445    8.3983   15.9733 C.3       4 GLC5        0.0000 
     30 CA          1.8270    7.2950   16.6990 C.3       8 GLP5        0.0000 
     31 CA         -0.4065    9.5497   17.2242 C.3       4 GLC5        0.0000 
     32 CA          0.1250    9.5980   19.2010 C.3       8 GLP5        0.0000 
     33 CA         -4.9195    4.3141   16.9417 C.3       4 GLC5        0.0000 
     34 CA         -5.9960    4.3740   14.8560 C.3      12 GLL5        0.0000 
     35 CA         -4.2860    5.1600   18.6130 C.3       8 GLP5        0.0000 
@<TRIPOS>BOND
@<TRIPOS>SUBSTRUCTURE
     1 ALC1        6 GROUP        1 X    ALC  0     ROOT ALC X 1
     2 SEC2       12 GROUP        1 X    SEC  0     **** SEC X 2
     3 ZIC7        9 GROUP        1 X    ZIC  0     **** ZIC X 5
     4 GLC5        1 GROUP        1 X    GLC  0     **** GLC X 6
     5 ALP1        8 GROUP        1 Y    ALP  0     ROOT ALP Y 8
     6 SEP2       14 GROUP        1 Y    SEP  0     **** SEP Y 9
     7 ZIP7       11 GROUP        1 Y    ZIP  0     **** ZIP Y 12
     8 GLP5        3 GROUP        1 Y    GLP  0     **** GLP Y 13
     9 ALL1        7 GROUP        1 Z    ALL  0     ROOT ALL Z 15
    10 SEL2       13 GROUP        1 Z    SEL  0     **** SEL Z 16
    11 ZIL7       10 GROUP        1 Z    ZIL  0     **** ZIL Z 19
    12 GLL5        2 GROUP        1 Z    GLL  0     **** GLL Z 20
@<TRIPOS>SET

