#    Name: 1g46_F2B_1_ligand
#    Modification time : Tue Mar 25 02:32:03 2014

@<TRIPOS>MOLECULE
1g46_F2B_1_ligand
   33    34     1     0     0
SMALL
NO_CHARGES


@<TRIPOS>ATOM
      1 C01        -3.7760    3.4840   14.8430 C.ar      1 F2B555      0.0000 
      2 C02        -4.1720    2.3500   15.5910 C.ar      1 F2B555      0.0000 
      3 C03        -5.5470    2.2440   15.9710 C.ar      1 F2B555      0.0000 
      4 C04        -6.4400    3.2680   15.5950 C.ar      1 F2B555      0.0000 
      5 C05        -5.9960    4.3740   14.8560 C.ar      1 F2B555      0.0000 
      6 C06        -4.6820    4.4900   14.4760 C.ar      1 F2B555      0.0000 
      7 C07        -4.2030    5.6770   13.6740 C.2       1 F2B555      0.0000 
      8 O08        -4.9920    6.5560   13.3470 O.2       1 F2B555      0.0000 
      9 N09        -2.8760    5.7480   13.3320 N.am      1 F2B555      0.0000 
     10 C10        -2.1590    6.7810   12.5860 C.3       1 F2B555      0.0000 
     11 S11        -6.0790    0.8210   16.8920 S.o2      1 F2B555      0.0000 
     12 NP2        -5.6770   -0.5870   16.0830 N.pl3     1 F2B555      0.0000 
     13 O13        -7.5130    1.0660   17.0180 O.2       1 F2B555      0.0000 
     14 O14        -5.4220    1.0020   18.1930 O.2       1 F2B555      0.0000 
     15 C15        -1.6020    7.8570   13.3630 C.ar      1 F2B555      0.0000 
     16 C16        -1.9250    7.9340   14.7600 C.ar      1 F2B555      0.0000 
     17 C17        -1.3710    9.0150   15.5610 C.ar      1 F2B555      0.0000 
     18 C18        -0.5050    9.9880   14.9340 C.ar      1 F2B555      0.0000 
     19 C19        -0.1790    9.9230   13.5560 C.ar      1 F2B555      0.0000 
     20 C20        -0.7250    8.8540   12.7540 C.ar      1 F2B555      0.0000 
     21 F21         0.3700   10.5560   13.1960 F         1 F2B555      0.0000 
     22 F22        -0.4600    8.8140   11.6700 F         1 F2B555      0.0000 
     23 H          -2.7816    3.5694   14.5591 H         1 F2B555      0.0000 
     24 H          -3.5143    1.6385   15.8503 H         1 F2B555      0.0000 
     25 H          -7.4300    3.2000   15.8680 H         1 F2B555      0.0000 
     26 H          -6.6808    5.1086   14.5990 H         1 F2B555      0.0000 
     27 H          -2.2340    4.9258   13.6498 H         1 F2B555      0.0000 
     28 H          -2.8491    7.2021   11.7974 H         1 F2B555      0.0000 
     29 H          -1.3418    6.2888   11.9815 H         1 F2B555      0.0000 
     30 H          -4.8063   -1.0076   16.3378 H         1 F2B555      0.0000 
     31 H          -2.5268    7.2523   15.1882 H         1 F2B555      0.0000 
     32 H          -1.5902    9.0808   16.5378 H         1 F2B555      0.0000 
     33 H          -0.1203   10.7447   15.5146 H         1 F2B555      0.0000 
@<TRIPOS>BOND
     1    2    1 ar   
     2    6    1 ar   
     3   23    1 1    
     4    3    2 ar   
     5   24    2 1    
     6    4    3 ar   
     7   11    3 1    
     8    5    4 ar   
     9   25    4 1    
    10    6    5 ar   
    11   26    5 1    
    12    7    6 1    
    13    8    7 2    
    14    9    7 am   
    15   10    9 1    
    16   27    9 1    
    17   15   10 1    
    18   28   10 1    
    19   29   10 1    
    20   12   11 1    
    21   13   11 2    
    22   14   11 2    
    23   30   12 1    
    24   16   15 ar   
    25   20   15 ar   
    26   17   16 ar   
    27   31   16 1    
    28   18   17 ar   
    29   32   17 1    
    30   19   18 ar   
    31   33   18 1    
    32   20   19 ar   
    33   21   19 1    
    34   22   20 1    
@<TRIPOS>SUBSTRUCTURE
     1 F2B555      1 GROUP   
@<TRIPOS>SET

