#    Name: 3tw2_AMP_1_INTS_M
#    Modification time : Mon Mar 24 21:04:49 2014

@<TRIPOS>MOLECULE
3tw2_AMP_1_INTS_M
   55     0     9     0     0
SMALL
NO_CHARGES


@<TRIPOS>ATOM
      1 N         -31.6405    5.3610  -21.5775 N.am      2 SEC2        0.0000 
      2 N         -32.4430    5.1330  -22.8960 N.am      8 SEL2        0.0000 
      3 N         -30.8380    5.5890  -20.2590 N.am      5 SEP2        0.0000 
      4 N         -33.7655    4.2095  -23.4640 N.am      2 SEC2        0.0000 
      5 N         -35.0880    3.2860  -24.0320 N.am      5 SEP2        0.0000 
      6 N         -29.9090    2.9155  -23.8835 N.am      2 SEC2        0.0000 
      7 N         -30.3340    4.0130  -23.4320 N.am      8 SEL2        0.0000 
      8 N         -29.4840    1.8180  -24.3350 N.am      5 SEP2        0.0000 
      9 N         -29.1345    4.4380  -23.0690 N.am      2 SEC2        0.0000 
     10 N         -27.9350    4.8630  -22.7060 N.am      5 SEP2        0.0000 
     11 N         -33.7115    3.0825  -24.1130 N.am      2 SEC2        0.0000 
     12 N         -32.3350    2.8790  -24.1940 N.am      8 SEL2        0.0000 
     13 N         -33.3275    2.2610  -25.1895 N.am      2 SEC2        0.0000 
     14 N         -34.3200    1.6430  -26.1850 N.am      5 SEP2        0.0000 
     15 N         -30.9095    2.3485  -24.2645 N.am      2 SEC2        0.0000 
     16 CA        -33.2000    4.6095  -26.2395 C.3       3 GLC5        0.0000 
     17 CA        -31.0890    4.4510  -26.4730 C.3       9 GLL5        0.0000 
     18 CA        -35.3110    4.7680  -26.0060 C.3       6 GLP5        0.0000 
     19 CA        -31.8985    3.2385  -27.5930 C.3       3 GLC5        0.0000 
     20 CA        -32.7080    2.0260  -28.7130 C.3       6 GLP5        0.0000 
     21 CA        -30.6010    2.5625  -25.5110 C.3       3 GLC5        0.0000 
     22 CA        -30.1130    0.6740  -24.5490 C.3       6 GLP5        0.0000 
     23 CA        -29.2255    3.3390  -27.8895 C.3       3 GLC5        0.0000 
     24 CA        -29.7700    5.1580  -26.8390 C.3       9 GLL5        0.0000 
     25 CA        -28.6810    1.5200  -28.9400 C.3       6 GLP5        0.0000 
     26 CA        -27.7840    4.3530  -27.4745 C.3       3 GLC5        0.0000 
     27 CA        -25.7980    3.5480  -28.1100 C.3       6 GLP5        0.0000 
     28 O         -27.6525    7.1965  -26.7700 O.2       1 ALC1        0.0000 
     29 O         -28.8440    7.3700  -26.3150 O.2       7 ALL1        0.0000 
     30 O         -26.4610    7.0230  -27.2250 O.2       4 ALP1        0.0000 
     31 O         -28.1970    8.4060  -28.7930 O.2       1 ALC1        0.0000 
     32 O         -29.5000    8.1970  -28.8890 O.2       7 ALL1        0.0000 
     33 O         -26.8940    8.6150  -28.6970 O.2       4 ALP1        0.0000 
     34 CA        -28.8665    3.6465  -28.9645 C.3       3 GLC5        0.0000 
     35 CA        -29.0520    5.7730  -28.9890 C.3       9 GLL5        0.0000 
     36 CA        -27.4250    4.6605  -28.5495 C.3       3 GLC5        0.0000 
     37 CA        -27.5280    2.8085  -34.1130 C.3       3 GLC5        0.0000 
     38 CA        -28.3940    4.6340  -33.7550 C.3       9 GLL5        0.0000 
     39 CA        -26.6620    0.9830  -34.4710 C.3       6 GLP5        0.0000 
     40 CA        -27.9010    6.6340  -33.5735 C.3       3 GLC5        0.0000 
     41 CA        -27.4080    8.6340  -33.3920 C.3       6 GLP5        0.0000 
     42 CA        -25.3590    6.2915  -31.1735 C.3       3 GLC5        0.0000 
     43 CA        -26.4030    5.1040  -32.4930 C.3       9 GLL5        0.0000 
     44 CA        -24.3150    7.4790  -29.8540 C.3       6 GLP5        0.0000 
     45 CA        -26.9055    6.8690  -32.9425 C.3       3 GLC5        0.0000 
     46 N         -26.4490    6.8825  -31.4410 N.am      2 SEC2        0.0000 
     47 N         -27.0730    5.3540  -31.3590 N.am      8 SEL2        0.0000 
     48 N         -25.8250    8.4110  -31.5230 N.am      5 SEP2        0.0000 
     49 CA        -27.1115    4.3860  -29.7215 C.3       3 GLC5        0.0000 
     50 CA        -28.4250    5.2240  -31.3330 C.3       9 GLL5        0.0000 
     51 CA        -29.7325    3.0773  -33.4490 C.3       3 GLC5        0.0000 
     52 CA        -29.1880    4.8550  -32.5350 C.3       9 GLL5        0.0000 
     53 CA        -30.6740    1.4100  -33.7530 C.3       6 GLP5        0.0000 
     54 CA        -28.7777    6.8308  -32.2880 C.3       3 GLC5        0.0000 
     55 CA        -28.7490    8.6220  -32.6420 C.3       6 GLP5        0.0000 
@<TRIPOS>BOND
@<TRIPOS>SUBSTRUCTURE
     1 ALC1       28 GROUP        1 X    ALC  0     ROOT ALC X 1
     2 SEC2        1 GROUP        1 X    SEC  0     **** SEC X 2
     3 GLC5       16 GROUP        1 X    GLC  0     **** GLC X 6
     4 ALP1       30 GROUP        1 Y    ALP  0     ROOT ALP Y 8
     5 SEP2        3 GROUP        1 Y    SEP  0     **** SEP Y 9
     6 GLP5       18 GROUP        1 Y    GLP  0     **** GLP Y 13
     7 ALL1       29 GROUP        1 Z    ALL  0     ROOT ALL Z 15
     8 SEL2        2 GROUP        1 Z    SEL  0     **** SEL Z 16
     9 GLL5       17 GROUP        1 Z    GLL  0     **** GLL Z 20
@<TRIPOS>SET

