#    Name: 3tw2_AMP_1_ligand
#    Modification time : Mon Mar 24 21:04:49 2014

@<TRIPOS>MOLECULE
3tw2_AMP_1_ligand
   35    37     1     0     0
SMALL
NO_CHARGES


@<TRIPOS>ATOM
      1 P         -31.7190    4.2290  -23.8880 P.3       1 AMP127      0.0000 
      2 O1P       -32.4430    5.1330  -22.8960 O.co2     1 AMP127      0.0000 
      3 O2P       -30.3340    4.0130  -23.4320 O.co2     1 AMP127      0.0000 
      4 O3P       -32.3350    2.8790  -24.1940 O.co2     1 AMP127      0.0000 
      5 O5'       -31.7680    5.0100  -25.3090 O.3       1 AMP127      0.0000 
      6 C5'       -31.0890    4.4510  -26.4730 C.3       1 AMP127      0.0000 
      7 C4'       -29.7700    5.1580  -26.8390 C.3       1 AMP127      0.0000 
      8 O4'       -29.4200    4.6800  -28.1500 O.3       1 AMP127      0.0000 
      9 C3'       -29.9420    6.6740  -26.9650 C.3       1 AMP127      0.0000 
     10 O3'       -28.8440    7.3700  -26.3150 O.3       1 AMP127      0.0000 
     11 C2'       -29.9540    6.8960  -28.4710 C.3       1 AMP127      0.0000 
     12 O2'       -29.5000    8.1970  -28.8890 O.3       1 AMP127      0.0000 
     13 C1'       -29.0520    5.7730  -28.9890 C.3       1 AMP127      0.0000 
     14 N9        -29.3480    5.3960  -30.3880 N.pl3     1 AMP127      0.0000 
     15 C8        -30.5790    5.1260  -30.8970 C.2       1 AMP127      0.0000 
     16 N7        -30.5100    4.8290  -32.2120 N.2       1 AMP127      0.0000 
     17 C5        -29.1880    4.8550  -32.5350 C.ar      1 AMP127      0.0000 
     18 C6        -28.3940    4.6340  -33.7550 C.ar      1 AMP127      0.0000 
     19 N6        -28.9990    4.3130  -34.9240 N.pl3     1 AMP127      0.0000 
     20 N1        -27.0450    4.7630  -33.6400 N.ar      1 AMP127      0.0000 
     21 C2        -26.4030    5.1040  -32.4930 C.ar      1 AMP127      0.0000 
     22 N3        -27.0730    5.3540  -31.3590 N.ar      1 AMP127      0.0000 
     23 C4        -28.4250    5.2240  -31.3330 C.ar      1 AMP127      0.0000 
     24 H         -31.7469    4.4899  -27.3669 H         1 AMP127      0.0000 
     25 H         -30.8578    3.3765  -26.3136 H         1 AMP127      0.0000 
     26 H         -29.0326    4.9297  -26.1324 H         1 AMP127      0.0000 
     27 H         -30.8922    6.9306  -26.5750 H         1 AMP127      0.0000 
     28 H         -30.9550    6.6709  -28.8209 H         1 AMP127      0.0000 
     29 H         -28.0500    6.0425  -28.8467 H         1 AMP127      0.0000 
     30 H         -31.4084    5.1458  -30.3718 H         1 AMP127      0.0000 
     31 H         -28.3940    4.1641  -35.7062 H         1 AMP127      0.0000 
     32 H         -29.9970    4.2534  -34.9011 H         1 AMP127      0.0000 
     33 H         -25.3518    5.1718  -32.5022 H         1 AMP127      0.0000 
     34 H         -28.0429    6.7922  -26.4711 H         1 AMP127      0.0000 
     35 H         -28.5151    8.1952  -28.7160 H         1 AMP127      0.0000 
@<TRIPOS>BOND
     1    2    1 ar   
     2    3    1 ar   
     3    4    1 ar   
     4    5    1 1    
     5    6    5 1    
     6    7    6 1    
     7   24    6 1    
     8   25    6 1    
     9    8    7 1    
    10    9    7 1    
    11   26    7 1    
    12   13    8 1    
    13   10    9 1    
    14   11    9 1    
    15   27    9 1    
    16   34   10 1    
    17   12   11 1    
    18   13   11 1    
    19   28   11 1    
    20   35   12 1    
    21   14   13 1    
    22   29   13 1    
    23   15   14 1    
    24   23   14 1    
    25   16   15 2    
    26   30   15 1    
    27   17   16 1    
    28   18   17 ar   
    29   23   17 ar   
    30   19   18 1    
    31   20   18 ar   
    32   31   19 1    
    33   32   19 1    
    34   21   20 ar   
    35   22   21 ar   
    36   33   21 1    
    37   23   22 ar   
@<TRIPOS>SUBSTRUCTURE
     1 AMP127      1 GROUP   
@<TRIPOS>SET

