#    Name: 3fp0_FP0_1_INTS_M
#    Modification time : Tue Mar 25 06:11:04 2014

@<TRIPOS>MOLECULE
3fp0_FP0_1_INTS_M
   57     0     6     0     0
SMALL
NO_CHARGES


@<TRIPOS>ATOM
      1 CA         16.8415    4.2290  -33.8870 C.3       2 GLC5        0.0000 
      2 CA         16.8970    4.5570  -31.6810 C.3       6 GLL5        0.0000 
      3 CA         16.7860    3.9010  -36.0930 C.3       4 GLP5        0.0000 
      4 CA         17.8025    8.3855  -30.3640 C.3       2 GLC5        0.0000 
      5 CA         16.8630    6.9730  -31.1380 C.3       6 GLL5        0.0000 
      6 CA         18.7420    9.7980  -29.5900 C.3       4 GLP5        0.0000 
      7 CA         13.7230    2.3960  -27.8255 C.3       2 GLC5        0.0000 
      8 CA         14.3440    4.3490  -27.5390 C.3       6 GLL5        0.0000 
      9 CA         13.1020    0.4430  -28.1120 C.3       4 GLP5        0.0000 
     10 CA         12.7820    3.3385  -26.2740 C.3       2 GLC5        0.0000 
     11 CA         11.2200    2.3280  -25.0090 C.3       4 GLP5        0.0000 
     12 CA         14.6270    2.9425  -33.4450 C.3       2 GLC5        0.0000 
     13 CA         14.3020    4.3490  -31.9990 C.3       6 GLL5        0.0000 
     14 CA         14.9520    1.5360  -34.8910 C.3       4 GLP5        0.0000 
     15 CA         12.6820    3.8990  -32.2225 C.3       2 GLC5        0.0000 
     16 CA         11.0620    3.4490  -32.4460 C.3       4 GLP5        0.0000 
     17 CA         13.5705    2.4805  -31.2545 C.3       2 GLC5        0.0000 
     18 CA         12.8390    0.6120  -30.5100 C.3       4 GLP5        0.0000 
     19 N          19.4770    7.5800  -33.6705 N.am      1 SEC2        0.0000 
     20 N          19.6940    7.6780  -32.1000 N.am      5 SEL2        0.0000 
     21 N          19.2600    7.4820  -35.2410 N.am      3 SEP2        0.0000 
     22 CA         23.2010    6.2320  -31.3850 C.3       2 GLC5        0.0000 
     23 CA         21.2710    6.3990  -30.7210 C.3       6 GLL5        0.0000 
     24 CA         25.1310    6.0650  -32.0490 C.3       4 GLP5        0.0000 
     25 CA         22.3395    7.7500  -29.7355 C.3       2 GLC5        0.0000 
     26 CA         23.4080    9.1010  -28.7500 C.3       4 GLP5        0.0000 
     27 CA         20.0065    8.0985  -30.1555 C.3       2 GLC5        0.0000 
     28 CA         21.8380    5.8170  -28.8895 C.3       2 GLC5        0.0000 
     29 CA         22.4050    5.2350  -27.0580 C.3       4 GLP5        0.0000 
     30 CA         14.2140    7.6115  -32.9720 C.3       2 GLC5        0.0000 
     31 CA         14.4250    7.3890  -30.8160 C.3       6 GLL5        0.0000 
     32 CA         14.0030    7.8340  -35.1280 C.3       4 GLP5        0.0000 
     33 CA         12.8095    8.3125  -31.8455 C.3       2 GLC5        0.0000 
     34 CA         11.1940    9.2360  -32.8750 C.3       4 GLP5        0.0000 
     35 CA         14.1905    9.4020  -31.2620 C.3       2 GLC5        0.0000 
     36 CA         13.9560   11.4150  -31.7080 C.3       4 GLP5        0.0000 
     37 CA         12.1830    4.9930  -28.8290 C.3       2 GLC5        0.0000 
     38 CA         14.3760    4.8880  -28.9600 C.3       6 GLL5        0.0000 
     39 CA          9.9900    5.0980  -28.6980 C.3       4 GLP5        0.0000 
     40 CA         17.3400    8.3050  -28.9175 C.3       2 GLC5        0.0000 
     41 CA         15.9380    6.8120  -28.2450 C.3       6 GLL5        0.0000 
     42 CA         16.5080    6.1915  -26.2315 C.3       2 GLC5        0.0000 
     43 CA         17.0780    5.5710  -24.2180 C.3       4 GLP5        0.0000 
     44 CA         16.3200    4.0785  -25.1835 C.3       2 GLC5        0.0000 
     45 CA         15.5620    2.5860  -26.1490 C.3       6 GLL5        0.0000 
     46 CA         13.3910    2.4570  -25.5790 C.3       2 GLC5        0.0000 
     47 CA         16.9295    2.3110  -24.6385 C.3       2 GLC5        0.0000 
     48 CA         18.2970    2.0360  -23.1280 C.3       4 GLP5        0.0000 
     49 CA         15.0190    1.7635  -24.5405 C.3       2 GLC5        0.0000 
     50 CA         14.4760    0.9410  -22.9320 C.3       4 GLP5        0.0000 
     51 CA         18.5580    4.0783  -27.9245 C.3       2 GLC5        0.0000 
     52 CA         16.7680    3.7830  -27.9680 C.3       6 GLL5        0.0000 
     53 CA         20.2960    3.8990  -27.2750 C.3       4 GLP5        0.0000 
     54 CA         16.1729    4.7935  -25.8980 C.3       2 GLC5        0.0000 
     55 CA         15.6150    3.5830  -27.2660 C.3       6 GLL5        0.0000 
     56 CA         15.1689    1.5688  -27.5815 C.3       2 GLC5        0.0000 
     57 CA         14.4610    0.0030  -28.2800 C.3       4 GLP5        0.0000 
@<TRIPOS>BOND
@<TRIPOS>SUBSTRUCTURE
     1 SEC2       19 GROUP        1 X    SEC  0     ROOT SEC X 2
     2 GLC5        1 GROUP        1 X    GLC  0     **** GLC X 6
     3 SEP2       21 GROUP        1 Y    SEP  0     ROOT SEP Y 9
     4 GLP5        3 GROUP        1 Y    GLP  0     **** GLP Y 13
     5 SEL2       20 GROUP        1 Z    SEL  0     ROOT SEL Z 16
     6 GLL5        2 GROUP        1 Z    GLL  0     **** GLL Z 20
@<TRIPOS>SET

