#    Name: 3fp0_FP0_1_ligand
#    Modification time : Tue Mar 25 06:11:04 2014

@<TRIPOS>MOLECULE
3fp0_FP0_1_ligand
   46    49     1     0     0
SMALL
NO_CHARGES


@<TRIPOS>ATOM
      1 C2         16.8970    4.5570  -31.6810 C.3       1 FP0520      0.0000 
      2 C6         15.6610    5.6940  -29.2550 C.3       1 FP0520      0.0000 
      3 C5         15.5440    6.3300  -30.6860 C.3       1 FP0520      0.0000 
      4 C4         16.8630    6.9730  -31.1380 C.3       1 FP0520      0.0000 
      5 C3         17.6890    5.8640  -31.8490 C.3       1 FP0520      0.0000 
      6 C11        16.8720    4.7320  -29.1800 C.3       1 FP0520      0.0000 
      7 C10        16.7680    3.7830  -27.9680 C.2       1 FP0520      0.0000 
      8 C9         15.6150    3.5830  -27.2660 C.2       1 FP0520      0.0000 
      9 C8         14.3440    4.3490  -27.5390 C.3       1 FP0520      0.0000 
     10 C12        15.5160    5.1850  -31.7220 C.3       1 FP0520      0.0000 
     11 C13        14.3020    4.3490  -31.9990 C.3       1 FP0520      0.0000 
     12 O4         19.6940    7.6780  -32.1000 O.2       1 FP0520      0.0000 
     13 C17        19.9770    6.6820  -31.4400 C.2       1 FP0520      0.0000 
     14 C18        21.2710    6.3990  -30.7210 C.3       1 FP0520      0.0000 
     15 O3         18.9940    5.6740  -31.3110 O.3       1 FP0520      0.0000 
     16 O2         14.8330    5.2990  -32.9680 O.3       1 FP0520      0.0000 
     17 O1         17.0960    3.9490  -30.3840 O.3       1 FP0520      0.0000 
     18 C14        14.4250    7.3890  -30.8160 C.3       1 FP0520      0.0000 
     19 C7         14.3760    4.8880  -28.9600 C.3       1 FP0520      0.0000 
     20 C15        15.9380    6.8120  -28.2450 C.3       1 FP0520      0.0000 
     21 O12        14.7570    7.4490  -27.7250 O.3       1 FP0520      0.0000 
     22 C16        15.5620    2.5860  -26.1490 C.3       1 FP0520      0.0000 
     23 H          17.0266    3.9660  -32.4994 H         1 FP0520      0.0000 
     24 H          17.4072    7.3215  -30.2864 H         1 FP0520      0.0000 
     25 H          16.6634    7.7596  -31.8339 H         1 FP0520      0.0000 
     26 H          17.7020    6.0881  -32.9021 H         1 FP0520      0.0000 
     27 H          17.7700    5.3629  -28.9881 H         1 FP0520      0.0000 
     28 H          17.6572    3.3074  -27.7322 H         1 FP0520      0.0000 
     29 H          14.2586    5.1777  -26.8430 H         1 FP0520      0.0000 
     30 H          13.4879    3.6916  -27.4241 H         1 FP0520      0.0000 
     31 H          13.5667    4.7422  -31.5398 H         1 FP0520      0.0000 
     32 H          14.5970    3.4716  -32.2209 H         1 FP0520      0.0000 
     33 H          14.3160    4.0563  -29.6688 H         1 FP0520      0.0000 
     34 H          13.5113    5.5383  -29.1248 H         1 FP0520      0.0000 
     35 H          16.6038    7.5527  -28.7444 H         1 FP0520      0.0000 
     36 H          16.5490    6.3729  -27.4234 H         1 FP0520      0.0000 
     37 H          22.0485    6.3795  -31.3495 H         1 FP0520      0.0000 
     38 H          21.4708    7.0927  -30.0290 H         1 FP0520      0.0000 
     39 H          21.2503    5.5156  -30.2529 H         1 FP0520      0.0000 
     40 H          14.5641    8.1552  -30.1886 H         1 FP0520      0.0000 
     41 H          14.3802    7.7706  -31.7392 H         1 FP0520      0.0000 
     42 H          13.5243    7.0044  -30.6138 H         1 FP0520      0.0000 
     43 H          15.7784    1.6623  -26.4651 H         1 FP0520      0.0000 
     44 H          16.2127    2.8072  -25.4226 H         1 FP0520      0.0000 
     45 H          14.6555    2.5471  -25.7286 H         1 FP0520      0.0000 
     46 H          14.9910    8.4195  -27.6666 H         1 FP0520      0.0000 
@<TRIPOS>BOND
     1    5    1 1    
     2   10    1 1    
     3   17    1 1    
     4   23    1 1    
     5    3    2 1    
     6    6    2 1    
     7   19    2 1    
     8   20    2 1    
     9    4    3 1    
    10   10    3 1    
    11   18    3 1    
    12    5    4 1    
    13   24    4 1    
    14   25    4 1    
    15   15    5 1    
    16   26    5 1    
    17    7    6 1    
    18   17    6 1    
    19   27    6 1    
    20    8    7 2    
    21   28    7 1    
    22    9    8 1    
    23   22    8 1    
    24   19    9 1    
    25   29    9 1    
    26   30    9 1    
    27   11   10 1    
    28   16   10 1    
    29   16   11 1    
    30   31   11 1    
    31   32   11 1    
    32   13   12 2    
    33   14   13 1    
    34   15   13 1    
    35   37   14 1    
    36   38   14 1    
    37   39   14 1    
    38   40   18 1    
    39   41   18 1    
    40   42   18 1    
    41   33   19 1    
    42   34   19 1    
    43   21   20 1    
    44   35   20 1    
    45   36   20 1    
    46   46   21 1    
    47   43   22 1    
    48   44   22 1    
    49   45   22 1    
@<TRIPOS>SUBSTRUCTURE
     1 FP0520      1 GROUP   
@<TRIPOS>SET

