#    Name: 3ohl_OHL_1_INTS_M
#    Modification time : Tue Mar 25 04:38:27 2014

@<TRIPOS>MOLECULE
3ohl_OHL_1_INTS_M
   56     0    12     0     0
SMALL
NO_CHARGES


@<TRIPOS>ATOM
      1 Zn         -9.9450    9.9270    7.3990 Zn        3 ZIC7        0.0000 
      2 Zn         -9.6270   10.0060    9.7990 Zn       11 ZIL7        0.0000 
      3 Zn        -10.2630    9.8480    4.9990 Zn        7 ZIP7        0.0000 
      4 Zn        -10.0260    9.7150    5.9675 Zn        3 ZIC7        0.0000 
      5 Zn         -9.7890    9.5820    6.9360 Zn       11 ZIL7        0.0000 
      6 CA        -12.5220    9.1270   10.4895 C.3       4 GLC5        0.0000 
      7 CA        -10.7900    9.3670    9.1310 C.3      12 GLL5        0.0000 
      8 CA        -14.2540    8.8870   11.8480 C.3       8 GLP5        0.0000 
      9 CA         -8.8175   19.1325    6.8030 C.3       4 GLC5        0.0000 
     10 CA         -8.4630   16.9490    7.0830 C.3      12 GLL5        0.0000 
     11 CA         -9.1720   21.3160    6.5230 C.3       8 GLP5        0.0000 
     12 CA        -10.2585   17.3985    6.8395 C.3       4 GLC5        0.0000 
     13 CA        -12.0540   17.8480    6.5960 C.3       8 GLP5        0.0000 
     14 CA         -9.2065   16.1020    5.3940 C.3       4 GLC5        0.0000 
     15 CA         -9.9500   15.2550    3.7050 C.3       8 GLP5        0.0000 
     16 CA         -8.0830   17.8900    8.7490 C.3       4 GLC5        0.0000 
     17 CA         -7.7030   18.8310   10.4150 C.3       8 GLP5        0.0000 
     18 N         -12.2740   11.7925   11.7345 N.am      2 SEC2        0.0000 
     19 N         -11.5120   11.5640   10.6290 N.am     10 SEL2        0.0000 
     20 N         -13.0360   12.0210   12.8400 N.am      6 SEP2        0.0000 
     21 N         -13.0530   12.0560   10.6285 N.am      2 SEC2        0.0000 
     22 N         -14.5940   12.5480   10.6280 N.am      6 SEP2        0.0000 
     23 Zn        -11.1685   10.0745    5.3910 Zn        3 ZIC7        0.0000 
     24 Zn        -12.0740   10.3010    5.7830 Zn       11 ZIL7        0.0000 
     25 O         -13.4220   11.0305    5.3160 O.2       1 ALC1        0.0000 
     26 O         -12.0740   10.3010    5.7830 O.2       9 ALL1        0.0000 
     27 O         -14.7700   11.7600    4.8490 O.2       5 ALP1        0.0000 
     28 O         -12.6370   11.5085    5.9215 O.2       1 ALC1        0.0000 
     29 O         -13.2000   12.7160    6.0600 O.2       5 ALP1        0.0000 
     30 CA         -6.9650   15.1985    9.2660 C.3       4 GLC5        0.0000 
     31 CA         -7.9650   14.1060    8.1010 C.3      12 GLL5        0.0000 
     32 CA         -5.9650   16.2910   10.4310 C.3       8 GLP5        0.0000 
     33 CA         -7.7915   14.7905   10.1125 C.3       4 GLC5        0.0000 
     34 CA         -8.2970   13.1220    9.0270 C.3      12 GLL5        0.0000 
     35 CA         -7.2860   16.4590   11.1980 C.3       8 GLP5        0.0000 
     36 CA        -10.8930    9.4835   12.2790 C.3       4 GLC5        0.0000 
     37 CA         -9.1360    9.2180   10.9560 C.3      12 GLL5        0.0000 
     38 CA        -12.6500    9.7490   13.6020 C.3       8 GLP5        0.0000 
     39 O         -13.0735   10.2950    7.9515 O.2       1 ALC1        0.0000 
     40 O         -11.9910   10.0220    7.1130 O.2       9 ALL1        0.0000 
     41 O         -14.1560   10.5680    8.7900 O.2       5 ALP1        0.0000 
     42 CA        -10.5060   16.2840    6.9690 C.3       4 GLC5        0.0000 
     43 CA         -8.9580   14.7200    7.3420 C.3      12 GLL5        0.0000 
     44 CA         -6.8015    7.7803    8.0910 C.3       4 GLC5        0.0000 
     45 CA         -8.3210    7.4480    9.2770 C.3      12 GLL5        0.0000 
     46 CA         -5.5600    8.7400    7.0290 C.3       8 GLP5        0.0000 
     47 CA         -9.0047   14.1275    5.8643 C.3       4 GLC5        0.0000 
     48 CA         -9.5480   13.8420    4.0070 C.3       8 GLP5        0.0000 
     49 CA         -6.2895   13.2655    9.0380 C.3       4 GLC5        0.0000 
     50 CA         -4.4480   12.9170    9.5120 C.3       8 GLP5        0.0000 
     51 CA        -11.9175   15.0072    7.9627 C.3       4 GLC5        0.0000 
     52 CA        -10.6250   13.3530    8.4340 C.3      12 GLL5        0.0000 
     53 CA        -13.3780   16.1680    7.9540 C.3       8 GLP5        0.0000 
     54 CA        -10.3540   13.3268    6.2492 C.3       4 GLC5        0.0000 
     55 CA        -10.2890   14.3400    7.5090 C.3      12 GLL5        0.0000 
     56 CA        -10.2510   12.8070    4.5270 C.3       8 GLP5        0.0000 
@<TRIPOS>BOND
@<TRIPOS>SUBSTRUCTURE
     1 ALC1       25 GROUP        1 X    ALC  0     ROOT ALC X 1
     2 SEC2       18 GROUP        1 X    SEC  0     **** SEC X 2
     3 ZIC7        1 GROUP        1 X    ZIC  0     **** ZIC X 5
     4 GLC5        6 GROUP        1 X    GLC  0     **** GLC X 6
     5 ALP1       27 GROUP        1 Y    ALP  0     ROOT ALP Y 8
     6 SEP2       20 GROUP        1 Y    SEP  0     **** SEP Y 9
     7 ZIP7        3 GROUP        1 Y    ZIP  0     **** ZIP Y 12
     8 GLP5        8 GROUP        1 Y    GLP  0     **** GLP Y 13
     9 ALL1       26 GROUP        1 Z    ALL  0     ROOT ALL Z 15
    10 SEL2       19 GROUP        1 Z    SEL  0     **** SEL Z 16
    11 ZIL7        2 GROUP        1 Z    ZIL  0     **** ZIL Z 19
    12 GLL5        7 GROUP        1 Z    GLL  0     **** GLL Z 20
@<TRIPOS>SET

