#    Name: 3ohl_OHL_1_ligand
#    Modification time : Tue Mar 25 04:38:27 2014

@<TRIPOS>MOLECULE
3ohl_OHL_1_ligand
   41    42     1     0     0
SMALL
NO_CHARGES


@<TRIPOS>ATOM
      1 C         -10.8100    9.6680    7.6180 C.2       1 OHL6        0.0000 
      2 N          -9.6270   10.0060    9.7990 N.pl3     1 OHL6        0.0000 
      3 O          -9.7890    9.5820    6.9360 O.2       1 OHL6        0.0000 
      4 CA        -10.7900    9.3670    9.1310 C.3       1 OHL6        0.0000 
      5 CAA        -8.4630   16.9490    7.0830 C.3       1 OHL6        0.0000 
      6 OAC       -11.5120   11.5640   10.6290 O.2       1 OHL6        0.0000 
      7 OAD        -9.2990   11.8240   11.6260 O.2       1 OHL6        0.0000 
      8 OAE       -12.0740   10.3010    5.7830 O.3       1 OHL6        0.0000 
      9 CAF        -7.6140    5.7410   11.2940 C.ar      1 OHL6        0.0000 
     10 CAG        -7.7650    6.1930    9.0290 C.ar      1 OHL6        0.0000 
     11 CAH        -8.1650    6.9790   11.6170 C.ar      1 OHL6        0.0000 
     12 CAI        -8.3210    7.4480    9.2770 C.ar      1 OHL6        0.0000 
     13 CAJ        -7.9650   14.1060    8.1010 C.ar      1 OHL6        0.0000 
     14 CAK       -10.2890   14.3400    7.5090 C.ar      1 OHL6        0.0000 
     15 CAL        -8.2970   13.1220    9.0270 C.ar      1 OHL6        0.0000 
     16 CAM       -10.6250   13.3530    8.4340 C.ar      1 OHL6        0.0000 
     17 CAO        -9.1360    9.2180   10.9560 C.3       1 OHL6        0.0000 
     18 NAP        -7.4320    5.3880   10.0280 N.ar      1 OHL6        0.0000 
     19 NAQ       -11.9910   10.0220    7.1130 N.am      1 OHL6        0.0000 
     20 OAR        -8.6280   15.6830    6.4370 O.3       1 OHL6        0.0000 
     21 CAT        -8.5270    7.8510   10.5940 C.ar      1 OHL6        0.0000 
     22 CAU        -8.9580   14.7200    7.3420 C.ar      1 OHL6        0.0000 
     23 CAV        -9.6260   12.7410    9.1890 C.ar      1 OHL6        0.0000 
     24 SAX       -10.0370   11.5130   10.3570 S.o2      1 OHL6        0.0000 
     25 H         -10.7567    8.2804    9.2623 H         1 OHL6        0.0000 
     26 H         -11.7274    9.7318    9.5639 H         1 OHL6        0.0000 
     27 H          -7.3507    5.1040   12.0786 H         1 OHL6        0.0000 
     28 H          -7.6215    5.9124    8.0331 H         1 OHL6        0.0000 
     29 H          -8.3019    7.2440   12.5951 H         1 OHL6        0.0000 
     30 H          -8.5736    8.0630    8.5016 H         1 OHL6        0.0000 
     31 H          -6.9807   14.3818    7.9760 H         1 OHL6        0.0000 
     32 H         -11.0246   14.7892    6.9481 H         1 OHL6        0.0000 
     33 H          -7.5623   12.6770    9.5907 H         1 OHL6        0.0000 
     34 H         -11.6055   13.0776    8.5588 H         1 OHL6        0.0000 
     35 H          -9.9632    9.0417   11.6744 H         1 OHL6        0.0000 
     36 H          -8.3680    9.7957   11.5110 H         1 OHL6        0.0000 
     37 H         -12.8343   10.0874    7.7069 H         1 OHL6        0.0000 
     38 H          -7.7396   16.9224    7.7729 H         1 OHL6        0.0000 
     39 H          -8.2214   17.6691    6.4326 H         1 OHL6        0.0000 
     40 H          -9.2995   17.2412    7.5465 H         1 OHL6        0.0000 
     41 H         -12.4502   11.2263    5.7358 H         1 OHL6        0.0000 
@<TRIPOS>BOND
     1    3    1 2    
     2    4    1 1    
     3   19    1 am   
     4    4    2 1    
     5   17    2 1    
     6   24    2 1    
     7   25    4 1    
     8   26    4 1    
     9   20    5 1    
    10   38    5 1    
    11   39    5 1    
    12   40    5 1    
    13   24    6 2    
    14   24    7 2    
    15   19    8 1    
    16   41    8 1    
    17   11    9 ar   
    18   18    9 ar   
    19   27    9 1    
    20   12   10 ar   
    21   18   10 ar   
    22   28   10 1    
    23   21   11 ar   
    24   29   11 1    
    25   21   12 ar   
    26   30   12 1    
    27   15   13 ar   
    28   22   13 ar   
    29   31   13 1    
    30   16   14 ar   
    31   22   14 ar   
    32   32   14 1    
    33   23   15 ar   
    34   33   15 1    
    35   23   16 ar   
    36   34   16 1    
    37   21   17 1    
    38   35   17 1    
    39   36   17 1    
    40   37   19 1    
    41   22   20 1    
    42   24   23 1    
@<TRIPOS>SUBSTRUCTURE
     1 OHL6        1 GROUP   
@<TRIPOS>SET

