#    Name: 4fgh_0U6_1_INTS_M
#    Modification time : Mon Mar 24 19:59:16 2014

@<TRIPOS>MOLECULE
4fgh_0U6_1_INTS_M
   96     0     6     0     0
SMALL
NO_CHARGES


@<TRIPOS>ATOM
      1 O          -2.9955   27.5280   -2.2620 O.2       1 ALC1        0.0000 
      2 O          -3.3230   28.6040   -2.8470 O.2       5 ALL1        0.0000 
      3 O          -2.6680   26.4520   -1.6770 O.2       3 ALP1        0.0000 
      4 O          -1.9705   29.0695   -2.8640 O.2       1 ALC1        0.0000 
      5 O          -0.6180   29.5350   -2.8810 O.2       3 ALP1        0.0000 
      6 CA         -5.0265   27.9560   -1.7505 C.3       2 GLC5        0.0000 
      7 CA         -4.4680   28.6250   -3.7000 C.3       6 GLL5        0.0000 
      8 CA         -5.5850   27.2870    0.1990 C.3       4 GLP5        0.0000 
      9 CA         -4.0850   26.7145   -3.6605 C.3       2 GLC5        0.0000 
     10 CA         -3.7020   24.8040   -3.6210 C.3       4 GLP5        0.0000 
     11 CA         -3.9830   31.6540   -3.3585 C.3       2 GLC5        0.0000 
     12 CA         -3.6470   30.7550   -4.7470 C.3       6 GLL5        0.0000 
     13 CA         -4.3190   32.5530   -1.9700 C.3       4 GLP5        0.0000 
     14 CA         -2.4070   29.6900   -5.2385 C.3       2 GLC5        0.0000 
     15 CA         -1.1670   28.6250   -5.7300 C.3       4 GLP5        0.0000 
     16 CA         -3.9160   31.1345   -8.3425 C.3       2 GLC5        0.0000 
     17 CA         -3.3150   32.2560   -6.6600 C.3       6 GLL5        0.0000 
     18 CA         -4.5170   30.0130  -10.0250 C.3       4 GLP5        0.0000 
     19 CA         -4.4820   32.2725   -9.0130 C.3       2 GLC5        0.0000 
     20 CA         -3.6590   33.3620   -7.4540 C.3       6 GLL5        0.0000 
     21 CA         -5.3050   31.1830  -10.5720 C.3       4 GLP5        0.0000 
     22 CA         -3.0930   31.5325   -9.4545 C.3       2 GLC5        0.0000 
     23 CA         -1.6690   33.0520   -8.8840 C.3       6 GLL5        0.0000 
     24 CA         -0.5945   34.6665   -9.2025 C.3       2 GLC5        0.0000 
     25 CA          0.4800   36.2810   -9.5210 C.3       4 GLP5        0.0000 
     26 CA         -0.3965   32.1615   -9.5580 C.3       2 GLC5        0.0000 
     27 CA          0.8760   31.2710  -10.2320 C.3       4 GLP5        0.0000 
     28 CA         -6.4850   33.2185   -9.3460 C.3       2 GLC5        0.0000 
     29 CA         -6.2700   35.1950   -8.7190 C.3       6 GLL5        0.0000 
     30 CA         -6.7000   31.2420   -9.9730 C.3       4 GLP5        0.0000 
     31 CA         -6.3165   35.6395   -2.6625 C.3       2 GLC5        0.0000 
     32 CA         -7.1290   35.1470   -4.3880 C.3       6 GLL5        0.0000 
     33 CA         -5.5040   36.1320   -0.9370 C.3       4 GLP5        0.0000 
     34 CA        -10.7175   35.8555   -4.9550 C.3       2 GLC5        0.0000 
     35 CA        -10.4190   36.6890   -2.9610 C.3       6 GLL5        0.0000 
     36 CA        -11.0160   35.0220   -6.9490 C.3       4 GLP5        0.0000 
     37 CA        -11.8070   34.4910   -4.4585 C.3       2 GLC5        0.0000 
     38 CA        -11.6660   35.8570   -3.2850 C.3       6 GLL5        0.0000 
     39 CA        -11.9480   33.1250   -5.6320 C.3       4 GLP5        0.0000 
     40 CA        -12.1090   34.9530   -1.3770 C.3       2 GLC5        0.0000 
     41 CA        -12.5520   34.0490    0.5310 C.3       4 GLP5        0.0000 
     42 CA        -11.1980   35.4125   -0.0055 C.3       2 GLC5        0.0000 
     43 CA         -9.8440   36.7760   -0.5420 C.3       6 GLL5        0.0000 
     44 CA         -7.6740   36.4540   -0.7395 C.3       2 GLC5        0.0000 
     45 CA        -11.5540   36.2590    1.1230 C.3       2 GLC5        0.0000 
     46 CA         -9.9630   37.3990    0.7950 C.3       6 GLL5        0.0000 
     47 CA        -13.1450   35.1190    1.4510 C.3       4 GLP5        0.0000 
     48 CA         -7.8470   37.7810    0.6475 C.3       2 GLC5        0.0000 
     49 CA         -5.7310   38.1630    0.5000 C.3       4 GLP5        0.0000 
     50 CA         -9.0690   39.1815    0.7915 C.3       2 GLC5        0.0000 
     51 CA         -8.1750   40.9640    0.7880 C.3       4 GLP5        0.0000 
     52 CA         -3.7470   34.3850   -4.7270 C.3       2 GLC5        0.0000 
     53 CA         -5.1960   32.7540   -5.1880 C.3       6 GLL5        0.0000 
     54 CA         -2.2980   36.0160   -4.2660 C.3       4 GLP5        0.0000 
     55 CA         -5.0970   26.1755   -3.9830 C.3       2 GLC5        0.0000 
     56 CA         -6.4920   27.5470   -4.3450 C.3       6 GLL5        0.0000 
     57 CA         -6.5540   26.4520   -5.8340 C.3       2 GLC5        0.0000 
     58 CA         -6.6160   25.3570   -7.3230 C.3       4 GLP5        0.0000 
     59 CA         -7.4465   28.5760   -3.3995 C.3       2 GLC5        0.0000 
     60 CA         -8.4010   29.6050   -2.4540 C.3       4 GLP5        0.0000 
     61 O          -6.5735   25.0555   -4.1400 O.2       1 ALC1        0.0000 
     62 O          -7.4210   26.4800   -4.1790 O.2       5 ALL1        0.0000 
     63 O          -5.7260   23.6310   -4.1010 O.2       3 ALP1        0.0000 
     64 O          -8.9150   26.4595   -4.5020 O.2       1 ALC1        0.0000 
     65 O         -10.4090   26.4390   -4.8250 O.2       3 ALP1        0.0000 
     66 O          -8.2470   26.8905   -5.2440 O.2       1 ALC1        0.0000 
     67 O          -9.0730   27.3010   -6.3090 O.2       3 ALP1        0.0000 
     68 O          -7.8280   25.3285   -3.1445 O.2       1 ALC1        0.0000 
     69 O          -8.2350   24.1770   -2.1100 O.2       3 ALP1        0.0000 
     70 CA        -13.0675   34.6550   -4.4910 C.3       2 GLC5        0.0000 
     71 CA        -14.1870   36.1850   -3.3500 C.3       6 GLL5        0.0000 
     72 CA        -14.0005   36.1915   -1.3640 C.3       2 GLC5        0.0000 
     73 CA        -13.8140   36.1980    0.6220 C.3       4 GLP5        0.0000 
     74 CA         -8.1340   30.2925   -4.3915 C.3       2 GLC5        0.0000 
     75 CA         -7.8670   30.9800   -6.3290 C.3       6 GLL5        0.0000 
     76 CA         -3.6505   35.2204   -6.1296 C.3       2 GLC5        0.0000 
     77 CA         -4.7790   34.1490   -7.0930 C.3       6 GLL5        0.0000 
     78 CA         -2.4270   36.6390   -5.6300 C.3       4 GLP5        0.0000 
     79 CA         -8.8227   34.3262   -5.6675 C.3       2 GLC5        0.0000 
     80 CA         -6.7780   34.7900   -5.6580 C.3       6 GLL5        0.0000 
     81 CA        -10.6920   33.6840   -6.3120 C.3       4 GLP5        0.0000 
     82 CA        -11.9378   35.9305   -5.7992 C.3       2 GLC5        0.0000 
     83 CA        -12.8130   37.1680   -5.3040 C.3       6 GLL5        0.0000 
     84 CA        -12.3905   37.0418   -0.4480 C.3       2 GLC5        0.0000 
     85 CA        -10.5520   37.3140   -1.6130 C.3       6 GLL5        0.0000 
     86 CA        -12.7058   38.0778    0.9485 C.3       2 GLC5        0.0000 
     87 CA        -11.4930   39.0510   -0.1230 C.3       6 GLL5        0.0000 
     88 CA        -14.2810   37.3800    1.4690 C.3       4 GLP5        0.0000 
     89 CA        -10.2637   40.1838    0.9110 C.3       2 GLC5        0.0000 
     90 CA         -9.3970   41.5920    1.3940 C.3       4 GLP5        0.0000 
     91 CA         -6.8196   29.4638   -3.6376 C.3       2 GLC5        0.0000 
     92 CA         -4.6770   29.6450   -4.6470 C.3       6 GLL5        0.0000 
     93 CA         -6.9110   30.9810   -8.2027 C.3       2 GLC5        0.0000 
     94 CA         -6.3770   30.4600   -6.5360 C.3       6 GLL5        0.0000 
     95 CA         -8.6155   31.7260   -6.8918 C.3       2 GLC5        0.0000 
     96 CA        -10.1090   32.7320   -7.3510 C.3       4 GLP5        0.0000 
@<TRIPOS>BOND
@<TRIPOS>SUBSTRUCTURE
     1 ALC1        1 GROUP        1 X    ALC  0     ROOT ALC X 1
     2 GLC5        6 GROUP        1 X    GLC  0     **** GLC X 6
     3 ALP1        3 GROUP        1 Y    ALP  0     ROOT ALP Y 8
     4 GLP5        8 GROUP        1 Y    GLP  0     **** GLP Y 13
     5 ALL1        2 GROUP        1 Z    ALL  0     ROOT ALL Z 15
     6 GLL5        7 GROUP        1 Z    GLL  0     **** GLL Z 20
@<TRIPOS>SET

