#    Name: 4fgh_0U6_1_ligand
#    Modification time : Mon Mar 24 19:59:16 2014

@<TRIPOS>MOLECULE
4fgh_0U6_1_ligand
   73    76     1     0     0
SMALL
NO_CHARGES


@<TRIPOS>ATOM
      1 N01        -3.3230   28.6040   -2.8470 N.pl3     1 0U6202      0.0000 
      2 C02        -4.4680   28.6250   -3.7000 C.ar      1 0U6202      0.0000 
      3 C03        -4.6770   29.6450   -4.6470 C.ar      1 0U6202      0.0000 
      4 C04        -3.6470   30.7550   -4.7470 C.3       1 0U6202      0.0000 
      5 C05        -4.0580   31.9500   -5.5610 C.ar      1 0U6202      0.0000 
      6 C06        -3.3150   32.2560   -6.6600 C.ar      1 0U6202      0.0000 
      7 C07        -3.6590   33.3620   -7.4540 C.ar      1 0U6202      0.0000 
      8 O08        -2.9110   33.6920   -8.6130 O.3       1 0U6202      0.0000 
      9 C09        -1.6690   33.0520   -8.8840 C.3       1 0U6202      0.0000 
     10 C10        -4.7790   34.1490   -7.0930 C.ar      1 0U6202      0.0000 
     11 O11        -5.1470   35.2770   -7.9010 O.3       1 0U6202      0.0000 
     12 C12        -6.2700   35.1950   -8.7190 C.3       1 0U6202      0.0000 
     13 C13        -5.5290   33.8480   -5.9850 C.ar      1 0U6202      0.0000 
     14 C14        -6.7780   34.7900   -5.6580 C.2       1 0U6202      0.0000 
     15 C15        -7.1290   35.1470   -4.3880 C.2       1 0U6202      0.0000 
     16 C16        -8.3940   35.9970   -4.2120 C.2       1 0U6202      0.0000 
     17 N17        -9.2410   35.8610   -3.0640 N.am      1 0U6202      0.0000 
     18 N18        -8.9590   34.9840   -2.0540 N.2       1 0U6202      0.0000 
     19 C19        -8.9480   35.5600   -0.7370 C.2       1 0U6202      0.0000 
     20 C20       -10.4190   36.6890   -2.9610 C.3       1 0U6202      0.0000 
     21 C21       -11.6660   35.8570   -3.2850 C.2       1 0U6202      0.0000 
     22 C22       -12.9060   36.5100   -3.9950 C.2       1 0U6202      0.0000 
     23 C23       -12.8130   37.1680   -5.3040 C.3       1 0U6202      0.0000 
     24 C24       -10.5520   37.3140   -1.6130 C.ar      1 0U6202      0.0000 
     25 C25        -9.8440   36.7760   -0.5420 C.ar      1 0U6202      0.0000 
     26 C26        -9.9630   37.3990    0.7950 C.ar      1 0U6202      0.0000 
     27 C27       -10.7680   38.5000    0.9790 C.ar      1 0U6202      0.0000 
     28 C28       -11.4930   39.0510   -0.1230 C.ar      1 0U6202      0.0000 
     29 C29       -11.3820   38.4570   -1.4230 C.ar      1 0U6202      0.0000 
     30 O30        -8.6750   36.7790   -5.0700 O.2       1 0U6202      0.0000 
     31 C31        -5.1960   32.7540   -5.1880 C.ar      1 0U6202      0.0000 
     32 C32        -5.9040   29.5100   -5.4690 C.ar      1 0U6202      0.0000 
     33 N33        -6.7420   28.4710   -5.2600 N.ar      1 0U6202      0.0000 
     34 C34        -6.4920   27.5470   -4.3450 C.ar      1 0U6202      0.0000 
     35 N35        -7.4210   26.4800   -4.1790 N.pl3     1 0U6202      0.0000 
     36 N36        -5.3570   27.6060   -3.5570 N.ar      1 0U6202      0.0000 
     37 C37       -14.1870   36.1850   -3.3500 C.3       1 0U6202      0.0000 
     38 C38        -6.3770   30.4600   -6.5360 C.3       1 0U6202      0.0000 
     39 C39        -7.8670   30.9800   -6.3290 C.3       1 0U6202      0.0000 
     40 H          -2.5029   29.0544   -3.2001 H         1 0U6202      0.0000 
     41 H          -3.4374   28.1408   -1.9682 H         1 0U6202      0.0000 
     42 H          -2.7089   30.3306   -5.1705 H         1 0U6202      0.0000 
     43 H          -3.3841   31.0880   -3.7177 H         1 0U6202      0.0000 
     44 H          -2.4967   31.6880   -6.9254 H         1 0U6202      0.0000 
     45 H          -7.2769   35.0899   -6.5027 H         1 0U6202      0.0000 
     46 H          -6.6369   34.9054   -3.5585 H         1 0U6202      0.0000 
     47 H          -8.4215   35.2282    0.0031 H         1 0U6202      0.0000 
     48 H         -10.3758   37.4899   -3.7107 H         1 0U6202      0.0000 
     49 H         -11.7052   34.9051   -3.0527 H         1 0U6202      0.0000 
     50 H          -9.4285   36.9773    1.5532 H         1 0U6202      0.0000 
     51 H         -10.8637   38.9430    1.8987 H         1 0U6202      0.0000 
     52 H         -12.0867   39.8625    0.0131 H         1 0U6202      0.0000 
     53 H         -11.8948   38.8523   -2.2040 H         1 0U6202      0.0000 
     54 H          -5.7253   32.5114   -4.3639 H         1 0U6202      0.0000 
     55 H          -8.2376   26.5140   -4.7552 H         1 0U6202      0.0000 
     56 H          -7.1784   25.7869   -3.5002 H         1 0U6202      0.0000 
     57 H          -6.3378   29.9790   -7.5235 H         1 0U6202      0.0000 
     58 H          -5.7288   31.3468   -6.5757 H         1 0U6202      0.0000 
     59 H          -1.2593   33.3814   -9.7347 H         1 0U6202      0.0000 
     60 H          -1.0021   33.2121   -8.1562 H         1 0U6202      0.0000 
     61 H          -1.7733   32.0615   -8.9733 H         1 0U6202      0.0000 
     62 H          -6.4181   36.0403   -9.2323 H         1 0U6202      0.0000 
     63 H          -6.1890   34.4562   -9.3880 H         1 0U6202      0.0000 
     64 H          -7.1019   35.0228   -8.1915 H         1 0U6202      0.0000 
     65 H         -12.1785   37.9407   -5.2870 H         1 0U6202      0.0000 
     66 H         -12.4917   36.5404   -6.0131 H         1 0U6202      0.0000 
     67 H         -13.6983   37.5223   -5.6053 H         1 0U6202      0.0000 
     68 H         -14.3584   35.1999   -3.3401 H         1 0U6202      0.0000 
     69 H         -14.2142   36.4968   -2.4002 H         1 0U6202      0.0000 
     70 H         -14.9589   36.6121   -3.8210 H         1 0U6202      0.0000 
     71 H          -7.9737   31.4655   -5.4613 H         1 0U6202      0.0000 
     72 H          -8.1443   31.6107   -7.0538 H         1 0U6202      0.0000 
     73 H          -8.5260   30.2278   -6.3270 H         1 0U6202      0.0000 
@<TRIPOS>BOND
     1    2    1 1    
     2   40    1 1    
     3   41    1 1    
     4    3    2 ar   
     5   36    2 ar   
     6    4    3 1    
     7   32    3 ar   
     8    5    4 1    
     9   42    4 1    
    10   43    4 1    
    11    6    5 ar   
    12   31    5 ar   
    13    7    6 ar   
    14   44    6 1    
    15    8    7 1    
    16   10    7 ar   
    17    9    8 1    
    18   59    9 1    
    19   60    9 1    
    20   61    9 1    
    21   11   10 1    
    22   13   10 ar   
    23   12   11 1    
    24   62   12 1    
    25   63   12 1    
    26   64   12 1    
    27   14   13 1    
    28   31   13 ar   
    29   15   14 2    
    30   45   14 1    
    31   16   15 1    
    32   46   15 1    
    33   17   16 am   
    34   30   16 2    
    35   18   17 1    
    36   20   17 1    
    37   19   18 2    
    38   25   19 1    
    39   47   19 1    
    40   21   20 1    
    41   24   20 1    
    42   48   20 1    
    43   22   21 2    
    44   49   21 1    
    45   23   22 1    
    46   37   22 1    
    47   65   23 1    
    48   66   23 1    
    49   67   23 1    
    50   25   24 ar   
    51   29   24 ar   
    52   26   25 ar   
    53   27   26 ar   
    54   50   26 1    
    55   28   27 ar   
    56   51   27 1    
    57   29   28 ar   
    58   52   28 1    
    59   53   29 1    
    60   54   31 1    
    61   33   32 ar   
    62   38   32 1    
    63   34   33 ar   
    64   35   34 1    
    65   36   34 ar   
    66   55   35 1    
    67   56   35 1    
    68   68   37 1    
    69   69   37 1    
    70   70   37 1    
    71   39   38 1    
    72   57   38 1    
    73   58   38 1    
    74   71   39 1    
    75   72   39 1    
    76   73   39 1    
@<TRIPOS>SUBSTRUCTURE
     1 0U6202      1 GROUP   
@<TRIPOS>SET

