#    Name: 2vpr_TDC_1_INTS_M
#    Modification time : Tue Mar 25 02:22:18 2014

@<TRIPOS>MOLECULE
2vpr_TDC_1_INTS_M
   51     0    12     0     0
SMALL
NO_CHARGES


@<TRIPOS>ATOM
      1 Zn          2.8275   43.2475   33.8020 Zn        3 ZIC7        0.0000 
      2 Zn          3.6120   42.9190   33.2390 Zn       11 ZIL7        0.0000 
      3 Zn          2.0430   43.5760   34.3650 Zn        7 ZIP7        0.0000 
      4 Zn          2.6615   43.0905   35.0725 Zn        3 ZIC7        0.0000 
      5 Zn          3.2800   42.6050   35.7800 Zn       11 ZIL7        0.0000 
      6 N           2.0925   42.9115   39.1985 N.am      2 SEC2        0.0000 
      7 N           3.1600   42.2480   38.2060 N.am     10 SEL2        0.0000 
      8 N           1.0250   43.5750   40.1910 N.am      6 SEP2        0.0000 
      9 CA          9.2515   41.7325   34.1035 C.3       4 GLC5        0.0000 
     10 CA          7.3520   41.1380   33.2500 C.3      12 GLL5        0.0000 
     11 CA         11.1510   42.3270   34.9570 C.3       8 GLP5        0.0000 
     12 CA          4.3555   43.4320   30.6225 C.3       4 GLC5        0.0000 
     13 CA          5.4760   42.1400   32.0090 C.3      12 GLL5        0.0000 
     14 CA          3.2350   44.7240   29.2360 C.3       8 GLP5        0.0000 
     15 O           9.4120   43.1695   29.4765 O.2       1 ALC1        0.0000 
     16 O           8.4140   43.2900   30.2970 O.2       9 ALL1        0.0000 
     17 O          10.4100   43.0490   28.6560 O.2       5 ALP1        0.0000 
     18 CA         10.4135   43.8080   33.0565 C.3       4 GLC5        0.0000 
     19 CA          9.4860   43.7710   31.2440 C.3      12 GLL5        0.0000 
     20 CA         11.3410   43.8450   34.8690 C.3       8 GLP5        0.0000 
     21 CA         10.2520   45.8375   30.9925 C.3       4 GLC5        0.0000 
     22 CA         11.0180   47.9040   30.7410 C.3       8 GLP5        0.0000 
     23 CA          6.2655   45.0005   28.9550 C.3       4 GLC5        0.0000 
     24 CA          7.4170   44.3570   29.8950 C.3      12 GLL5        0.0000 
     25 CA          5.1140   45.6440   28.0150 C.3       8 GLP5        0.0000 
     26 CA          6.7570   45.3270   31.7200 C.3       4 GLC5        0.0000 
     27 CA          6.0970   46.2970   33.5450 C.3       8 GLP5        0.0000 
     28 N           7.0375   41.0975   27.6740 N.am      2 SEC2        0.0000 
     29 N           7.7620   40.7940   28.8860 N.am     10 SEL2        0.0000 
     30 N           6.3130   41.4010   26.4620 N.am      6 SEP2        0.0000 
     31 N           8.7560   41.1575   28.0180 N.am      2 SEC2        0.0000 
     32 N           9.7500   41.5210   27.1500 N.am      6 SEP2        0.0000 
     33 N           8.4840   39.6075   28.9960 N.am      2 SEC2        0.0000 
     34 N           9.2060   38.4210   29.1060 N.am      6 SEP2        0.0000 
     35 CA          5.4765   40.6930   28.1645 C.3       4 GLC5        0.0000 
     36 CA          5.9010   40.4580   30.1390 C.3      12 GLL5        0.0000 
     37 CA          5.0520   40.9280   26.1900 C.3       8 GLP5        0.0000 
     38 N           7.7345   38.6870   28.7525 N.am      2 SEC2        0.0000 
     39 N           6.2630   38.9530   28.3990 N.am     10 SEL2        0.0000 
     40 CA          3.7000   40.1707   36.5598 C.3       4 GLC5        0.0000 
     41 CA          4.5740   42.0110   35.7720 C.3      12 GLL5        0.0000 
     42 CA          2.5500   38.5710   36.7510 C.3       8 GLP5        0.0000 
     43 CA          2.9718   41.0340   39.5272 C.3       4 GLC5        0.0000 
     44 CA          4.4210   41.6490   38.1630 C.3      12 GLL5        0.0000 
     45 CA          1.2160   40.6760   40.2570 C.3       8 GLP5        0.0000 
     46 CA          3.6387   39.9815   37.7742 C.3       4 GLC5        0.0000 
     47 CA          5.0340   41.1350   39.4320 C.3      12 GLL5        0.0000 
     48 CA          9.4752   41.3887   35.3633 C.3       4 GLC5        0.0000 
     49 CA          7.1100   40.7720   35.7700 C.3      12 GLL5        0.0000 
     50 CA          6.1585   44.2405   32.8317 C.3       4 GLC5        0.0000 
     51 CA          6.9640   42.2280   32.2280 C.3      12 GLL5        0.0000 
@<TRIPOS>BOND
@<TRIPOS>SUBSTRUCTURE
     1 ALC1       15 GROUP        1 X    ALC  0     ROOT ALC X 1
     2 SEC2        6 GROUP        1 X    SEC  0     **** SEC X 2
     3 ZIC7        1 GROUP        1 X    ZIC  0     **** ZIC X 5
     4 GLC5        9 GROUP        1 X    GLC  0     **** GLC X 6
     5 ALP1       17 GROUP        1 Y    ALP  0     ROOT ALP Y 8
     6 SEP2        8 GROUP        1 Y    SEP  0     **** SEP Y 9
     7 ZIP7        3 GROUP        1 Y    ZIP  0     **** ZIP Y 12
     8 GLP5       11 GROUP        1 Y    GLP  0     **** GLP Y 13
     9 ALL1       16 GROUP        1 Z    ALL  0     ROOT ALL Z 15
    10 SEL2        7 GROUP        1 Z    SEL  0     **** SEL Z 16
    11 ZIL7        2 GROUP        1 Z    ZIL  0     **** ZIL Z 19
    12 GLL5       10 GROUP        1 Z    GLL  0     **** GLL Z 20
@<TRIPOS>SET

