#    Name: 2vpr_TDC_1_ligand
#    Modification time : Tue Mar 25 02:22:18 2014

@<TRIPOS>MOLECULE
2vpr_TDC_1_ligand
   53    56     1     0     0
SMALL
NO_CHARGES


@<TRIPOS>ATOM
      1 O12         3.6120   42.9190   33.2390 O.2       1 TDC1206     0.0000 
      2 C12         4.7300   42.3350   33.2970 C.2       1 TDC1206     0.0000 
      3 C1B         5.2980   41.8480   34.5890 C.ar      1 TDC1206     0.0000 
      4 C11         4.5740   42.0110   35.7720 C.ar      1 TDC1206     0.0000 
      5 O11         3.2800   42.6050   35.7800 O.3       1 TDC1206     0.0000 
      6 C1A         5.1260   41.5300   36.9650 C.ar      1 TDC1206     0.0000 
      7 C10         4.4210   41.6490   38.1630 C.ar      1 TDC1206     0.0000 
      8 O10         3.1600   42.2480   38.2060 O.3       1 TDC1206     0.0000 
      9 C9          5.0340   41.1350   39.4320 C.ar      1 TDC1206     0.0000 
     10 C8          6.2970   40.5330   39.3990 C.ar      1 TDC1206     0.0000 
     11 C7          6.9530   40.4260   38.1650 C.ar      1 TDC1206     0.0000 
     12 C61         6.3870   40.9170   36.9650 C.ar      1 TDC1206     0.0000 
     13 C6          7.1100   40.7720   35.7700 C.ar      1 TDC1206     0.0000 
     14 C62         8.4890   40.1290   35.7690 C.3       1 TDC1206     0.0000 
     15 C51         6.5720   41.2630   34.5790 C.ar      1 TDC1206     0.0000 
     16 C5          7.3520   41.1380   33.2500 C.3       1 TDC1206     0.0000 
     17 C1C         5.4760   42.1400   32.0090 C.3       1 TDC1206     0.0000 
     18 C1          5.1450   40.7960   31.3190 C.2       1 TDC1206     0.0000 
     19 O1          4.2330   40.0580   31.7010 O.2       1 TDC1206     0.0000 
     20 O1C         5.1330   43.2070   31.1550 O.3       1 TDC1206     0.0000 
     21 C41         6.9640   42.2280   32.2280 C.3       1 TDC1206     0.0000 
     22 C4          7.8110   42.0580   30.9390 C.3       1 TDC1206     0.0000 
     23 N4          8.4140   43.2900   30.2970 N.4       1 TDC1206     0.0000 
     24 C43         9.4860   43.7710   31.2440 C.3       1 TDC1206     0.0000 
     25 C42         7.4170   44.3570   29.8950 C.3       1 TDC1206     0.0000 
     26 C3          7.1560   41.0930   29.9140 C.2       1 TDC1206     0.0000 
     27 O3          7.7620   40.7940   28.8860 O.co2     1 TDC1206     0.0000 
     28 C2          5.9010   40.4580   30.1390 C.2       1 TDC1206     0.0000 
     29 C21         5.4450   39.4480   29.1750 C.2       1 TDC1206     0.0000 
     30 O21         6.2630   38.9530   28.3990 O.2       1 TDC1206     0.0000 
     31 N21         4.2550   38.8800   29.1700 N.am      1 TDC1206     0.0000 
     32 H           4.5032   41.2438   40.2816 H         1 TDC1206     0.0000 
     33 H           6.7280   40.1823   40.2470 H         1 TDC1206     0.0000 
     34 H           7.8858   39.9721   38.1244 H         1 TDC1206     0.0000 
     35 H           7.1539   40.1554   32.8144 H         1 TDC1206     0.0000 
     36 H           8.4221   41.2116   33.4594 H         1 TDC1206     0.0000 
     37 H           7.2067   43.1844   32.6771 H         1 TDC1206     0.0000 
     38 H           8.7430   41.4316   31.3058 H         1 TDC1206     0.0000 
     39 H           8.9428   42.9381   29.3814 H         1 TDC1206     0.0000 
     40 H           3.6368   39.1472   29.9092 H         1 TDC1206     0.0000 
     41 H           4.0790   38.2338   28.4274 H         1 TDC1206     0.0000 
     42 H           8.8804   40.0909   34.8495 H         1 TDC1206     0.0000 
     43 H           9.1347   40.6341   36.3417 H         1 TDC1206     0.0000 
     44 H           8.4617   39.1912   36.1150 H         1 TDC1206     0.0000 
     45 H          10.1905   43.0767   31.3910 H         1 TDC1206     0.0000 
     46 H           9.9474   44.5881   30.8985 H         1 TDC1206     0.0000 
     47 H           9.1116   44.0033   32.1417 H         1 TDC1206     0.0000 
     48 H           7.8665   45.1476   29.4792 H         1 TDC1206     0.0000 
     49 H           6.7535   44.0138   29.2301 H         1 TDC1206     0.0000 
     50 H           6.8975   44.6945   30.6800 H         1 TDC1206     0.0000 
     51 H           3.1795   42.9937   36.6958 H         1 TDC1206     0.0000 
     52 H           2.5680   41.5731   38.6464 H         1 TDC1206     0.0000 
     53 H           4.4016   43.6948   31.6315 H         1 TDC1206     0.0000 
@<TRIPOS>BOND
     1    2    1 2    
     2    3    2 1    
     3   17    2 1    
     4    4    3 ar   
     5   15    3 ar   
     6    5    4 1    
     7    6    4 ar   
     8   51    5 1    
     9    7    6 ar   
    10   12    6 ar   
    11    8    7 1    
    12    9    7 ar   
    13   52    8 1    
    14   10    9 ar   
    15   32    9 1    
    16   11   10 ar   
    17   33   10 1    
    18   12   11 ar   
    19   34   11 1    
    20   13   12 ar   
    21   14   13 1    
    22   15   13 ar   
    23   42   14 1    
    24   43   14 1    
    25   44   14 1    
    26   16   15 1    
    27   21   16 1    
    28   35   16 1    
    29   36   16 1    
    30   18   17 1    
    31   20   17 1    
    32   21   17 1    
    33   19   18 2    
    34   28   18 1    
    35   53   20 1    
    36   22   21 1    
    37   37   21 1    
    38   23   22 1    
    39   26   22 1    
    40   38   22 1    
    41   24   23 1    
    42   25   23 1    
    43   39   23 1    
    44   45   24 1    
    45   46   24 1    
    46   47   24 1    
    47   48   25 1    
    48   49   25 1    
    49   50   25 1    
    50   27   26 ar   
    51   28   26 2    
    52   29   28 1    
    53   30   29 2    
    54   31   29 am   
    55   40   31 1    
    56   41   31 1    
@<TRIPOS>SUBSTRUCTURE
     1 TDC1206     1 GROUP   
@<TRIPOS>SET

