#    Name: 1Z5U_3_CAVITY_N1_6.mol2
#    Modification time : Mon Mar 10 22:02:00 2014

@<TRIPOS>MOLECULE
1Z5U_3_CAVITY_N1_6.mol2
  147     0     7     0     0
SMALL
NO_CHARGES


@<TRIPOS>ATOM
      1 NZ         37.3998   18.4231   26.8977 N.2       4 LYS4        0.0000 
      2 CZ         36.7653   14.9643   30.0811 C.ar      5 PHE5        0.0000 
      3 CA         36.5430   16.1968   29.2555 C.3       6 GLY6        0.0000 
      4 NZ         36.3207   17.4293   28.4299 N.2       4 LYS4        0.0000 
      5 CZ         35.2416   16.4355   29.9622 C.ar      5 PHE5        0.0000 
      6 CZ         35.0194   17.6680   29.1367 C.ar      5 PHE5        0.0000 
      7 CA         33.9403   16.6742   30.6690 C.3       6 GLY6        0.0000 
      8 CZ         33.7180   17.9066   29.8434 C.ar      5 PHE5        0.0000 
      9 OG         32.6389   16.9128   31.3757 O.2       1 SER1        0.0000 
     10 OG         32.4166   18.1453   30.5501 O.2       1 SER1        0.0000 
     11 DU         46.5869   14.1145   26.1679 H         7 CUB7        0.0000 
     12 N          46.3647   15.3470   25.3423 N.2       2 ALA2        0.0000 
     13 DU         45.2856   14.3532   26.8746 H         7 CUB7        0.0000 
     14 CA         45.0633   15.5857   26.0491 C.3       6 GLY6        0.0000 
     15 O          44.2065   13.3594   28.4069 O.2       2 ALA2        0.0000 
     16 CA         43.9842   14.5919   27.5813 C.3       6 GLY6        0.0000 
     17 O          42.9051   13.5980   29.1136 O.2       2 ALA2        0.0000 
     18 CA         42.6828   14.8305   28.2881 C.3       6 GLY6        0.0000 
     19 CA         42.4606   16.0630   27.4625 C.3       6 GLY6        0.0000 
     20 O          41.6037   13.8367   29.8204 O.2       2 ALA2        0.0000 
     21 DU         41.3815   15.0692   28.9948 H         7 CUB7        0.0000 
     22 CA         41.1592   16.3017   28.1692 C.3       6 GLY6        0.0000 
     23 OG         40.5247   12.8429   31.3527 O.2       1 SER1        0.0000 
     24 OG         40.3024   14.0754   30.5271 O.2       1 SER1        0.0000 
     25 DU         40.0801   15.3079   29.7015 H         7 CUB7        0.0000 
     26 DU         39.8578   16.5404   28.8760 H         7 CUB7        0.0000 
     27 NZ         39.6355   17.7729   28.0504 N.2       4 LYS4        0.0000 
     28 CZ         39.0010   14.3141   31.2338 C.ar      5 PHE5        0.0000 
     29 CZ         38.7787   15.5466   30.4083 C.ar      5 PHE5        0.0000 
     30 CA         38.5564   16.7791   29.5827 C.3       6 GLY6        0.0000 
     31 NZ         38.3342   18.0116   28.7571 N.2       4 LYS4        0.0000 
     32 CZ         37.4773   15.7853   31.1150 C.ar      5 PHE5        0.0000 
     33 CA         37.2551   17.0178   30.2894 C.3       6 GLY6        0.0000 
     34 CZ         38.0887   14.2503   23.2080 C.ar      5 PHE5        0.0000 
     35 CA         37.0096   13.2565   24.7403 C.3       6 GLY6        0.0000 
     36 CA         35.7082   13.4952   25.4470 C.3       6 GLY6        0.0000 
     37 CZ         34.6291   12.5014   26.9793 C.ar      5 PHE5        0.0000 
     38 CA         34.4068   13.7339   26.1538 C.3       6 GLY6        0.0000 
     39 CZ         33.3278   12.7401   27.6861 C.ar      5 PHE5        0.0000 
     40 OG         33.1055   13.9726   26.8605 O.2       1 SER1        0.0000 
     41 CZ         32.2487   11.7463   29.2183 C.ar      5 PHE5        0.0000 
     42 CZ         32.0264   12.9787   28.3928 C.ar      5 PHE5        0.0000 
     43 OG         31.8041   14.2112   27.5672 O.2       1 SER1        0.0000 
     44 N          30.7250   13.2174   29.0995 N.2       2 ALA2        0.0000 
     45 OG         30.5027   14.4499   28.2739 O.2       1 SER1        0.0000 
     46 CZ         32.8380   10.6866   27.4777 C.ar      5 PHE5        0.0000 
     47 OG         32.6157   11.9191   26.6521 O.2       1 SER1        0.0000 
     48 N          31.7589    9.6928   29.0100 N.2       2 ALA2        0.0000 
     49 CZ         31.5366   10.9253   28.1844 C.ar      5 PHE5        0.0000 
     50 OG         31.3143   12.1578   27.3589 O.2       1 SER1        0.0000 
     51 N          30.4575    9.9315   29.7167 N.2       2 ALA2        0.0000 
     52 N          30.2352   11.1640   28.8912 N.2       2 ALA2        0.0000 
     53 N          30.0130   12.3965   28.0656 N.2       2 ALA2        0.0000 
     54 N          28.7116   12.6351   28.7723 N.2       2 ALA2        0.0000 
     55 OG         28.4893   13.8676   27.9468 O.2       1 SER1        0.0000 
     56 CA         26.3311   11.8800   31.0113 C.3       6 GLY6        0.0000 
     57 OD1        28.8111    9.5220   26.8233 O.3       3 ASP3        0.0000 
     58 NZ         32.1259    9.8656   26.4438 N.2       4 LYS4        0.0000 
     59 NZ         30.8246   10.1043   27.1505 N.2       4 LYS4        0.0000 
     60 OG         30.6023   11.3368   26.3249 O.2       1 SER1        0.0000 
     61 N          29.7455    9.1105   28.6828 N.2       2 ALA2        0.0000 
     62 NZ         29.5232   10.3430   27.8572 N.2       4 LYS4        0.0000 
     63 OG         29.3009   11.5755   27.0317 O.2       1 SER1        0.0000 
     64 N          28.4441    9.3492   29.3895 N.2       2 ALA2        0.0000 
     65 N          28.2218   10.5817   28.5640 N.2       2 ALA2        0.0000 
     66 N          27.9995   11.8142   27.7384 N.2       2 ALA2        0.0000 
     67 OG         27.7772   13.0467   26.9128 O.2       1 SER1        0.0000 
     68 N          26.9204   10.8204   29.2707 N.2       2 ALA2        0.0000 
     69 CA         26.6982   12.0529   28.4451 C.3       6 GLY6        0.0000 
     70 CZ         26.4759   13.2853   27.6196 C.ar      5 PHE5        0.0000 
     71 CZ         25.3968   12.2915   29.1519 C.ar      5 PHE5        0.0000 
     72 OD1        27.5098    9.7607   27.5301 O.3       3 ASP3        0.0000 
     73 OD1        27.2875   10.9932   26.7045 O.3       3 ASP3        0.0000 
     74 OD1        26.2084    9.9994   28.2368 O.3       3 ASP3        0.0000 
     75 CA         25.9861   11.2319   27.4112 C.3       6 GLY6        0.0000 
     76 CA         25.7638   12.4644   26.5857 C.3       6 GLY6        0.0000 
     77 OD1        43.8847   17.7050   29.5303 O.3       3 ASP3        0.0000 
     78 NZ         42.8056   16.7112   31.0626 N.2       4 LYS4        0.0000 
     79 CA         35.9537   17.2564   30.9961 C.3       6 GLY6        0.0000 
     80 NZ         34.6523   17.4951   31.7029 N.2       4 LYS4        0.0000 
     81 CA         34.4300   18.7276   30.8773 C.3       6 GLY6        0.0000 
     82 OD1        46.2199   13.9417   28.7341 O.3       3 ASP3        0.0000 
     83 CA         45.9976   15.1741   27.9085 C.3       6 GLY6        0.0000 
     84 CA         45.7753   16.4066   27.0830 C.3       6 GLY6        0.0000 
     85 OD1        44.6963   15.4128   28.6153 O.3       3 ASP3        0.0000 
     86 CA         44.4740   16.6453   27.7897 C.3       6 GLY6        0.0000 
     87 OD1        43.3949   15.6515   29.3220 O.3       3 ASP3        0.0000 
     88 O          43.1726   16.8840   28.4964 O.2       2 ALA2        0.0000 
     89 N          42.3158   14.6577   30.8543 N.2       2 ALA2        0.0000 
     90 OD1        42.0935   15.8902   30.0287 O.3       3 ASP3        0.0000 
     91 O          41.8712   17.1227   29.2032 O.2       2 ALA2        0.0000 
     92 OG         41.0144   14.8964   31.5610 O.2       1 SER1        0.0000 
     93 OD1        40.7921   16.1289   30.7354 O.3       3 ASP3        0.0000 
     94 NZ         40.5699   17.3614   29.9099 N.2       4 LYS4        0.0000 
     95 NZ         40.3476   18.5939   29.0843 N.2       4 LYS4        0.0000 
     96 OD1        39.2685   17.6001   30.6166 O.3       3 ASP3        0.0000 
     97 CZ         33.8175   14.7935   27.8944 C.ar      5 PHE5        0.0000 
     98 CA         32.7384   13.7997   29.4267 C.3       6 GLY6        0.0000 
     99 CZ         32.5162   15.0322   28.6011 C.ar      5 PHE5        0.0000 
    100 OG         31.2148   15.2709   29.3079 O.2       1 SER1        0.0000 
    101 DU         39.9574   13.4273   26.9270 H         7 CUB7        0.0000 
    102 N          39.7351   14.6598   26.1014 N.2       2 ALA2        0.0000 
    103 N          39.5128   15.8923   25.2758 N.2       2 ALA2        0.0000 
    104 OG         38.6560   13.6660   27.6337 O.2       1 SER1        0.0000 
    105 DU         38.4337   14.8985   26.8081 H         7 CUB7        0.0000 
    106 DU         38.2114   16.1309   25.9826 H         7 CUB7        0.0000 
    107 CZ         37.9891   17.3634   25.1570 C.ar      5 PHE5        0.0000 
    108 CZ         37.3546   13.9046   28.3404 C.ar      5 PHE5        0.0000 
    109 DU         37.1323   15.1371   27.5149 H         7 CUB7        0.0000 
    110 CZ         36.9100   16.3696   26.6893 C.ar      5 PHE5        0.0000 
    111 CZ         36.6878   17.6021   25.8637 C.ar      5 PHE5        0.0000 
    112 CZ         36.0532   14.1433   29.0472 C.ar      5 PHE5        0.0000 
    113 DU         35.8310   15.3758   28.2216 H         7 CUB7        0.0000 
    114 CZ         35.6087   16.6083   27.3960 C.ar      5 PHE5        0.0000 
    115 CZ         34.5296   15.6145   28.9283 C.ar      5 PHE5        0.0000 
    116 CZ         34.3073   16.8470   28.1028 C.ar      5 PHE5        0.0000 
    117 CA         33.2282   15.8532   29.6350 C.3       6 GLY6        0.0000 
    118 CZ         33.0059   17.0857   28.8095 C.ar      5 PHE5        0.0000 
    119 CA         31.9268   16.0919   30.3418 C.3       6 GLY6        0.0000 
    120 CZ         31.7046   17.3244   29.5162 C.ar      5 PHE5        0.0000 
    121 CA         45.6526   14.5260   24.3084 C.3       6 GLY6        0.0000 
    122 CA         44.3512   14.7647   25.0151 C.3       6 GLY6        0.0000 
    123 DU         41.9708   14.0096   27.2542 H         7 CUB7        0.0000 
    124 CA         41.7485   15.2421   26.4286 C.3       6 GLY6        0.0000 
    125 OG         40.8917   13.0158   28.7865 O.2       1 SER1        0.0000 
    126 DU         40.6694   14.2483   27.9609 H         7 CUB7        0.0000 
    127 CA         40.4471   15.4807   27.1353 C.3       6 GLY6        0.0000 
    128 N          40.2248   16.7132   26.3098 N.2       2 ALA2        0.0000 
    129 OG         39.5903   13.2544   29.4932 O.2       1 SER1        0.0000 
    130 OG         39.3680   14.4869   28.6676 O.2       1 SER1        0.0000 
    131 DU         39.1458   15.7194   27.8421 H         7 CUB7        0.0000 
    132 O          38.9235   16.9519   27.0165 O.2       2 ALA2        0.0000 
    133 CA         38.7012   18.1844   26.1909 C.3       6 GLY6        0.0000 
    134 CZ         38.0667   14.7256   29.3743 C.ar      5 PHE5        0.0000 
    135 DU         37.8444   15.9581   28.5488 H         7 CUB7        0.0000 
    136 NZ         37.6221   17.1906   27.7232 N.2       4 LYS4        0.0000 
    137 DU         39.0230   13.8388   25.0675 H         7 CUB7        0.0000 
    138 N          38.8007   15.0713   24.2419 N.2       2 ALA2        0.0000 
    139 CZ         38.5784   16.3038   23.4164 C.ar      5 PHE5        0.0000 
    140 OG         37.9439   12.8450   26.5998 O.2       1 SER1        0.0000 
    141 DU         37.7216   14.0775   25.7742 H         7 CUB7        0.0000 
    142 CZ         37.4994   15.3100   24.9487 C.ar      5 PHE5        0.0000 
    143 CZ         36.6426   13.0837   27.3065 C.ar      5 PHE5        0.0000 
    144 DU         36.4203   14.3162   26.4809 H         7 CUB7        0.0000 
    145 CZ         36.1980   15.5487   25.6554 C.ar      5 PHE5        0.0000 
    146 CZ         35.3412   13.3224   28.0132 C.ar      5 PHE5        0.0000 
    147 CZ         35.1189   14.5548   27.1877 C.ar      5 PHE5        0.0000 
@<TRIPOS>BOND
@<TRIPOS>SUBSTRUCTURE
     1 SER1        9 GROUP   
     2 ALA2       12 GROUP   
     3 ASP3       57 GROUP   
     4 LYS4        1 GROUP   
     5 PHE5        2 GROUP   
     6 GLY6        3 GROUP   
     7 CUB7       11 GROUP   
@<TRIPOS>SET

