#    Name: 1z5u_CMP_3_INTS_M
#    Modification time : Mon Apr  7 16:52:14 2014

@<TRIPOS>MOLECULE
1z5u_CMP_3_INTS_M
   43     0     9     0     0
SMALL
NO_CHARGES


@<TRIPOS>ATOM
      1 N          42.0850   18.0690   27.7130 N.am      2 SEC2        0.0000 
      2 N          41.4110   17.1540   28.7440 N.am      8 SEL2        0.0000 
      3 N          42.7590   18.9840   26.6820 N.am      5 SEP2        0.0000 
      4 CA         37.4765   17.4400   24.5975 C.3       3 GLC5        0.0000 
      5 CA         38.6150   16.6030   26.2620 C.3       9 GLL5        0.0000 
      6 CA         36.3380   18.2770   22.9330 C.3       6 GLP5        0.0000 
      7 CA         40.7280   17.2415   26.0035 C.3       3 GLC5        0.0000 
      8 CA         42.8410   17.8800   25.7450 C.3       6 GLP5        0.0000 
      9 CA         39.3350   18.0475   24.9830 C.3       3 GLC5        0.0000 
     10 CA         40.0550   19.4920   23.7040 C.3       6 GLP5        0.0000 
     11 CA         35.9175   17.8570   26.9355 C.3       3 GLC5        0.0000 
     12 CA         37.6750   16.6880   27.4280 C.3       9 GLL5        0.0000 
     13 CA         34.1600   19.0260   26.4430 C.3       6 GLP5        0.0000 
     14 CA         36.7520   17.7230   30.1380 C.3       3 GLC5        0.0000 
     15 CA         36.7320   15.6680   29.3240 C.3       9 GLL5        0.0000 
     16 CA         36.7720   19.7780   30.9520 C.3       6 GLP5        0.0000 
     17 O          37.5105   16.4590   31.7445 O.2       1 ALC1        0.0000 
     18 O          36.8390   16.6910   30.2880 O.2       7 ALL1        0.0000 
     19 O          38.1820   16.2270   33.2010 O.2       4 ALP1        0.0000 
     20 CA         34.7180   16.9840   27.0180 C.3       3 GLC5        0.0000 
     21 CA         35.6400   16.0610   28.3130 C.3       9 GLL5        0.0000 
     22 CA         33.7960   17.9070   25.7230 C.3       6 GLP5        0.0000 
     23 CA         30.7925   15.5865   27.5455 C.3       3 GLC5        0.0000 
     24 CA         31.4260   13.6710   28.3780 C.3       9 GLL5        0.0000 
     25 CA         30.1590   17.5020   26.7130 C.3       6 GLP5        0.0000 
     26 CA         31.6900   13.1755   30.2100 C.3       3 GLC5        0.0000 
     27 CA         31.9540   12.6800   32.0420 C.3       6 GLP5        0.0000 
     28 N          29.7135   15.0365   29.7135 N.am      2 SEC2        0.0000 
     29 N          30.7980   14.6370   29.0850 N.am      8 SEL2        0.0000 
     30 N          28.6290   15.4360   30.3420 N.am      5 SEP2        0.0000 
     31 CA         30.3380   17.5020   30.1070 C.3       3 GLC5        0.0000 
     32 CA         31.4900   15.7300   29.4310 C.3       9 GLL5        0.0000 
     33 CA         29.1860   19.2740   30.7830 C.3       6 GLP5        0.0000 
     34 CA         30.8245   16.6160   28.0720 C.3       3 GLC5        0.0000 
     35 CA         29.6080   15.1150   30.1900 C.3       3 GLC5        0.0000 
     36 CA         27.7260   14.5000   30.9490 C.3       6 GLP5        0.0000 
     37 CA         32.3250   14.6755   30.7215 C.3       3 GLC5        0.0000 
     38 CA         33.1600   13.6210   32.0120 C.3       6 GLP5        0.0000 
     39 CA         31.7535   16.2805   27.5900 C.3       3 GLC5        0.0000 
     40 CA         33.3480   15.0590   28.4670 C.3       9 GLL5        0.0000 
     41 CA         37.1060   14.2170   30.2145 C.3       3 GLC5        0.0000 
     42 CA         36.8620   12.8000   31.5510 C.3       6 GLP5        0.0000 
     43 CA         33.1100   14.0457   30.1315 C.3       3 GLC5        0.0000 
@<TRIPOS>BOND
@<TRIPOS>SUBSTRUCTURE
     1 ALC1       17 GROUP        1 X    ALC  0     ROOT ALC X 1
     2 SEC2        1 GROUP        1 X    SEC  0     **** SEC X 2
     3 GLC5        4 GROUP        1 X    GLC  0     **** GLC X 6
     4 ALP1       19 GROUP        1 Y    ALP  0     ROOT ALP Y 8
     5 SEP2        3 GROUP        1 Y    SEP  0     **** SEP Y 9
     6 GLP5        6 GROUP        1 Y    GLP  0     **** GLP Y 13
     7 ALL1       18 GROUP        1 Z    ALL  0     ROOT ALL Z 15
     8 SEL2        2 GROUP        1 Z    SEL  0     **** SEL Z 16
     9 GLL5        5 GROUP        1 Z    GLL  0     **** GLL Z 20
@<TRIPOS>SET

