#    Name: 1z5u_CMP_3_ligand
#    Modification time : Mon Apr  7 16:52:14 2014

@<TRIPOS>MOLECULE
1z5u_CMP_3_ligand
   33    36     1     0     0
SMALL
NO_CHARGES


@<TRIPOS>ATOM
      1 P          40.5050   16.1730   28.0930 P.3       1 CMP506      0.0000 
      2 O1P        40.9940   14.8030   27.7760 O.co2     1 CMP506      0.0000 
      3 O2P        41.4110   17.1540   28.7440 O.co2     1 CMP506      0.0000 
      4 O5'        39.9570   16.8400   26.7350 O.3       1 CMP506      0.0000 
      5 C5'        38.6150   16.6030   26.2620 C.3       1 CMP506      0.0000 
      6 C4'        37.6750   16.6880   27.4280 C.3       1 CMP506      0.0000 
      7 O4'        36.2880   16.4460   27.1130 O.3       1 CMP506      0.0000 
      8 C3'        37.9680   15.6000   28.4320 C.3       1 CMP506      0.0000 
      9 O3'        39.1980   15.9800   29.0320 O.3       1 CMP506      0.0000 
     10 C2'        36.7320   15.6680   29.3240 C.3       1 CMP506      0.0000 
     11 O2'        36.8390   16.6910   30.2880 O.3       1 CMP506      0.0000 
     12 C1'        35.6400   16.0610   28.3130 C.3       1 CMP506      0.0000 
     13 N9         34.6510   15.0200   28.0320 N.pl3     1 CMP506      0.0000 
     14 C8         34.7840   13.8380   27.3470 C.2       1 CMP506      0.0000 
     15 N7         33.6870   13.1170   27.3260 N.2       1 CMP506      0.0000 
     16 C5         32.7720   13.8820   28.0350 C.ar      1 CMP506      0.0000 
     17 C6         31.4260   13.6710   28.3780 C.ar      1 CMP506      0.0000 
     18 N6         30.7440   12.5710   28.0560 N.pl3     1 CMP506      0.0000 
     19 N1         30.7980   14.6370   29.0850 N.ar      1 CMP506      0.0000 
     20 C2         31.4900   15.7300   29.4310 C.ar      1 CMP506      0.0000 
     21 N3         32.7590   16.0360   29.1780 N.ar      1 CMP506      0.0000 
     22 C4         33.3480   15.0590   28.4670 C.ar      1 CMP506      0.0000 
     23 H          38.5262   15.6124   25.8102 H         1 CMP506      0.0000 
     24 H          38.3222   17.3484   25.5192 H         1 CMP506      0.0000 
     25 H          37.7831   17.6278   27.9390 H         1 CMP506      0.0000 
     26 H          37.9897   14.6894   27.9163 H         1 CMP506      0.0000 
     27 H          36.5130   14.7193   29.6889 H         1 CMP506      0.0000 
     28 H          35.1288   16.9438   28.7364 H         1 CMP506      0.0000 
     29 H          35.6497   13.5783   26.9147 H         1 CMP506      0.0000 
     30 H          31.2513   11.8694   27.5556 H         1 CMP506      0.0000 
     31 H          29.7867   12.5468   28.3439 H         1 CMP506      0.0000 
     32 H          30.9204   16.4858   30.0113 H         1 CMP506      0.0000 
     33 H          37.3926   16.2978   31.0221 H         1 CMP506      0.0000 
@<TRIPOS>BOND
     1    2    1 ar   
     2    3    1 ar   
     3    4    1 1    
     4    9    1 1    
     5    5    4 1    
     6    6    5 1    
     7   23    5 1    
     8   24    5 1    
     9    7    6 1    
    10    8    6 1    
    11   25    6 1    
    12   12    7 1    
    13    9    8 1    
    14   10    8 1    
    15   26    8 1    
    16   11   10 1    
    17   12   10 1    
    18   27   10 1    
    19   33   11 1    
    20   13   12 1    
    21   28   12 1    
    22   14   13 1    
    23   22   13 1    
    24   15   14 2    
    25   29   14 1    
    26   16   15 1    
    27   17   16 ar   
    28   22   16 ar   
    29   18   17 1    
    30   19   17 ar   
    31   30   18 1    
    32   31   18 1    
    33   20   19 ar   
    34   21   20 ar   
    35   32   20 1    
    36   22   21 ar   
@<TRIPOS>SUBSTRUCTURE
     1 CMP506      1 GROUP   
@<TRIPOS>SET

