#    Name: 3LZX_3_CAVITY_N1_6.mol2
#    Modification time : Tue Mar 11 12:35:34 2014

@<TRIPOS>MOLECULE
3LZX_3_CAVITY_N1_6.mol2
   91     0     6     0     0
SMALL
NO_CHARGES


@<TRIPOS>ATOM
      1 N           7.3656   -8.3005   15.5540 N.2       2 ALA2        0.0000 
      2 NZ          6.3321   -7.7410   16.4862 N.2       3 LYS4        0.0000 
      3 CZ          7.0768   -9.6817   16.0629 C.ar      4 PHE5        0.0000 
      4 CA          9.4471   -8.6889   15.6812 C.3       5 GLY6        0.0000 
      5 N           8.4137   -8.1294   16.6133 N.2       2 ALA2        0.0000 
      6 O           7.3802   -7.5699   17.5455 O.2       2 ALA2        0.0000 
      7 O           9.1584  -10.0701   16.1900 O.2       2 ALA2        0.0000 
      8 CA          8.1249   -9.5106   17.1222 C.3       5 GLY6        0.0000 
      9 CA          7.0915   -8.9511   18.0544 C.3       5 GLY6        0.0000 
     10 N          13.7481  -15.6299   12.5468 N.2       2 ALA2        0.0000 
     11 N          12.1372  -17.8328   14.4967 N.2       2 ALA2        0.0000 
     12 N          12.8819  -19.7734   14.0734 N.2       2 ALA2        0.0000 
     13 CZ         11.8484  -19.2140   15.0056 C.ar      4 PHE5        0.0000 
     14 O          10.4953   -8.5177   16.7405 O.2       2 ALA2        0.0000 
     15 N           9.4618   -7.9583   17.6726 N.2       2 ALA2        0.0000 
     16 O          11.2400  -10.4584   16.3171 O.2       2 ALA2        0.0000 
     17 O          10.2065   -9.8989   17.2493 O.2       2 ALA2        0.0000 
     18 CA          9.1731   -9.3394   18.1815 C.3       5 GLY6        0.0000 
     19 CA         16.1185  -14.6370   12.1651 C.3       5 GLY6        0.0000 
     20 O           9.9178  -11.2801   17.7582 O.2       2 ALA2        0.0000 
     21 DU         15.8297  -16.0182   12.6740 H         6 CUB7        0.0000 
     22 N          14.7963  -15.4587   13.6061 N.2       2 ALA2        0.0000 
     23 N          14.5075  -16.8399   14.1150 N.2       2 ALA2        0.0000 
     24 N          13.1853  -17.6616   15.5560 N.2       2 ALA2        0.0000 
     25 CZ         12.1519  -17.1021   16.4882 C.ar      4 PHE5        0.0000 
     26 CZ         12.8966  -19.0428   16.0649 C.ar      4 PHE5        0.0000 
     27 N          11.8322   -6.9654   17.2909 N.2       2 ALA2        0.0000 
     28 CA         12.5769   -8.9061   16.8676 C.3       5 GLY6        0.0000 
     29 N          11.5434   -8.3466   17.7998 N.2       2 ALA2        0.0000 
     30 CA         10.5100   -7.7871   18.7319 C.3       5 GLY6        0.0000 
     31 NZ         13.3216  -10.8468   16.4443 N.2       3 LYS4        0.0000 
     32 O          12.2881  -10.2873   17.3764 O.2       2 ALA2        0.0000 
     33 CA         11.2547   -9.7278   18.3086 C.3       5 GLY6        0.0000 
     34 O          13.0328  -12.2280   16.9531 O.2       2 ALA2        0.0000 
     35 O          11.9994  -11.6685   17.8853 O.2       2 ALA2        0.0000 
     36 CA         10.9659  -11.1090   18.8175 C.3       5 GLY6        0.0000 
     37 O          17.9113  -16.4066   12.8011 O.2       2 ALA2        0.0000 
     38 N          16.8779  -15.8471   13.7333 N.2       2 ALA2        0.0000 
     39 NZ         15.8444  -15.2876   14.6654 N.2       3 LYS4        0.0000 
     40 NZ         14.8110  -14.7281   15.5976 N.2       3 LYS4        0.0000 
     41 N          13.7775  -14.1686   16.5298 N.2       2 ALA2        0.0000 
     42 O          12.7441  -13.6091   17.4620 O.2       2 ALA2        0.0000 
     43 CA         11.7106  -13.0497   18.3942 C.3       5 GLY6        0.0000 
     44 O          15.5557  -16.6688   15.1743 O.2       2 ALA2        0.0000 
     45 N          14.5222  -16.1093   16.1065 N.2       2 ALA2        0.0000 
     46 N          13.4888  -15.5498   17.0387 N.2       2 ALA2        0.0000 
     47 OG         12.4553  -14.9903   17.9708 O.2       1 SER1        0.0000 
     48 OG         14.2335  -17.4905   16.6153 O.2       1 SER1        0.0000 
     49 CZ         13.9447  -18.8717   17.1242 C.ar      4 PHE5        0.0000 
     50 CA         13.6250   -8.7349   17.9269 C.3       5 GLY6        0.0000 
     51 CA         12.5916   -8.1755   18.8591 C.3       5 GLY6        0.0000 
     52 NZ         14.3697  -10.6756   17.5036 N.2       3 LYS4        0.0000 
     53 CA         13.3363  -10.1161   18.4357 C.3       5 GLY6        0.0000 
     54 CA         12.3028   -9.5567   19.3679 C.3       5 GLY6        0.0000 
     55 NZ         15.1144  -12.6163   17.0802 N.2       3 LYS4        0.0000 
     56 NZ         14.0810  -12.0568   18.0124 N.2       3 LYS4        0.0000 
     57 CA         13.0475  -11.4973   18.9446 C.3       5 GLY6        0.0000 
     58 N          16.8926  -15.1165   15.7247 N.2       2 ALA2        0.0000 
     59 N          15.8591  -14.5570   16.6569 N.2       2 ALA2        0.0000 
     60 NZ         14.8257  -13.9975   17.5891 N.2       3 LYS4        0.0000 
     61 CA         13.7922  -13.4380   18.5213 C.3       5 GLY6        0.0000 
     62 O          17.6373  -17.0571   15.3014 O.2       2 ALA2        0.0000 
     63 O          16.6038  -16.4977   16.2336 O.2       2 ALA2        0.0000 
     64 OG         15.5704  -15.9382   17.1658 O.2       1 SER1        0.0000 
     65 OG         14.5369  -15.3787   18.0980 O.2       1 SER1        0.0000 
     66 O          16.3151  -17.8788   16.7425 O.2       2 ALA2        0.0000 
     67 OG         15.2816  -17.3194   17.6746 O.2       1 SER1        0.0000 
     68 OG         14.9928  -18.7005   18.1835 O.2       1 SER1        0.0000 
     69 NZ         15.4179  -10.5045   18.5629 N.2       3 LYS4        0.0000 
     70 CA         14.3844   -9.9450   19.4950 C.3       5 GLY6        0.0000 
     71 O          16.1626  -12.4452   18.1395 O.2       2 ALA2        0.0000 
     72 CA         15.1291  -11.8857   19.0717 C.3       5 GLY6        0.0000 
     73 CA         14.0956  -11.3262   20.0039 C.3       5 GLY6        0.0000 
     74 CA         16.9072  -14.3858   17.7162 C.3       5 GLY6        0.0000 
     75 CA         15.8738  -13.8264   18.6484 C.3       5 GLY6        0.0000 
     76 N          18.6854  -16.8860   16.3607 N.2       2 ALA2        0.0000 
     77 N          17.6519  -16.3265   17.2929 N.2       2 ALA2        0.0000 
     78 CA         16.6185  -15.7670   18.2251 C.3       5 GLY6        0.0000 
     79 CA         15.5850  -15.2075   19.1573 C.3       5 GLY6        0.0000 
     80 O          18.3966  -18.2672   16.8696 O.2       2 ALA2        0.0000 
     81 O          17.3632  -17.7077   17.8018 O.2       2 ALA2        0.0000 
     82 OG         16.3297  -17.1482   18.7339 O.2       1 SER1        0.0000 
     83 O          17.0744  -19.0889   18.3106 O.2       2 ALA2        0.0000 
     84 OG         16.0410  -18.5294   19.2428 O.2       1 SER1        0.0000 
     85 CA         18.7001  -16.1554   18.3522 C.3       5 GLY6        0.0000 
     86 O          17.6666  -15.5959   19.2844 O.2       2 ALA2        0.0000 
     87 CA         19.4448  -18.0961   17.9289 C.3       5 GLY6        0.0000 
     88 CA         18.4113  -17.5366   18.8611 C.3       5 GLY6        0.0000 
     89 CA         17.3779  -16.9771   19.7932 C.3       5 GLY6        0.0000 
     90 O          18.1226  -18.9178   19.3699 O.2       2 ALA2        0.0000 
     91 CA         17.0891  -18.3583   20.3021 C.3       5 GLY6        0.0000 
@<TRIPOS>BOND
@<TRIPOS>SUBSTRUCTURE
     1 SER1       47 GROUP   
     2 ALA2        1 GROUP   
     3 LYS4        2 GROUP   
     4 PHE5        3 GROUP   
     5 GLY6        4 GROUP   
     6 CUB7       21 GROUP   
@<TRIPOS>SET

