#    Name: 3lzx_FAD_3_INTS_M
#    Modification time : Mon Mar 24 22:31:54 2014

@<TRIPOS>MOLECULE
3lzx_FAD_3_INTS_M
  129     0     9     0     0
SMALL
NO_CHARGES


@<TRIPOS>ATOM
      1 N           9.1155  -12.3155   17.9900 N.am      2 SEC2        0.0000 
      2 N          10.1390  -11.3010   17.8980 N.am      8 SEL2        0.0000 
      3 N           8.0920  -13.3300   18.0820 N.am      5 SEP2        0.0000 
      4 N          10.6510  -11.5650   15.1060 N.am      2 SEC2        0.0000 
      5 N           9.7120  -10.5210   15.4890 N.am      8 SEL2        0.0000 
      6 N          11.5900  -12.6090   14.7230 N.am      5 SEP2        0.0000 
      7 CA          9.8615   -8.1075   15.1435 C.3       3 GLC5        0.0000 
      8 CA          8.4010   -8.0930   16.6070 C.3       9 GLL5        0.0000 
      9 CA         11.3220   -8.1220   13.6800 C.3       6 GLP5        0.0000 
     10 CA          6.7030   -5.8440   17.4400 C.3       3 GLC5        0.0000 
     11 CA          6.9810   -7.6990   16.9730 C.3       9 GLL5        0.0000 
     12 CA          6.4250   -3.9890   17.9070 C.3       6 GLP5        0.0000 
     13 O           4.5330   -7.9135   18.2350 O.2       1 ALC1        0.0000 
     14 O           5.1550   -9.0030   17.6660 O.2       7 ALL1        0.0000 
     15 O           3.9110   -6.8240   18.8040 O.2       4 ALP1        0.0000 
     16 N           3.2875   -8.8365   14.1650 N.am      2 SEC2        0.0000 
     17 N           3.7150   -8.3390   15.5090 N.am      8 SEL2        0.0000 
     18 N           2.8600   -9.3340   12.8210 N.am      5 SEP2        0.0000 
     19 O           2.9970   -8.1325   16.6655 O.2       1 ALC1        0.0000 
     20 O           3.7150   -8.3390   15.5090 O.2       7 ALL1        0.0000 
     21 O           2.2790   -7.9260   17.8220 O.2       4 ALP1        0.0000 
     22 CA          5.8705   -5.2755   16.8695 C.3       3 GLC5        0.0000 
     23 CA          5.3160   -6.5620   15.8320 C.3       9 GLL5        0.0000 
     24 CA          6.6900   -4.0790   13.2280 C.3       3 GLC5        0.0000 
     25 CA          4.5730   -3.9990   13.4090 C.3       9 GLL5        0.0000 
     26 CA          8.8070   -4.1590   13.0470 C.3       6 GLP5        0.0000 
     27 CA          1.6785   -2.6795   13.1075 C.3       3 GLC5        0.0000 
     28 CA          3.8190   -2.8830   13.0670 C.3       9 GLL5        0.0000 
     29 CA         -0.4620   -2.4760   13.1480 C.3       6 GLP5        0.0000 
     30 CA          3.2515   -0.7955   12.9420 C.3       3 GLC5        0.0000 
     31 CA          2.6840    1.2920   12.8170 C.3       6 GLP5        0.0000 
     32 O           3.0680   -1.2360   11.0075 O.2       1 ALC1        0.0000 
     33 O           4.0100   -2.2860   11.8850 O.2       7 ALL1        0.0000 
     34 O           2.1260   -0.1860   10.1300 O.2       4 ALP1        0.0000 
     35 N           1.9510   -1.4925   13.3505 N.am      2 SEC2        0.0000 
     36 N           2.9090   -2.4330   13.9440 N.am      8 SEL2        0.0000 
     37 N           0.9930   -0.5520   12.7570 N.am      5 SEP2        0.0000 
     38 CA          4.3540   -1.8495   14.8580 C.3       3 GLC5        0.0000 
     39 CA          2.7240   -3.0420   15.1210 C.3       9 GLL5        0.0000 
     40 CA          5.9840   -0.6570   14.5950 C.3       6 GLP5        0.0000 
     41 CA          1.7605   -1.4065   16.3200 C.3       3 GLC5        0.0000 
     42 CA          0.7970    0.2290   17.5190 C.3       6 GLP5        0.0000 
     43 CA          2.2115   -3.6135   16.9210 C.3       3 GLC5        0.0000 
     44 CA          1.6990   -4.1850   18.7210 C.3       6 GLP5        0.0000 
     45 CA          1.6700   -4.6730   14.8530 C.3       3 GLC5        0.0000 
     46 CA          0.6160   -6.3040   14.5850 C.3       6 GLP5        0.0000 
     47 CA          1.1310   -2.7590   14.1345 C.3       3 GLC5        0.0000 
     48 N           2.1300   -4.6910   16.1155 N.am      2 SEC2        0.0000 
     49 N           3.4240   -4.1150   15.4810 N.am      8 SEL2        0.0000 
     50 N           0.8360   -5.2670   16.7500 N.am      5 SEP2        0.0000 
     51 CA          5.3875   -4.3005   16.2710 C.3       3 GLC5        0.0000 
     52 CA          4.3500   -4.6120   14.6350 C.3       9 GLL5        0.0000 
     53 CA          2.4830   -5.4580   14.6100 C.3       3 GLC5        0.0000 
     54 CA          3.9615   -5.9380   13.2225 C.3       3 GLC5        0.0000 
     55 CA          3.5730   -7.2640   11.8100 C.3       6 GLP5        0.0000 
     56 N          18.5975  -14.2075   20.1735 N.am      2 SEC2        0.0000 
     57 N          18.8120  -15.5750   20.2970 N.am      8 SEL2        0.0000 
     58 N          18.3830  -12.8400   20.0500 N.am      5 SEP2        0.0000 
     59 O          19.1940  -17.9130   21.3680 O.2       1 ALC1        0.0000 
     60 O          18.1780  -17.7710   20.4390 O.2       7 ALL1        0.0000 
     61 O          20.2100  -18.0550   22.2970 O.2       4 ALP1        0.0000 
     62 N          18.3745  -20.6160   21.3105 N.am      2 SEC2        0.0000 
     63 N          17.5590  -19.9340   20.5100 N.am      8 SEL2        0.0000 
     64 N          19.1900  -21.2980   22.1110 N.am      5 SEP2        0.0000 
     65 N          17.6315  -21.5550   20.4385 N.am      2 SEC2        0.0000 
     66 N          17.7040  -23.1760   20.3670 N.am      5 SEP2        0.0000 
     67 CA         11.2095  -20.2080   17.2100 C.3       3 GLC5        0.0000 
     68 CA         11.8930  -21.2150   15.7750 C.3       9 GLL5        0.0000 
     69 CA         10.5260  -19.2010   18.6450 C.3       6 GLP5        0.0000 
     70 CA          9.7625  -17.8895   14.3315 C.3       3 GLC5        0.0000 
     71 CA         11.6630  -18.4820   14.6060 C.3       9 GLL5        0.0000 
     72 CA          7.8620  -17.2970   14.0570 C.3       6 GLP5        0.0000 
     73 CA         11.5315  -18.2940   16.6810 C.3       3 GLC5        0.0000 
     74 CA         11.4000  -18.1060   18.7560 C.3       6 GLP5        0.0000 
     75 CA         13.0420  -14.7160   19.4395 C.3       3 GLC5        0.0000 
     76 CA         14.5470  -14.7760   17.7970 C.3       9 GLL5        0.0000 
     77 CA         11.5370  -14.6560   21.0820 C.3       6 GLP5        0.0000 
     78 CA         13.4475  -16.4310   18.7815 C.3       3 GLC5        0.0000 
     79 CA         12.3480  -18.0860   19.7660 C.3       6 GLP5        0.0000 
     80 N          13.2115  -16.1360   18.8880 N.am      2 SEC2        0.0000 
     81 N          13.2100  -15.2480   17.9080 N.am      8 SEL2        0.0000 
     82 N          13.2130  -17.0240   19.8680 N.am      5 SEP2        0.0000 
     83 O          16.1110  -11.8875   16.3160 O.2       1 ALC1        0.0000 
     84 O          15.9140  -12.8830   17.2940 O.2       7 ALL1        0.0000 
     85 O          16.3080  -10.8920   15.3380 O.2       4 ALP1        0.0000 
     86 O          15.3820  -12.4665   15.7320 O.2       1 ALC1        0.0000 
     87 O          14.8500  -12.0500   14.1700 O.2       4 ALP1        0.0000 
     88 CA         12.6325  -13.5335   19.6185 C.3       3 GLC5        0.0000 
     89 CA         13.7280  -12.4110   18.1550 C.3       9 GLL5        0.0000 
     90 CA         14.2160  -10.3380   15.8310 C.3       3 GLC5        0.0000 
     91 CA         13.7590  -10.9960   17.6220 C.3       9 GLL5        0.0000 
     92 CA         14.6730   -9.6800   14.0400 C.3       6 GLP5        0.0000 
     93 N          12.0945   -7.8800   20.6370 N.am      2 SEC2        0.0000 
     94 N          11.6850   -8.1670   19.2740 N.am      8 SEL2        0.0000 
     95 N          12.5040   -7.5930   22.0000 N.am      5 SEP2        0.0000 
     96 N          14.4730   -7.8975   16.3225 N.am      2 SEC2        0.0000 
     97 N          13.3790   -7.9980   17.2920 N.am      8 SEL2        0.0000 
     98 N          15.5670   -7.7970   15.3530 N.am      5 SEP2        0.0000 
     99 N          13.2210   -6.9535   16.5190 N.am      2 SEC2        0.0000 
    100 N          13.0630   -5.9090   15.7460 N.am      5 SEP2        0.0000 
    101 CA          8.0400   -8.3030   18.7800 C.3       3 GLC5        0.0000 
    102 CA          8.3890   -8.7100   20.7700 C.3       6 GLP5        0.0000 
    103 CA          8.4695   -6.4320   15.5255 C.3       3 GLC5        0.0000 
    104 CA          9.2480   -4.9680   14.2610 C.3       6 GLP5        0.0000 
    105 CA          6.6180   -9.8925   17.9228 C.3       3 GLC5        0.0000 
    106 CA          6.7770  -11.5700   19.1020 C.3       6 GLP5        0.0000 
    107 CA          5.1290  -10.1500   15.5515 C.3       3 GLC5        0.0000 
    108 CA          5.9370   -8.7310   16.5140 C.3       9 GLL5        0.0000 
    109 CA          4.7290  -11.9310   15.1330 C.3       6 GLP5        0.0000 
    110 CA          4.3957   -7.2743   13.7195 C.3       3 GLC5        0.0000 
    111 CA          5.1210   -8.0070   15.4260 C.3       9 GLL5        0.0000 
    112 CA          3.3305   -4.8495   12.3595 C.3       3 GLC5        0.0000 
    113 CA          2.4650   -6.2580   11.4810 C.3       6 GLP5        0.0000 
    114 CA          5.1285   -2.3418   14.2658 C.3       3 GLC5        0.0000 
    115 CA         15.6585  -19.9435   16.3545 C.3       3 GLC5        0.0000 
    116 CA         14.5700  -18.0530   17.0100 C.3       9 GLL5        0.0000 
    117 CA         16.6950  -21.1930   15.4240 C.3       6 GLP5        0.0000 
    118 CA         14.6225  -20.9530   19.2077 C.3       3 GLC5        0.0000 
    119 CA         14.6740  -19.3350   17.5600 C.3       9 GLL5        0.0000 
    120 CA         14.9970  -22.0640   21.0630 C.3       6 GLP5        0.0000 
    121 CA         14.1395  -21.1030   15.4078 C.3       3 GLC5        0.0000 
    122 CA         13.8220  -20.3490   17.1450 C.3       9 GLL5        0.0000 
    123 CA         15.6660  -21.4900   14.5930 C.3       6 GLP5        0.0000 
    124 CA         14.4155  -19.8917   15.2210 C.3       3 GLC5        0.0000 
    125 CA         12.7360  -18.8040   15.6460 C.3       9 GLL5        0.0000 
    126 CA         12.8878  -11.3422   19.7523 C.3       3 GLC5        0.0000 
    127 CA         12.0320  -10.9810   21.6160 C.3       6 GLP5        0.0000 
    128 CA         15.0295  -13.5501   19.6231 C.3       3 GLC5        0.0000 
    129 CA         15.9180  -13.8650   21.4000 C.3       6 GLP5        0.0000 
@<TRIPOS>BOND
@<TRIPOS>SUBSTRUCTURE
     1 ALC1       13 GROUP        1 X    ALC  0     ROOT ALC X 1
     2 SEC2        1 GROUP        1 X    SEC  0     **** SEC X 2
     3 GLC5        7 GROUP        1 X    GLC  0     **** GLC X 6
     4 ALP1       15 GROUP        1 Y    ALP  0     ROOT ALP Y 8
     5 SEP2        3 GROUP        1 Y    SEP  0     **** SEP Y 9
     6 GLP5        9 GROUP        1 Y    GLP  0     **** GLP Y 13
     7 ALL1       14 GROUP        1 Z    ALL  0     ROOT ALL Z 15
     8 SEL2        2 GROUP        1 Z    SEL  0     **** SEL Z 16
     9 GLL5        8 GROUP        1 Z    GLL  0     **** GLL Z 20
@<TRIPOS>SET

