#    Name: 3lzx_FAD_3_ligand
#    Modification time : Mon Mar 24 22:31:54 2014

@<TRIPOS>MOLECULE
3lzx_FAD_3_ligand
   84    89     1     0     0
SMALL
NO_CHARGES


@<TRIPOS>ATOM
      1 PA          9.9480  -10.1540   16.9780 P.3       1 FAD1001     0.0000 
      2 O1A        10.1390  -11.3010   17.8980 O.co2     1 FAD1001     0.0000 
      3 O2A         9.7120  -10.5210   15.4890 O.co2     1 FAD1001     0.0000 
      4 O5B         8.7990   -9.1670   17.4340 O.3       1 FAD1001     0.0000 
      5 C5B         8.4010   -8.0930   16.6070 C.3       1 FAD1001     0.0000 
      6 C4B         6.9810   -7.6990   16.9730 C.3       1 FAD1001     0.0000 
      7 O4B         6.7080   -6.4880   16.2540 O.3       1 FAD1001     0.0000 
      8 C3B         5.9370   -8.7310   16.5140 C.3       1 FAD1001     0.0000 
      9 O3B         5.1550   -9.0030   17.6660 O.3       1 FAD1001     0.0000 
     10 C2B         5.1210   -8.0070   15.4260 C.3       1 FAD1001     0.0000 
     11 O2B         3.7150   -8.3390   15.5090 O.3       1 FAD1001     0.0000 
     12 C1B         5.3160   -6.5620   15.8320 C.3       1 FAD1001     0.0000 
     13 N9A         5.1840   -5.6390   14.6990 N.pl3     1 FAD1001     0.0000 
     14 C8A         5.8960   -5.6700   13.5860 C.2       1 FAD1001     0.0000 
     15 N7A         5.5300   -4.6750   12.7810 N.2       1 FAD1001     0.0000 
     16 C5A         4.5730   -3.9990   13.4090 C.ar      1 FAD1001     0.0000 
     17 C6A         3.8190   -2.8830   13.0670 C.ar      1 FAD1001     0.0000 
     18 N6A         4.0100   -2.2860   11.8850 N.pl3     1 FAD1001     0.0000 
     19 N1A         2.9090   -2.4330   13.9440 N.ar      1 FAD1001     0.0000 
     20 C2A         2.7240   -3.0420   15.1210 C.ar      1 FAD1001     0.0000 
     21 N3A         3.4240   -4.1150   15.4810 N.ar      1 FAD1001     0.0000 
     22 C4A         4.3500   -4.6120   14.6350 C.ar      1 FAD1001     0.0000 
     23 N1         17.1800  -16.2700   18.8940 N.2       1 FAD1001     0.0000 
     24 C2         18.0970  -16.4950   19.8900 C.2       1 FAD1001     0.0000 
     25 O2         18.8120  -15.5750   20.2970 O.2       1 FAD1001     0.0000 
     26 N3         18.1780  -17.7710   20.4390 N.am      1 FAD1001     0.0000 
     27 C4         17.3940  -18.8220   20.0030 C.2       1 FAD1001     0.0000 
     28 O4         17.5590  -19.9340   20.5100 O.2       1 FAD1001     0.0000 
     29 C4X        16.4790  -18.5900   18.9820 C.2       1 FAD1001     0.0000 
     30 N5         15.6490  -19.6170   18.5110 N.2       1 FAD1001     0.0000 
     31 C5X        14.6740  -19.3350   17.5600 C.ar      1 FAD1001     0.0000 
     32 C6         13.8220  -20.3490   17.1450 C.ar      1 FAD1001     0.0000 
     33 C7         12.8440  -20.0850   16.1950 C.ar      1 FAD1001     0.0000 
     34 C7M        11.8930  -21.2150   15.7750 C.3       1 FAD1001     0.0000 
     35 C8         12.7360  -18.8040   15.6460 C.ar      1 FAD1001     0.0000 
     36 C8M        11.6630  -18.4820   14.6060 C.3       1 FAD1001     0.0000 
     37 C9         13.5940  -17.7830   16.0520 C.ar      1 FAD1001     0.0000 
     38 C9A        14.5700  -18.0530   17.0100 C.ar      1 FAD1001     0.0000 
     39 N10        15.4510  -17.0400   17.4290 N.pl3     1 FAD1001     0.0000 
     40 C10        16.3780  -17.3070   18.4350 C.2       1 FAD1001     0.0000 
     41 C1'        15.3590  -15.6730   16.8690 C.3       1 FAD1001     0.0000 
     42 C2'        14.5470  -14.7760   17.7970 C.3       1 FAD1001     0.0000 
     43 O2'        13.2100  -15.2480   17.9080 O.3       1 FAD1001     0.0000 
     44 C3'        14.5610  -13.3430   17.2780 C.3       1 FAD1001     0.0000 
     45 O3'        15.9140  -12.8830   17.2940 O.3       1 FAD1001     0.0000 
     46 C4'        13.7280  -12.4110   18.1550 C.3       1 FAD1001     0.0000 
     47 O4'        12.3440  -12.8060   18.2010 O.3       1 FAD1001     0.0000 
     48 C5'        13.7590  -10.9960   17.6220 C.3       1 FAD1001     0.0000 
     49 O5'        13.0330  -10.1970   18.5540 O.3       1 FAD1001     0.0000 
     50 P          12.2860   -8.8380   18.1030 P.3       1 FAD1001     0.0000 
     51 O1P        11.6850   -8.1670   19.2740 O.co2     1 FAD1001     0.0000 
     52 O2P        13.3790   -7.9980   17.2920 O.co2     1 FAD1001     0.0000 
     53 O3P        11.2860   -9.2170   16.8640 O.3       1 FAD1001     0.0000 
     54 H           8.4112   -8.3635   15.5465 H         1 FAD1001     0.0000 
     55 H           9.0379   -7.2128   16.7393 H         1 FAD1001     0.0000 
     56 H           6.9011   -7.5509   18.0153 H         1 FAD1001     0.0000 
     57 H           6.4297   -9.5484   16.1143 H         1 FAD1001     0.0000 
     58 H           5.5596   -8.1707   14.5029 H         1 FAD1001     0.0000 
     59 H           4.6786   -6.3171   16.6242 H         1 FAD1001     0.0000 
     60 H           6.5965   -6.3307   13.3774 H         1 FAD1001     0.0000 
     61 H           3.4457   -1.4808   11.7024 H         1 FAD1001     0.0000 
     62 H           4.6999   -2.6985   11.2901 H         1 FAD1001     0.0000 
     63 H           1.9942   -2.6541   15.7872 H         1 FAD1001     0.0000 
     64 H          18.8631  -17.9377   21.2150 H         1 FAD1001     0.0000 
     65 H          13.9144  -21.2937   17.5398 H         1 FAD1001     0.0000 
     66 H          13.5084  -16.8465   15.6515 H         1 FAD1001     0.0000 
     67 H          14.8734  -15.6937   15.8911 H         1 FAD1001     0.0000 
     68 H          16.3554  -15.2417   16.7509 H         1 FAD1001     0.0000 
     69 H          15.0410  -14.7766   18.7689 H         1 FAD1001     0.0000 
     70 H          14.1637  -13.3305   16.2830 H         1 FAD1001     0.0000 
     71 H          14.1505  -12.3995   19.1507 H         1 FAD1001     0.0000 
     72 H          13.2999  -10.9900   16.6393 H         1 FAD1001     0.0000 
     73 H          14.7944  -10.6832   17.5406 H         1 FAD1001     0.0000 
     74 H          12.3875  -21.9883   15.3781 H         1 FAD1001     0.0000 
     75 H          11.3705  -21.5684   16.5510 H         1 FAD1001     0.0000 
     76 H          11.2309  -20.9083   15.0912 H         1 FAD1001     0.0000 
     77 H          11.7077  -17.5280   14.3094 H         1 FAD1001     0.0000 
     78 H          11.7576  -19.0483   13.7872 H         1 FAD1001     0.0000 
     79 H          10.7416  -18.6350   14.9633 H         1 FAD1001     0.0000 
     80 H           4.8065   -8.1124   17.9582 H         1 FAD1001     0.0000 
     81 H           3.3381   -7.7021   16.1816 H         1 FAD1001     0.0000 
     82 H          12.6534  -14.4247   18.0194 H         1 FAD1001     0.0000 
     83 H          15.9686  -12.2140   16.5528 H         1 FAD1001     0.0000 
     84 H          11.8296  -11.9681   18.0183 H         1 FAD1001     0.0000 
@<TRIPOS>BOND
     1    2    1 ar   
     2    3    1 ar   
     3    4    1 1    
     4   53    1 1    
     5    5    4 1    
     6    6    5 1    
     7   54    5 1    
     8   55    5 1    
     9    7    6 1    
    10    8    6 1    
    11   56    6 1    
    12   12    7 1    
    13    9    8 1    
    14   10    8 1    
    15   57    8 1    
    16   80    9 1    
    17   11   10 1    
    18   12   10 1    
    19   58   10 1    
    20   81   11 1    
    21   13   12 1    
    22   59   12 1    
    23   14   13 1    
    24   22   13 1    
    25   15   14 2    
    26   60   14 1    
    27   16   15 1    
    28   17   16 ar   
    29   22   16 ar   
    30   18   17 1    
    31   19   17 ar   
    32   61   18 1    
    33   62   18 1    
    34   20   19 ar   
    35   21   20 ar   
    36   63   20 1    
    37   22   21 ar   
    38   24   23 1    
    39   40   23 2    
    40   25   24 2    
    41   26   24 am   
    42   27   26 am   
    43   64   26 1    
    44   28   27 2    
    45   29   27 1    
    46   30   29 2    
    47   40   29 1    
    48   31   30 1    
    49   32   31 ar   
    50   38   31 ar   
    51   33   32 ar   
    52   65   32 1    
    53   34   33 1    
    54   35   33 ar   
    55   74   34 1    
    56   75   34 1    
    57   76   34 1    
    58   36   35 1    
    59   37   35 ar   
    60   77   36 1    
    61   78   36 1    
    62   79   36 1    
    63   38   37 ar   
    64   66   37 1    
    65   39   38 1    
    66   40   39 1    
    67   41   39 1    
    68   42   41 1    
    69   67   41 1    
    70   68   41 1    
    71   43   42 1    
    72   44   42 1    
    73   69   42 1    
    74   82   43 1    
    75   45   44 1    
    76   46   44 1    
    77   70   44 1    
    78   83   45 1    
    79   47   46 1    
    80   48   46 1    
    81   71   46 1    
    82   84   47 1    
    83   49   48 1    
    84   72   48 1    
    85   73   48 1    
    86   50   49 1    
    87   51   50 ar   
    88   52   50 ar   
    89   53   50 1    
@<TRIPOS>SUBSTRUCTURE
     1 FAD1001     1 GROUP   
@<TRIPOS>SET

