#    Name: 2p15_EZT_2_INTS_M
#    Modification time : Mon Mar 24 18:08:47 2014

@<TRIPOS>MOLECULE
2p15_EZT_2_INTS_M
  102     0     9     0     0
SMALL
NO_CHARGES


@<TRIPOS>ATOM
      1 CA        -43.0860   -3.0130   45.8110 C.3       3 GLC5        0.0000 
      2 CA        -44.9980   -3.9870   45.5100 C.3       9 GLL5        0.0000 
      3 CA        -41.1740   -2.0390   46.1120 C.3       6 GLP5        0.0000 
      4 CA        -46.2060   -3.0300   44.1940 C.3       3 GLC5        0.0000 
      5 CA        -47.4140   -2.0730   42.8780 C.3       6 GLP5        0.0000 
      6 CA        -47.8780   -5.8835   46.5785 C.3       3 GLC5        0.0000 
      7 CA        -45.8880   -5.5500   47.2920 C.3       9 GLL5        0.0000 
      8 CA        -49.8680   -6.2170   45.8650 C.3       6 GLP5        0.0000 
      9 CA        -45.0395   -3.3615   49.9335 C.3       3 GLC5        0.0000 
     10 CA        -45.0230   -5.0240   48.4870 C.3       9 GLL5        0.0000 
     11 CA        -45.0560   -1.6990   51.3800 C.3       6 GLP5        0.0000 
     12 CA        -43.0640   -7.5560   49.3115 C.3       3 GLC5        0.0000 
     13 CA        -43.6270   -5.7110   48.5320 C.3       9 GLL5        0.0000 
     14 CA        -42.5010   -9.4010   50.0910 C.3       6 GLP5        0.0000 
     15 CA        -43.3585   -5.7455   53.8505 C.3       3 GLC5        0.0000 
     16 CA        -42.6150   -4.9410   52.1480 C.3       9 GLL5        0.0000 
     17 CA        -44.1020   -6.5500   55.5530 C.3       6 GLP5        0.0000 
     18 N         -39.7165   -5.7515   53.9075 N.am      2 SEC2        0.0000 
     19 N         -40.4470   -4.7180   53.1570 N.am      8 SEL2        0.0000 
     20 N         -38.9860   -6.7850   54.6580 N.am      5 SEP2        0.0000 
     21 N         -39.2040   -4.1775   53.4510 N.am      2 SEC2        0.0000 
     22 N         -37.9610   -3.6370   53.7450 N.am      5 SEP2        0.0000 
     23 O         -41.1030   -4.0400   53.9630 O.2       1 ALC1        0.0000 
     24 O         -40.4470   -4.7180   53.1570 O.2       7 ALL1        0.0000 
     25 O         -41.7590   -3.3620   54.7690 O.2       4 ALP1        0.0000 
     26 CA        -38.9955   -6.4610   50.9475 C.3       3 GLC5        0.0000 
     27 CA        -40.5950   -5.1690   50.8560 C.3       9 GLL5        0.0000 
     28 CA        -37.3960   -7.7530   51.0390 C.3       6 GLP5        0.0000 
     29 CA        -39.1815   -5.1630   47.2420 C.3       3 GLC5        0.0000 
     30 CA        -40.5550   -5.6240   48.3940 C.3       9 GLL5        0.0000 
     31 CA        -37.8080   -4.7020   46.0900 C.3       6 GLP5        0.0000 
     32 CA        -40.4105   -5.6935   45.6065 C.3       3 GLC5        0.0000 
     33 CA        -41.4400   -6.1070   47.2530 C.3       9 GLL5        0.0000 
     34 CA        -39.3810   -5.2800   43.9600 C.3       6 GLP5        0.0000 
     35 CA        -41.9705   -7.7540   48.6720 C.3       3 GLC5        0.0000 
     36 CA        -40.3025   -7.8950   46.5365 C.3       3 GLC5        0.0000 
     37 CA        -39.1650   -9.6830   45.8200 C.3       6 GLP5        0.0000 
     38 CA        -41.3065   -5.6680   44.2890 C.3       3 GLC5        0.0000 
     39 CA        -43.2320   -6.0560   44.6180 C.3       9 GLL5        0.0000 
     40 CA        -42.0550   -7.5005   43.5095 C.3       3 GLC5        0.0000 
     41 CA        -40.8780   -8.9450   42.4010 C.3       6 GLP5        0.0000 
     42 CA        -43.7760   -7.2835   41.9125 C.3       3 GLC5        0.0000 
     43 CA        -44.4950   -6.3340   43.7490 C.3       9 GLL5        0.0000 
     44 CA        -43.0570   -8.2330   40.0760 C.3       6 GLP5        0.0000 
     45 CA        -45.3110   -6.3085   41.8385 C.3       3 GLC5        0.0000 
     46 CA        -46.1270   -6.2830   39.9280 C.3       6 GLP5        0.0000 
     47 CA        -47.7770   -6.2695   45.3125 C.3       3 GLC5        0.0000 
     48 CA        -45.6860   -6.3220   44.7600 C.3       9 GLL5        0.0000 
     49 N         -47.1245   -6.3880   43.0095 N.am      2 SEC2        0.0000 
     50 N         -46.7720   -5.6090   44.1550 N.am      8 SEL2        0.0000 
     51 N         -47.4770   -7.1670   41.8640 N.am      5 SEP2        0.0000 
     52 CA        -48.0260   -7.8070   45.4485 C.3       3 GLC5        0.0000 
     53 CA        -46.0210   -7.6240   45.2400 C.3       9 GLL5        0.0000 
     54 CA        -50.0310   -7.9900   45.6570 C.3       6 GLP5        0.0000 
     55 CA        -48.5030   -9.2010   45.7620 C.3       3 GLC5        0.0000 
     56 CA        -46.9750  -10.4120   45.8670 C.3       9 GLL5        0.0000 
     57 CA        -48.5630  -10.8490   44.6830 C.3       3 GLC5        0.0000 
     58 CA        -50.1510  -11.2860   43.4990 C.3       6 GLP5        0.0000 
     59 CA        -49.1295  -12.1210   45.9910 C.3       3 GLC5        0.0000 
     60 CA        -47.2870  -11.6290   46.5030 C.3       9 GLL5        0.0000 
     61 CA        -50.9720  -12.6130   45.4790 C.3       6 GLP5        0.0000 
     62 CA        -40.9940  -12.3635   47.0355 C.3       3 GLC5        0.0000 
     63 CA        -42.4200  -11.7760   46.1790 C.3       9 GLL5        0.0000 
     64 CA        -39.5680  -12.9510   47.8920 C.3       6 GLP5        0.0000 
     65 CA        -41.6420  -12.1000   44.0770 C.3       3 GLC5        0.0000 
     66 CA        -42.8760  -10.6700   44.4600 C.3       9 GLL5        0.0000 
     67 CA        -40.4080  -13.5300   43.6940 C.3       6 GLP5        0.0000 
     68 CA        -46.4588   -6.3610   49.1718 C.3       3 GLC5        0.0000 
     69 CA        -47.4620   -7.4350   50.4540 C.3       6 GLP5        0.0000 
     70 CA        -44.0285   -3.3832   51.4793 C.3       3 GLC5        0.0000 
     71 CA        -43.3870   -5.1940   51.0090 C.3       9 GLL5        0.0000 
     72 CA        -40.1183   -3.4480   50.8063 C.3       3 GLC5        0.0000 
     73 CA        -41.2200   -4.9650   52.0730 C.3       9 GLL5        0.0000 
     74 CA        -39.3290   -1.8290   50.1480 C.3       6 GLP5        0.0000 
     75 CA        -40.1430   -3.6723   49.6000 C.3       3 GLC5        0.0000 
     76 CA        -41.3590   -5.4070   49.7100 C.3       9 GLL5        0.0000 
     77 CA        -40.1192   -7.3631   48.8537 C.3       3 GLC5        0.0000 
     78 CA        -39.0400   -8.9150   49.5550 C.3       6 GLP5        0.0000 
     79 CA        -41.5511   -3.8599   46.8154 C.3       3 GLC5        0.0000 
     80 CA        -43.1292   -5.3785   42.5652 C.3       3 GLC5        0.0000 
     81 CA        -42.3950   -4.5620   40.9470 C.3       6 GLP5        0.0000 
     82 CA        -46.5640   -9.8695   47.4922 C.3       3 GLC5        0.0000 
     83 CA        -45.6470  -10.0440   45.5960 C.3       9 GLL5        0.0000 
     84 CA        -46.8170   -9.5110   49.2530 C.3       6 GLP5        0.0000 
     85 CA        -46.0600  -11.8130   44.7237 C.3       3 GLC5        0.0000 
     86 CA        -45.8090  -13.3980   43.7160 C.3       6 GLP5        0.0000 
     87 CA        -48.4102  -12.2973   47.9638 C.3       3 GLC5        0.0000 
     88 CA        -50.0340  -12.5220   49.2190 C.3       6 GLP5        0.0000 
     89 CA        -46.8017  -10.7918   47.9808 C.3       3 GLC5        0.0000 
     90 CA        -46.2978  -12.7353   45.2122 C.3       3 GLC5        0.0000 
     91 CA        -45.8025  -10.5265   47.7908 C.3       3 GLC5        0.0000 
     92 CA        -44.9570  -12.1490   46.6480 C.3       9 GLL5        0.0000 
     93 CA        -45.2985  -12.4700   45.0222 C.3       3 GLC5        0.0000 
     94 CA        -42.5290  -13.1038   46.1202 C.3       3 GLC5        0.0000 
     95 CA        -43.1000  -10.6990   45.7600 C.3       9 GLL5        0.0000 
     96 CA        -42.2980  -14.9700   46.2710 C.3       6 GLP5        0.0000 
     97 CA        -44.3135  -12.1759   44.4654 C.3       3 GLC5        0.0000 
     98 CA        -42.6253  -10.5694   47.8876 C.3       3 GLC5        0.0000 
     99 CA        -42.6190   -9.5720   46.3010 C.3       9 GLL5        0.0000 
    100 CA        -42.5610  -10.7340   49.6400 C.3       6 GLP5        0.0000 
    101 CA        -41.8407   -9.5366   44.0532 C.3       3 GLC5        0.0000 
    102 CA        -40.9417   -9.9729   45.7889 C.3       3 GLC5        0.0000 
@<TRIPOS>BOND
@<TRIPOS>SUBSTRUCTURE
     1 ALC1       23 GROUP        1 X    ALC  0     ROOT ALC X 1
     2 SEC2       18 GROUP        1 X    SEC  0     **** SEC X 2
     3 GLC5        1 GROUP        1 X    GLC  0     **** GLC X 6
     4 ALP1       25 GROUP        1 Y    ALP  0     ROOT ALP Y 8
     5 SEP2       20 GROUP        1 Y    SEP  0     **** SEP Y 9
     6 GLP5        3 GROUP        1 Y    GLP  0     **** GLP Y 13
     7 ALL1       24 GROUP        1 Z    ALL  0     ROOT ALL Z 15
     8 SEL2       19 GROUP        1 Z    SEL  0     **** SEL Z 16
     9 GLL5        2 GROUP        1 Z    GLL  0     **** GLL Z 20
@<TRIPOS>SET

