#    Name: 2p15_EZT_2_ligand
#    Modification time : Mon Mar 24 18:08:47 2014

@<TRIPOS>MOLECULE
2p15_EZT_2_ligand
   61    65     1     0     0
SMALL
NO_CHARGES


@<TRIPOS>ATOM
      1 C18       -44.9980   -3.9870   45.5100 C.3       1 EZT601      0.0000 
      2 C13       -45.1180   -5.4750   45.9450 C.3       1 EZT601      0.0000 
      3 C12       -45.8880   -5.5500   47.2920 C.3       1 EZT601      0.0000 
      4 C11       -45.0230   -5.0240   48.4870 C.3       1 EZT601      0.0000 
      5 C9        -43.6270   -5.7110   48.5320 C.3       1 EZT601      0.0000 
      6 C10       -42.7660   -5.4170   49.7910 C.ar      1 EZT601      0.0000 
      7 C1        -43.3870   -5.1940   51.0090 C.ar      1 EZT601      0.0000 
      8 C2        -42.6150   -4.9410   52.1480 C.ar      1 EZT601      0.0000 
      9 C3        -41.2200   -4.9650   52.0730 C.ar      1 EZT601      0.0000 
     10 O3        -40.4470   -4.7180   53.1570 O.3       1 EZT601      0.0000 
     11 C4        -40.5950   -5.1690   50.8560 C.ar      1 EZT601      0.0000 
     12 C5        -41.3590   -5.4070   49.7100 C.ar      1 EZT601      0.0000 
     13 C6        -40.5550   -5.6240   48.3940 C.3       1 EZT601      0.0000 
     14 C7        -41.4400   -6.1070   47.2530 C.3       1 EZT601      0.0000 
     15 C8        -42.8590   -5.4960   47.2140 C.3       1 EZT601      0.0000 
     16 C14       -43.7370   -6.1440   46.0840 C.3       1 EZT601      0.0000 
     17 C15       -43.2320   -6.0560   44.6180 C.3       1 EZT601      0.0000 
     18 C16       -44.4950   -6.3340   43.7490 C.3       1 EZT601      0.0000 
     19 C17       -45.6860   -6.3220   44.7600 C.3       1 EZT601      0.0000 
     20 O17       -46.7720   -5.6090   44.1550 O.3       1 EZT601      0.0000 
     21 C19       -46.0210   -7.6240   45.2400 C.2       1 EZT601      0.0000 
     22 C20       -45.3230   -8.8100   44.9860 C.2       1 EZT601      0.0000 
     23 C21       -45.6470  -10.0440   45.5960 C.ar      1 EZT601      0.0000 
     24 C22       -46.9750  -10.4120   45.8670 C.ar      1 EZT601      0.0000 
     25 C23       -47.2870  -11.6290   46.5030 C.ar      1 EZT601      0.0000 
     26 C24       -46.2860  -12.5160   46.9140 C.ar      1 EZT601      0.0000 
     27 C25       -44.9570  -12.1490   46.6480 C.ar      1 EZT601      0.0000 
     28 C26       -44.6190  -10.9350   46.0090 C.ar      1 EZT601      0.0000 
     29 C27       -43.1000  -10.6990   45.7600 C.3       1 EZT601      0.0000 
     30 F02       -42.4200  -11.7760   46.1790 F         1 EZT601      0.0000 
     31 F03       -42.8760  -10.6700   44.4600 F         1 EZT601      0.0000 
     32 F01       -42.6190   -9.5720   46.3010 F         1 EZT601      0.0000 
     33 H         -46.1619   -6.5823   47.4892 H         1 EZT601      0.0000 
     34 H         -46.7881   -4.9462   47.2224 H         1 EZT601      0.0000 
     35 H         -45.5490   -5.2275   49.4139 H         1 EZT601      0.0000 
     36 H         -44.8884   -3.9532   48.3748 H         1 EZT601      0.0000 
     37 H         -43.8466   -6.8303   48.5624 H         1 EZT601      0.0000 
     38 H         -44.4109   -5.2130   51.0821 H         1 EZT601      0.0000 
     39 H         -43.0766   -4.7367   53.0432 H         1 EZT601      0.0000 
     40 H         -39.5694   -5.1468   50.7876 H         1 EZT601      0.0000 
     41 H         -39.7703   -6.3582   48.5878 H         1 EZT601      0.0000 
     42 H         -40.0834   -4.6781   48.1195 H         1 EZT601      0.0000 
     43 H         -41.5379   -7.2082   47.3102 H         1 EZT601      0.0000 
     44 H         -40.9416   -5.8885   46.2890 H         1 EZT601      0.0000 
     45 H         -42.8028   -4.4451   47.0168 H         1 EZT601      0.0000 
     46 H         -43.9246   -7.1871   46.3007 H         1 EZT601      0.0000 
     47 H         -42.5134   -6.8120   44.4446 H         1 EZT601      0.0000 
     48 H         -42.8797   -5.0784   44.4225 H         1 EZT601      0.0000 
     49 H         -44.4178   -7.2925   43.3103 H         1 EZT601      0.0000 
     50 H         -44.6216   -5.5517   43.0496 H         1 EZT601      0.0000 
     51 H         -46.8929   -7.6882   45.8531 H         1 EZT601      0.0000 
     52 H         -44.5225   -8.7891   44.3139 H         1 EZT601      0.0000 
     53 H         -47.7427   -9.7755   45.5938 H         1 EZT601      0.0000 
     54 H         -48.2794  -11.8691   46.6683 H         1 EZT601      0.0000 
     55 H         -46.5061  -13.3784   47.3793 H         1 EZT601      0.0000 
     56 H         -44.1903  -12.7922   46.9304 H         1 EZT601      0.0000 
     57 H         -44.5094   -3.4397   46.1895 H         1 EZT601      0.0000 
     58 H         -44.5036   -3.8913   44.6460 H         1 EZT601      0.0000 
     59 H         -45.8950   -3.5638   45.3828 H         1 EZT601      0.0000 
     60 H         -41.0875   -4.6536   53.9222 H         1 EZT601      0.0000 
     61 H         -47.0044   -5.9988   45.0462 H         1 EZT601      0.0000 
@<TRIPOS>BOND
     1    2    1 1    
     2   57    1 1    
     3   58    1 1    
     4   59    1 1    
     5    3    2 1    
     6   16    2 1    
     7   19    2 1    
     8    4    3 1    
     9   33    3 1    
    10   34    3 1    
    11    5    4 1    
    12   35    4 1    
    13   36    4 1    
    14    6    5 1    
    15   15    5 1    
    16   37    5 1    
    17    7    6 ar   
    18   12    6 ar   
    19    8    7 ar   
    20   38    7 1    
    21    9    8 ar   
    22   39    8 1    
    23   10    9 1    
    24   11    9 ar   
    25   60   10 1    
    26   12   11 ar   
    27   40   11 1    
    28   13   12 1    
    29   14   13 1    
    30   41   13 1    
    31   42   13 1    
    32   15   14 1    
    33   43   14 1    
    34   44   14 1    
    35   16   15 1    
    36   45   15 1    
    37   17   16 1    
    38   46   16 1    
    39   18   17 1    
    40   47   17 1    
    41   48   17 1    
    42   19   18 1    
    43   49   18 1    
    44   50   18 1    
    45   20   19 1    
    46   21   19 1    
    47   61   20 1    
    48   22   21 2    
    49   51   21 1    
    50   23   22 1    
    51   52   22 1    
    52   24   23 ar   
    53   28   23 ar   
    54   25   24 ar   
    55   53   24 1    
    56   26   25 ar   
    57   54   25 1    
    58   27   26 ar   
    59   55   26 1    
    60   28   27 ar   
    61   56   27 1    
    62   29   28 1    
    63   30   29 1    
    64   31   29 1    
    65   32   29 1    
@<TRIPOS>SUBSTRUCTURE
     1 EZT601      1 GROUP   
@<TRIPOS>SET

