#    Name: 4alx_IZN_8_INTS_M
#    Modification time : Tue Mar 25 05:46:38 2014

@<TRIPOS>MOLECULE
4alx_IZN_8_INTS_M
   71     0     6     0     0
SMALL
NO_CHARGES


@<TRIPOS>ATOM
      1 O         -52.7705  -33.3115  -30.0650 O.2       1 ALC1        0.0000 
      2 O         -53.6340  -34.3210  -29.8850 O.2       5 ALL1        0.0000 
      3 O         -51.9070  -32.3020  -30.2450 O.2       3 ALP1        0.0000 
      4 CA        -51.4815  -36.4715  -29.7415 C.3       2 GLC5        0.0000 
      5 CA        -53.0070  -35.6510  -29.7870 C.3       6 GLL5        0.0000 
      6 CA        -49.9560  -37.2920  -29.6960 C.3       4 GLP5        0.0000 
      7 CA        -52.2155  -37.1645  -28.9325 C.3       2 GLC5        0.0000 
      8 CA        -54.1050  -36.6900  -29.4790 C.3       6 GLL5        0.0000 
      9 CA        -50.3260  -37.6390  -28.3860 C.3       4 GLP5        0.0000 
     10 CA        -55.4685  -37.4005  -30.8230 C.3       2 GLC5        0.0000 
     11 CA        -56.8320  -38.1110  -32.1670 C.3       4 GLP5        0.0000 
     12 CA        -57.1935  -30.9185  -28.6470 C.3       2 GLC5        0.0000 
     13 CA        -55.1070  -31.4590  -28.7190 C.3       6 GLL5        0.0000 
     14 CA        -59.2800  -30.3780  -28.5750 C.3       4 GLP5        0.0000 
     15 CA        -51.2960  -33.2830  -27.6165 C.3       2 GLC5        0.0000 
     16 CA        -53.2190  -33.3110  -27.5750 C.3       6 GLL5        0.0000 
     17 CA        -49.3730  -33.2550  -27.6580 C.3       4 GLP5        0.0000 
     18 CA        -51.9535  -30.9540  -27.3730 C.3       2 GLC5        0.0000 
     19 CA        -53.6620  -32.1210  -26.6820 C.3       6 GLL5        0.0000 
     20 CA        -50.2450  -29.7870  -28.0640 C.3       4 GLP5        0.0000 
     21 CA        -54.4990  -29.1320  -26.4870 C.3       2 GLC5        0.0000 
     22 CA        -54.3260  -30.9860  -27.4930 C.3       6 GLL5        0.0000 
     23 CA        -54.6720  -27.2780  -25.4810 C.3       4 GLP5        0.0000 
     24 CA        -56.7500  -34.4370  -31.4800 C.3       2 GLC5        0.0000 
     25 CA        -55.7630  -33.3230  -30.3840 C.3       6 GLL5        0.0000 
     26 CA        -57.7370  -35.5510  -32.5760 C.3       4 GLP5        0.0000 
     27 CA        -57.4715  -32.8115  -29.1220 C.3       2 GLC5        0.0000 
     28 CA        -59.1800  -32.3000  -27.8600 C.3       4 GLP5        0.0000 
     29 CA        -56.1300  -31.7780  -31.1675 C.3       2 GLC5        0.0000 
     30 CA        -56.4970  -30.2330  -31.9510 C.3       4 GLP5        0.0000 
     31 CA        -53.1300  -35.4325  -32.0625 C.3       2 GLC5        0.0000 
     32 CA        -54.6230  -34.1430  -30.9970 C.3       6 GLL5        0.0000 
     33 CA        -51.6370  -36.7220  -33.1280 C.3       4 GLP5        0.0000 
     34 CA        -55.6720  -35.0965  -32.1745 C.3       2 GLC5        0.0000 
     35 CA        -56.7210  -36.0500  -33.3520 C.3       4 GLP5        0.0000 
     36 CA        -54.8425  -32.6920  -32.2630 C.3       2 GLC5        0.0000 
     37 CA        -55.0620  -31.2410  -33.5290 C.3       4 GLP5        0.0000 
     38 CA        -55.0540  -38.8150  -27.6205 C.3       2 GLC5        0.0000 
     39 CA        -55.9640  -37.2470  -27.7730 C.3       6 GLL5        0.0000 
     40 CA        -54.1440  -40.3830  -27.4680 C.3       4 GLP5        0.0000 
     41 CA        -55.7830  -37.7275  -26.0260 C.3       2 GLC5        0.0000 
     42 CA        -55.6020  -38.2080  -24.2790 C.3       4 GLP5        0.0000 
     43 CA        -57.6630  -33.4140  -27.3905 C.3       2 GLC5        0.0000 
     44 CA        -56.1460  -34.5280  -26.9210 C.3       6 GLL5        0.0000 
     45 CA        -56.6290  -32.9675  -25.6430 C.3       2 GLC5        0.0000 
     46 CA        -57.1120  -31.4070  -24.3650 C.3       4 GLP5        0.0000 
     47 CA        -51.4410  -30.5215  -26.3730 C.3       2 GLC5        0.0000 
     48 CA        -52.6370  -31.2560  -24.6820 C.3       6 GLL5        0.0000 
     49 CA        -51.6480  -29.4795  -23.8725 C.3       2 GLC5        0.0000 
     50 CA        -50.6590  -27.7030  -23.0630 C.3       4 GLP5        0.0000 
     51 CA        -54.4545  -31.2545  -23.8875 C.3       2 GLC5        0.0000 
     52 CA        -56.2720  -31.2530  -23.0930 C.3       4 GLP5        0.0000 
     53 CA        -52.4525  -31.2705  -22.8120 C.3       2 GLC5        0.0000 
     54 CA        -52.2680  -31.2850  -20.9420 C.3       4 GLP5        0.0000 
     55 CA        -52.8705  -33.0740  -24.1140 C.3       2 GLC5        0.0000 
     56 CA        -53.1040  -34.8920  -23.5460 C.3       4 GLP5        0.0000 
     57 CA        -52.9455  -36.9988  -31.1505 C.3       2 GLC5        0.0000 
     58 CA        -52.3350  -37.8270  -32.6680 C.3       4 GLP5        0.0000 
     59 CA        -54.5165  -38.4550  -28.8848 C.3       2 GLC5        0.0000 
     60 CA        -54.4480  -40.4600  -28.8250 C.3       4 GLP5        0.0000 
     61 CA        -53.2292  -30.4028  -29.1055 C.3       2 GLC5        0.0000 
     62 CA        -51.7420  -29.5830  -30.1050 C.3       4 GLP5        0.0000 
     63 CA        -57.1328  -32.1947  -28.4080 C.3       2 GLC5        0.0000 
     64 CA        -55.7913  -31.1613  -30.4535 C.3       2 GLC5        0.0000 
     65 CA        -53.2722  -33.8040  -25.3372 C.3       2 GLC5        0.0000 
     66 CA        -55.5530  -31.4803  -25.7263 C.3       2 GLC5        0.0000 
     67 CA        -56.6827  -37.1677  -29.7383 C.3       2 GLC5        0.0000 
     68 CA        -57.8510  -37.6070  -31.3850 C.3       4 GLP5        0.0000 
     69 CA        -55.4686  -35.7464  -25.8614 C.3       2 GLC5        0.0000 
     70 CA        -55.1480  -34.9250  -28.0150 C.3       6 GLL5        0.0000 
     71 CA        -55.3110  -36.4450  -24.1560 C.3       4 GLP5        0.0000 
@<TRIPOS>BOND
@<TRIPOS>SUBSTRUCTURE
     1 ALC1        1 GROUP        1 X    ALC  0     ROOT ALC X 1
     2 GLC5        4 GROUP        1 X    GLC  0     **** GLC X 6
     3 ALP1        3 GROUP        1 Y    ALP  0     ROOT ALP Y 8
     4 GLP5        6 GROUP        1 Y    GLP  0     **** GLP Y 13
     5 ALL1        2 GROUP        1 Z    ALL  0     ROOT ALL Z 15
     6 GLL5        5 GROUP        1 Z    GLL  0     **** GLL Z 20
@<TRIPOS>SET

