#    Name: 4alx_IZN_8_ligand
#    Modification time : Tue Mar 25 05:46:38 2014

@<TRIPOS>MOLECULE
4alx_IZN_8_ligand
   42    45     1     0     0
SMALL
NO_CHARGES


@<TRIPOS>ATOM
      1 N1        -53.6340  -34.3210  -29.8850 N.4       1 IZN400      0.0000 
      2 C1        -53.0070  -35.6510  -29.7870 C.3       1 IZN400      0.0000 
      3 C2        -54.1050  -36.6900  -29.4790 C.3       1 IZN400      0.0000 
      4 C3        -55.1070  -31.4590  -28.7190 C.2       1 IZN400      0.0000 
      5 C4        -54.2470  -33.8340  -28.6130 C.3       1 IZN400      0.0000 
      6 C5        -53.2190  -33.3110  -27.5750 C.3       1 IZN400      0.0000 
      7 C6        -53.6620  -32.1210  -26.6820 C.3       1 IZN400      0.0000 
      8 C7        -54.3260  -30.9860  -27.4930 C.3       1 IZN400      0.0000 
      9 C8        -55.0640  -32.7200  -29.1930 C.2       1 IZN400      0.0000 
     10 C9        -55.7630  -33.3230  -30.3840 C.3       1 IZN400      0.0000 
     11 C10       -54.6230  -34.1430  -30.9970 C.3       1 IZN400      0.0000 
     12 C11       -55.1480  -34.9250  -28.0150 C.2       1 IZN400      0.0000 
     13 C12       -55.0650  -36.2100  -28.4100 C.2       1 IZN400      0.0000 
     14 C13       -55.9640  -37.2470  -27.7730 C.3       1 IZN400      0.0000 
     15 C14       -57.2840  -35.5330  -26.6850 C.2       1 IZN400      0.0000 
     16 C15       -56.1460  -34.5280  -26.9210 C.3       1 IZN400      0.0000 
     17 O1        -58.1850  -35.3050  -25.8840 O.2       1 IZN400      0.0000 
     18 O2        -57.2170  -36.6810  -27.3920 O.3       1 IZN400      0.0000 
     19 O3        -52.5130  -31.5630  -26.0570 O.3       1 IZN400      0.0000 
     20 C16       -52.6370  -31.2560  -24.6820 C.3       1 IZN400      0.0000 
     21 H         -52.7971  -33.5707  -30.1107 H         1 IZN400      0.0000 
     22 H         -52.2783  -35.6795  -28.9850 H         1 IZN400      0.0000 
     23 H         -52.5314  -35.9267  -30.7213 H         1 IZN400      0.0000 
     24 H         -53.6247  -37.6181  -29.1529 H         1 IZN400      0.0000 
     25 H         -54.6557  -36.8987  -30.4017 H         1 IZN400      0.0000 
     26 H         -55.6829  -30.7109  -29.1615 H         1 IZN400      0.0000 
     27 H         -52.2937  -33.0175  -28.1154 H         1 IZN400      0.0000 
     28 H         -52.9279  -34.1552  -26.9140 H         1 IZN400      0.0000 
     29 H         -54.3651  -32.4767  -25.9588 H         1 IZN400      0.0000 
     30 H         -55.0043  -30.4299  -26.8251 H         1 IZN400      0.0000 
     31 H         -53.5417  -30.2811  -27.8143 H         1 IZN400      0.0000 
     32 H         -56.0578  -32.5729  -31.0579 H         1 IZN400      0.0000 
     33 H         -56.5319  -33.9679  -30.0734 H         1 IZN400      0.0000 
     34 H         -55.0029  -35.0885  -31.3155 H         1 IZN400      0.0000 
     35 H         -54.1876  -33.5920  -31.8011 H         1 IZN400      0.0000 
     36 H         -55.4319  -37.6697  -26.9030 H         1 IZN400      0.0000 
     37 H         -56.0974  -38.0710  -28.4955 H         1 IZN400      0.0000 
     38 H         -56.5871  -33.5479  -27.1795 H         1 IZN400      0.0000 
     39 H         -55.5969  -34.3857  -25.9722 H         1 IZN400      0.0000 
     40 H         -51.7943  -30.8656  -24.3112 H         1 IZN400      0.0000 
     41 H         -53.3661  -30.5926  -24.5139 H         1 IZN400      0.0000 
     42 H         -52.8482  -32.0679  -24.1378 H         1 IZN400      0.0000 
@<TRIPOS>BOND
     1    2    1 1    
     2    5    1 1    
     3   11    1 1    
     4   21    1 1    
     5    3    2 1    
     6   22    2 1    
     7   23    2 1    
     8   13    3 1    
     9   24    3 1    
    10   25    3 1    
    11    8    4 1    
    12    9    4 2    
    13   26    4 1    
    14    6    5 1    
    15    9    5 1    
    16   12    5 1    
    17    7    6 1    
    18   27    6 1    
    19   28    6 1    
    20    8    7 1    
    21   19    7 1    
    22   29    7 1    
    23   30    8 1    
    24   31    8 1    
    25   10    9 1    
    26   11   10 1    
    27   32   10 1    
    28   33   10 1    
    29   34   11 1    
    30   35   11 1    
    31   13   12 2    
    32   16   12 1    
    33   14   13 1    
    34   18   14 1    
    35   36   14 1    
    36   37   14 1    
    37   16   15 1    
    38   17   15 2    
    39   18   15 1    
    40   38   16 1    
    41   39   16 1    
    42   20   19 1    
    43   40   20 1    
    44   41   20 1    
    45   42   20 1    
@<TRIPOS>SUBSTRUCTURE
     1 IZN400      1 GROUP   
@<TRIPOS>SET

