#    Name: 1R1J_1_CAVITY_N1_6.mol2
#    Modification time : Tue Mar 11 05:00:58 2014

@<TRIPOS>MOLECULE
1R1J_1_CAVITY_N1_6.mol2
   69     0     6     0     0
SMALL
NO_CHARGES


@<TRIPOS>ATOM
      1 CZ         32.0057   46.1387   35.5046 C.ar      4 PHE5        0.0000 
      2 CA         30.9563   47.1826   35.2620 C.3       5 GLY6        0.0000 
      3 O          32.3430   46.1381   34.0430 O.2       1 ALA2        0.0000 
      4 CA         31.2935   47.1820   33.8004 C.3       5 GLY6        0.0000 
      5 CZ         30.6512   45.0621   36.7319 C.ar      4 PHE5        0.0000 
      6 CZ         29.6017   46.1060   36.4893 C.ar      4 PHE5        0.0000 
      7 CZ         32.0380   44.0176   35.5128 C.ar      4 PHE5        0.0000 
      8 CZ         30.9885   45.0615   35.2703 C.ar      4 PHE5        0.0000 
      9 N          29.9390   46.1054   35.0277 N.2       1 ALA2        0.0000 
     10 CA         28.8895   47.1493   34.7851 C.3       5 GLY6        0.0000 
     11 O          31.3257   45.0610   33.8087 O.2       1 ALA2        0.0000 
     12 NZ         30.2762   46.1049   33.5661 N.2       3 LYS4        0.0000 
     13 CZ         30.3462   42.9416   38.2017 C.ar      4 PHE5        0.0000 
     14 CZ         29.6340   43.9850   36.4976 C.ar      4 PHE5        0.0000 
     15 O          31.0207   42.9405   35.2785 O.2       1 ALA2        0.0000 
     16 N          29.9712   43.9844   35.0360 N.2       1 ALA2        0.0000 
     17 N          28.9217   45.0283   34.7934 N.2       1 ALA2        0.0000 
     18 N          31.3579   42.9399   33.8169 N.2       1 ALA2        0.0000 
     19 N          30.3084   43.9838   33.5744 N.2       1 ALA2        0.0000 
     20 N          29.2590   45.0277   33.3318 N.2       1 ALA2        0.0000 
     21 N          30.6457   43.9832   32.1128 N.2       1 ALA2        0.0000 
     22 CZ         30.3784   40.8206   38.2100 C.ar      4 PHE5        0.0000 
     23 CZ         29.3289   41.8645   37.9674 C.ar      4 PHE5        0.0000 
     24 CZ         28.2794   42.9084   37.7249 C.ar      4 PHE5        0.0000 
     25 O          30.7157   40.8200   36.7484 O.2       1 ALA2        0.0000 
     26 CZ         29.6662   41.8639   36.5058 C.ar      4 PHE5        0.0000 
     27 N          28.6167   42.9078   36.2633 N.2       1 ALA2        0.0000 
     28 N          30.0034   41.8633   35.0442 N.2       1 ALA2        0.0000 
     29 N          28.9539   42.9072   34.8017 N.2       1 ALA2        0.0000 
     30 N          29.2912   42.9066   33.3401 N.2       1 ALA2        0.0000 
     31 N          29.6284   42.9061   31.8785 N.2       1 ALA2        0.0000 
     32 N          28.5789   43.9500   31.6359 N.2       1 ALA2        0.0000 
     33 OD1        28.9162   43.9494   30.1743 O.3       2 ASP3        0.0000 
     34 O          29.3612   39.7434   37.9757 O.2       1 ALA2        0.0000 
     35 O          28.3117   40.7873   37.7331 O.2       1 ALA2        0.0000 
     36 O          29.6984   39.7428   36.5141 O.2       1 ALA2        0.0000 
     37 O          28.6489   40.7867   36.2715 O.2       1 ALA2        0.0000 
     38 O          27.5994   41.8306   36.0290 O.2       1 ALA2        0.0000 
     39 N          27.9367   41.8301   34.5674 N.2       1 ALA2        0.0000 
     40 N          28.2739   41.8295   33.1058 N.2       1 ALA2        0.0000 
     41 N          28.6112   41.8289   31.6442 N.2       1 ALA2        0.0000 
     42 N          27.5617   42.8728   31.4016 N.2       1 ALA2        0.0000 
     43 OD1        28.9484   41.8283   30.1826 O.3       2 ASP3        0.0000 
     44 OD1        27.8989   42.8722   29.9400 O.3       2 ASP3        0.0000 
     45 OD1        28.2362   42.8717   28.4784 O.3       2 ASP3        0.0000 
     46 O          28.3439   38.6663   37.7414 O.2       1 ALA2        0.0000 
     47 O          27.2944   39.7102   37.4988 O.2       1 ALA2        0.0000 
     48 O          28.6811   38.6657   36.2798 O.2       1 ALA2        0.0000 
     49 DU         27.6316   39.7096   36.0372 H         6 CUB7        0.0000 
     50 O          26.5822   40.7535   35.7947 O.2       1 ALA2        0.0000 
     51 O          27.9689   39.7090   34.5756 O.2       1 ALA2        0.0000 
     52 O          26.9194   40.7529   34.3331 O.2       1 ALA2        0.0000 
     53 N          27.2566   40.7523   32.8715 N.2       1 ALA2        0.0000 
     54 O          26.2072   41.7962   32.6289 O.2       1 ALA2        0.0000 
     55 N          27.5939   40.7518   31.4099 N.2       1 ALA2        0.0000 
     56 CZ         26.5444   41.7957   31.1673 C.ar      4 PHE5        0.0000 
     57 NZ         27.9311   40.7512   29.9483 N.2       3 LYS4        0.0000 
     58 CZ         26.8816   41.7951   29.7057 C.ar      4 PHE5        0.0000 
     59 NZ         28.2684   40.7506   28.4867 N.2       3 LYS4        0.0000 
     60 DU         27.2189   41.7945   28.2441 H         6 CUB7        0.0000 
     61 O          27.3266   37.5891   37.5071 O.2       1 ALA2        0.0000 
     62 O          25.2276   39.6769   37.0220 O.2       1 ALA2        0.0000 
     63 O          28.0011   37.5879   34.5839 O.2       1 ALA2        0.0000 
     64 N          27.6261   38.6307   31.4182 N.2       1 ALA2        0.0000 
     65 DU         26.5766   39.6746   31.1756 H         6 CUB7        0.0000 
     66 CA         27.9634   38.6301   29.9566 C.3       5 GLY6        0.0000 
     67 DU         26.9139   39.6740   29.7140 H         6 CUB7        0.0000 
     68 NZ         27.2511   39.6734   28.2524 N.2       3 LYS4        0.0000 
     69 DU         26.2016   40.7173   28.0098 H         6 CUB7        0.0000 
@<TRIPOS>BOND
@<TRIPOS>SUBSTRUCTURE
     1 ALA2        3 GROUP   
     2 ASP3       33 GROUP   
     3 LYS4       12 GROUP   
     4 PHE5        1 GROUP   
     5 GLY6        2 GROUP   
     6 CUB7       49 GROUP   
@<TRIPOS>SET

