#    Name: 1r1j_OIR_1_INTS_M
#    Modification time : Tue Mar 25 00:15:38 2014

@<TRIPOS>MOLECULE
1r1j_OIR_1_INTS_M
   60     0    12     0     0
SMALL
NO_CHARGES


@<TRIPOS>ATOM
      1 Zn         31.0610   42.8775   30.4710 Zn        3 ZIC7        0.0000 
      2 Zn         30.8520   42.7220   31.3250 Zn       11 ZIL7        0.0000 
      3 Zn         31.2700   43.0330   29.6170 Zn        7 ZIP7        0.0000 
      4 CA         25.5760   43.1485   30.2845 C.3       4 GLC5        0.0000 
      5 CA         27.3490   42.5030   30.5750 C.3      12 GLL5        0.0000 
      6 CA         23.8030   43.7940   29.9940 C.3       8 GLP5        0.0000 
      7 CA         27.3465   44.8785   28.7400 C.3       4 GLC5        0.0000 
      8 CA         29.1040   43.5790   28.7620 C.3      12 GLL5        0.0000 
      9 CA         25.5890   46.1780   28.7180 C.3       8 GLP5        0.0000 
     10 CA         30.7150   44.6335   29.4340 C.3       4 GLC5        0.0000 
     11 CA         32.3260   45.6880   30.1060 C.3       8 GLP5        0.0000 
     12 CA         30.2620   43.9675   27.8480 C.3       4 GLC5        0.0000 
     13 CA         31.4200   44.3560   26.9340 C.3       8 GLP5        0.0000 
     14 O          27.7955   44.7870   31.7490 O.2       1 ALC1        0.0000 
     15 O          29.1750   43.9410   32.1370 O.2       9 ALL1        0.0000 
     16 O          26.4160   45.6330   31.3610 O.2       5 ALP1        0.0000 
     17 CA         31.2200   45.0370   31.6320 C.3       4 GLC5        0.0000 
     18 CA         30.1140   44.3860   33.1580 C.3      12 GLL5        0.0000 
     19 N          32.5525   42.2190   35.0390 N.am      2 SEC2        0.0000 
     20 N          31.4780   43.0150   34.4980 N.am     10 SEL2        0.0000 
     21 N          33.6270   41.4230   35.5800 N.am      6 SEP2        0.0000 
     22 N          32.9020   43.0495   34.3315 N.am      2 SEC2        0.0000 
     23 N          34.3260   43.0840   34.1650 N.am      6 SEP2        0.0000 
     24 O          27.8810   43.5390   34.6540 O.2       1 ALC1        0.0000 
     25 O          29.2790   42.6990   34.6910 O.2       9 ALL1        0.0000 
     26 O          26.4830   44.3790   34.6170 O.2       5 ALP1        0.0000 
     27 CA         30.6810   40.9730   34.3780 C.3       4 GLC5        0.0000 
     28 CA         29.3920   41.7930   35.8250 C.3      12 GLL5        0.0000 
     29 CA         31.9700   40.1530   32.9310 C.3       8 GLP5        0.0000 
     30 N          26.1900   41.7870   34.9270 N.am      2 SEC2        0.0000 
     31 N          27.5030   40.7320   34.9240 N.am     10 SEL2        0.0000 
     32 N          24.8770   42.8420   34.9300 N.am      6 SEP2        0.0000 
     33 CA         28.2285   43.9290   37.7540 C.3       4 GLC5        0.0000 
     34 CA         29.0570   42.5400   37.1140 C.3      12 GLL5        0.0000 
     35 CA         27.4000   45.3180   38.3940 C.3       8 GLP5        0.0000 
     36 CA         30.4735   48.2540   33.9865 C.3       4 GLC5        0.0000 
     37 CA         30.7880   46.2130   34.5970 C.3      12 GLL5        0.0000 
     38 CA         30.1590   50.2950   33.3760 C.3       8 GLP5        0.0000 
     39 CA         29.1220   47.7755   36.2915 C.3       4 GLC5        0.0000 
     40 CA         30.7100   46.3790   35.9770 C.3      12 GLL5        0.0000 
     41 CA         27.5340   49.1720   36.6060 C.3       8 GLP5        0.0000 
     42 CA         29.1178   37.9755   30.3633 C.3       4 GLC5        0.0000 
     43 CA         27.8730   40.0530   30.6080 C.3      12 GLL5        0.0000 
     44 CA         30.5240   36.5570   29.9670 C.3       8 GLP5        0.0000 
     45 CA         31.0278   42.7493   37.1363 C.3       4 GLC5        0.0000 
     46 CA         32.8310   43.3320   37.8030 C.3       8 GLP5        0.0000 
     47 CA         31.5338   48.5412   35.7890 C.3       4 GLC5        0.0000 
     48 CA         31.8110   50.4600   35.2460 C.3       8 GLP5        0.0000 
     49 CA         33.7003   47.8327   35.6833 C.3       4 GLC5        0.0000 
     50 CA         31.8030   46.8660   36.6870 C.3      12 GLL5        0.0000 
     51 CA         35.0080   48.6440   35.0130 C.3       8 GLP5        0.0000 
     52 CA         33.0378   47.1803   38.2497 C.3       4 GLC5        0.0000 
     53 CA         32.9820   47.1770   36.0200 C.3      12 GLL5        0.0000 
     54 CA         33.6830   47.3390   40.1460 C.3       8 GLP5        0.0000 
     55 CA         33.7620   47.7055   34.6522 C.3       4 GLC5        0.0000 
     56 CA         33.0620   47.0070   34.6470 C.3      12 GLL5        0.0000 
     57 CA         32.9995   46.5535   32.3367 C.3       4 GLC5        0.0000 
     58 CA         33.4830   46.3400   30.3820 C.3       8 GLP5        0.0000 
     59 CA         32.1535   48.6347   34.9404 C.3       4 GLC5        0.0000 
     60 CA         31.9700   46.5270   33.9360 C.3      12 GLL5        0.0000 
@<TRIPOS>BOND
@<TRIPOS>SUBSTRUCTURE
     1 ALC1       14 GROUP        1 X    ALC  0     ROOT ALC X 1
     2 SEC2       19 GROUP        1 X    SEC  0     **** SEC X 2
     3 ZIC7        1 GROUP        1 X    ZIC  0     **** ZIC X 5
     4 GLC5        4 GROUP        1 X    GLC  0     **** GLC X 6
     5 ALP1       16 GROUP        1 Y    ALP  0     ROOT ALP Y 8
     6 SEP2       21 GROUP        1 Y    SEP  0     **** SEP Y 9
     7 ZIP7        3 GROUP        1 Y    ZIP  0     **** ZIP Y 12
     8 GLP5        6 GROUP        1 Y    GLP  0     **** GLP Y 13
     9 ALL1       15 GROUP        1 Z    ALL  0     ROOT ALL Z 15
    10 SEL2       20 GROUP        1 Z    SEL  0     **** SEL Z 16
    11 ZIL7        2 GROUP        1 Z    ZIL  0     **** ZIL Z 19
    12 GLL5        5 GROUP        1 Z    GLL  0     **** GLL Z 20
@<TRIPOS>SET

