#    Name: 1r1j_OIR_1_ligand
#    Modification time : Tue Mar 25 00:15:38 2014

@<TRIPOS>MOLECULE
1r1j_OIR_1_ligand
   50    51     1     0     0
SMALL
NO_CHARGES


@<TRIPOS>ATOM
      1 O19        30.8520   42.7220   31.3250 O.2       1 OIR2001     0.0000 
      2 C18        29.6840   43.0690   31.2770 C.2       1 OIR2001     0.0000 
      3 C20        28.8210   42.5200   30.1900 C.3       1 OIR2001     0.0000 
      4 C21        27.3490   42.5030   30.5750 C.3       1 OIR2001     0.0000 
      5 C23        26.9810   41.0750   30.9050 C.ar      1 OIR2001     0.0000 
      6 C24        25.7650   40.7800   31.5070 C.ar      1 OIR2001     0.0000 
      7 C25        25.4430   39.4640   31.8130 C.ar      1 OIR2001     0.0000 
      8 C26        26.3360   38.4400   31.5150 C.ar      1 OIR2001     0.0000 
      9 C27        27.5500   38.7350   30.9110 C.ar      1 OIR2001     0.0000 
     10 C28        27.8730   40.0530   30.6080 C.ar      1 OIR2001     0.0000 
     11 S26        29.1040   43.5790   28.7620 S.3       1 OIR2001     0.0000 
     12 N9         29.1750   43.9410   32.1370 N.am      1 OIR2001     0.0000 
     13 C2         30.1140   44.3860   33.1580 C.3       1 OIR2001     0.0000 
     14 C11        30.3430   43.3050   34.1830 C.2       1 OIR2001     0.0000 
     15 O12        31.4780   43.0150   34.4980 O.2       1 OIR2001     0.0000 
     16 N13        29.2790   42.6990   34.6910 N.am      1 OIR2001     0.0000 
     17 C14        29.3920   41.7930   35.8250 C.3       1 OIR2001     0.0000 
     18 C15        28.4640   40.6230   35.6670 C.2       1 OIR2001     0.0000 
     19 O16        27.5030   40.7320   34.9240 O.co2     1 OIR2001     0.0000 
     20 O17        28.6620   39.5700   36.2620 O.co2     1 OIR2001     0.0000 
     21 C19        29.0570   42.5400   37.1140 C.3       1 OIR2001     0.0000 
     22 C1         29.6130   45.6730   33.8110 C.3       1 OIR2001     0.0000 
     23 C3         30.7880   46.2130   34.5970 C.ar      1 OIR2001     0.0000 
     24 C4         30.7100   46.3790   35.9770 C.ar      1 OIR2001     0.0000 
     25 C5         31.8030   46.8660   36.6870 C.ar      1 OIR2001     0.0000 
     26 C6         32.9820   47.1770   36.0200 C.ar      1 OIR2001     0.0000 
     27 C7         33.0620   47.0070   34.6470 C.ar      1 OIR2001     0.0000 
     28 C8         31.9700   46.5270   33.9360 C.ar      1 OIR2001     0.0000 
     29 H          29.1665   41.5817   29.8479 H         1 OIR2001     0.0000 
     30 H          26.7569   42.8513   29.7447 H         1 OIR2001     0.0000 
     31 H          27.1967   43.1294   31.4386 H         1 OIR2001     0.0000 
     32 H          25.1025   41.5359   31.7264 H         1 OIR2001     0.0000 
     33 H          24.5426   39.2452   32.2609 H         1 OIR2001     0.0000 
     34 H          26.0957   37.4668   31.7424 H         1 OIR2001     0.0000 
     35 H          28.2115   37.9798   30.6870 H         1 OIR2001     0.0000 
     36 H          28.7753   40.2708   30.1627 H         1 OIR2001     0.0000 
     37 H          28.2526   44.2974   32.1416 H         1 OIR2001     0.0000 
     38 H          31.0780   44.6154   32.6869 H         1 OIR2001     0.0000 
     39 H          28.3207   42.8362   34.3123 H         1 OIR2001     0.0000 
     40 H          30.4064   41.4246   35.9119 H         1 OIR2001     0.0000 
     41 H          28.8035   45.4461   34.4709 H         1 OIR2001     0.0000 
     42 H          29.3278   46.3699   33.0526 H         1 OIR2001     0.0000 
     43 H          29.8403   46.1405   36.4737 H         1 OIR2001     0.0000 
     44 H          31.7378   46.9955   37.7049 H         1 OIR2001     0.0000 
     45 H          33.7911   47.5319   36.5451 H         1 OIR2001     0.0000 
     46 H          33.9358   47.2376   34.1499 H         1 OIR2001     0.0000 
     47 H          32.0353   46.4030   32.9154 H         1 OIR2001     0.0000 
     48 H          29.1288   41.9472   37.9162 H         1 OIR2001     0.0000 
     49 H          29.6721   43.3138   37.2654 H         1 OIR2001     0.0000 
     50 H          28.1257   42.9040   37.1010 H         1 OIR2001     0.0000 
@<TRIPOS>BOND
     1    2    1 2    
     2    3    2 1    
     3   12    2 am   
     4    4    3 1    
     5   11    3 1    
     6   29    3 1    
     7    5    4 1    
     8   30    4 1    
     9   31    4 1    
    10    6    5 ar   
    11   10    5 ar   
    12    7    6 ar   
    13   32    6 1    
    14    8    7 ar   
    15   33    7 1    
    16    9    8 ar   
    17   34    8 1    
    18   10    9 ar   
    19   35    9 1    
    20   36   10 1    
    21   13   12 1    
    22   37   12 1    
    23   14   13 1    
    24   22   13 1    
    25   38   13 1    
    26   15   14 2    
    27   16   14 am   
    28   17   16 1    
    29   39   16 1    
    30   18   17 1    
    31   21   17 1    
    32   40   17 1    
    33   19   18 ar   
    34   20   18 ar   
    35   48   21 1    
    36   49   21 1    
    37   50   21 1    
    38   23   22 1    
    39   41   22 1    
    40   42   22 1    
    41   24   23 ar   
    42   28   23 ar   
    43   25   24 ar   
    44   43   24 1    
    45   26   25 ar   
    46   44   25 1    
    47   27   26 ar   
    48   45   26 1    
    49   28   27 ar   
    50   46   27 1    
    51   47   28 1    
@<TRIPOS>SUBSTRUCTURE
     1 OIR2001     1 GROUP   
@<TRIPOS>SET

