#    Name: 1izh_Q50_1_INTS_M
#    Modification time : Tue Mar 25 08:19:51 2014

@<TRIPOS>MOLECULE
1izh_Q50_1_INTS_M
  108     0     9     0     0
SMALL
NO_CHARGES


@<TRIPOS>ATOM
      1 N          16.5215   14.5975    6.1810 N.am      2 SEC2        0.0000 
      2 N          17.7390   14.9760    5.8160 N.am      8 SEL2        0.0000 
      3 N          15.3040   14.2190    6.5460 N.am      5 SEP2        0.0000 
      4 CA         20.3550   17.8275    4.5480 C.3       3 GLC5        0.0000 
      5 CA         19.0200   16.8930    5.8830 C.3       9 GLL5        0.0000 
      6 CA         21.6900   18.7620    3.2130 C.3       6 GLP5        0.0000 
      7 O          16.4895   17.3365    6.5210 O.2       1 ALC1        0.0000 
      8 O          17.7630   17.6720    5.8330 O.2       7 ALL1        0.0000 
      9 O          15.2160   17.0010    7.2090 O.2       4 ALP1        0.0000 
     10 N          19.3755   20.1190    4.0555 N.am      2 SEC2        0.0000 
     11 N          18.6960   19.6900    5.2780 N.am      8 SEL2        0.0000 
     12 N          20.0550   20.5480    2.8330 N.am      5 SEP2        0.0000 
     13 CA         17.2605   20.8175    4.0205 C.3       3 GLC5        0.0000 
     14 CA         16.2900   19.4800    5.3320 C.3       9 GLL5        0.0000 
     15 CA         18.2310   22.1550    2.7090 C.3       6 GLP5        0.0000 
     16 CA         13.4955   18.3350    3.3200 C.3       3 GLC5        0.0000 
     17 CA         15.6970   18.2300    3.1140 C.3       9 GLL5        0.0000 
     18 CA         11.2940   18.4400    3.5260 C.3       6 GLP5        0.0000 
     19 CA         15.3250   17.5265    1.0335 C.3       3 GLC5        0.0000 
     20 CA         14.9530   16.8230   -1.0470 C.3       6 GLP5        0.0000 
     21 CA         14.9085   16.4190    2.3935 C.3       3 GLC5        0.0000 
     22 CA         14.1200   14.6080    1.6730 C.3       6 GLP5        0.0000 
     23 N          18.9530   18.7910    1.3260 N.am      2 SEC2        0.0000 
     24 N          17.7960   18.6550    2.0740 N.am      8 SEL2        0.0000 
     25 N          20.1100   18.9270    0.5780 N.am      5 SEP2        0.0000 
     26 O          18.6935   15.9690    2.0460 O.2       1 ALC1        0.0000 
     27 O          17.3610   16.5420    2.6910 O.2       7 ALL1        0.0000 
     28 O          20.0260   15.3960    1.4010 O.2       4 ALP1        0.0000 
     29 O          17.1630   21.9075    5.5345 O.2       1 ALC1        0.0000 
     30 O          16.1850   20.8720    5.6940 O.2       7 ALL1        0.0000 
     31 O          18.1410   22.9430    5.3750 O.2       4 ALP1        0.0000 
     32 CA         12.6290   22.4045   10.2330 C.3       3 GLC5        0.0000 
     33 CA         14.3090   21.9370    9.2910 C.3       9 GLL5        0.0000 
     34 CA         10.9490   22.8720   11.1750 C.3       6 GLP5        0.0000 
     35 CA         13.9020   19.7695   11.7305 C.3       3 GLC5        0.0000 
     36 CA         14.2700   20.8360   10.1510 C.3       9 GLL5        0.0000 
     37 CA         13.5340   18.7030   13.3100 C.3       6 GLP5        0.0000 
     38 CA         12.3955   20.4210   10.2460 C.3       3 GLC5        0.0000 
     39 CA         10.5210   20.0060   10.3410 C.3       6 GLP5        0.0000 
     40 CA         15.2125   19.4050   12.0190 C.3       3 GLC5        0.0000 
     41 CA         15.4180   20.0660   10.3660 C.3       9 GLL5        0.0000 
     42 CA         15.0070   18.7440   13.6720 C.3       6 GLP5        0.0000 
     43 N          14.6980   25.6535    5.6235 N.am      2 SEC2        0.0000 
     44 N          14.0780   24.9530    4.5370 N.am      8 SEL2        0.0000 
     45 N          15.3180   26.3540    6.7100 N.am      5 SEP2        0.0000 
     46 O          11.2805   26.0330    4.3980 O.2       1 ALC1        0.0000 
     47 O          11.2360   24.8030    5.2760 O.2       7 ALL1        0.0000 
     48 O          11.3250   27.2630    3.5200 O.2       4 ALP1        0.0000 
     49 CA         10.4915   26.7700   11.0510 C.3       3 GLC5        0.0000 
     50 CA         10.7050   25.8170    9.3020 C.3       9 GLL5        0.0000 
     51 CA         10.2780   27.7230   12.8000 C.3       6 GLP5        0.0000 
     52 CA         12.3630   25.4250   10.0665 C.3       3 GLC5        0.0000 
     53 CA         14.0210   25.0330   10.8310 C.3       6 GLP5        0.0000 
     54 CA          6.7765   25.3860    9.9565 C.3       3 GLC5        0.0000 
     55 CA          8.3440   25.2760    8.5850 C.3       9 GLL5        0.0000 
     56 CA          5.2090   25.4960   11.3280 C.3       6 GLP5        0.0000 
     57 CA          8.7025   29.3570    9.4080 C.3       3 GLC5        0.0000 
     58 CA          9.2050   27.5960    8.4100 C.3       9 GLL5        0.0000 
     59 CA          8.2000   31.1180   10.4060 C.3       6 GLP5        0.0000 
     60 CA         12.4770   25.9385    2.7965 C.3       3 GLC5        0.0000 
     61 CA         11.5760   23.9060    3.1030 C.3       9 GLL5        0.0000 
     62 CA         13.3780   27.9710    2.4900 C.3       6 GLP5        0.0000 
     63 CA         16.0690   15.7505    8.6028 C.3       3 GLC5        0.0000 
     64 CA         17.9980   17.0110    9.0630 C.3       9 GLL5        0.0000 
     65 CA         14.5420   14.7650    7.6520 C.3       6 GLP5        0.0000 
     66 CA         16.1400   14.7383    8.8080 C.3       3 GLC5        0.0000 
     67 CA         17.3020   15.1160   10.3240 C.3       9 GLL5        0.0000 
     68 CA         16.4823   20.4648    2.5335 C.3       3 GLC5        0.0000 
     69 CA         17.2190   22.0350    1.5680 C.3       6 GLP5        0.0000 
     70 CA         16.8513   24.1980    5.9855 C.3       3 GLC5        0.0000 
     71 CA         15.0840   22.8800    6.4190 C.3       9 GLL5        0.0000 
     72 CA         18.3350   25.2920    4.8940 C.3       6 GLP5        0.0000 
     73 CA         14.8048   23.8993    9.5162 C.3       3 GLC5        0.0000 
     74 CA         15.6510   23.3280    7.7350 C.3       9 GLL5        0.0000 
     75 CA         16.2778   22.4875   10.5087 C.3       3 GLC5        0.0000 
     76 CA         15.5260   22.2030    8.6680 C.3       9 GLL5        0.0000 
     77 CA         17.6380   22.9050   12.0380 C.3       6 GLP5        0.0000 
     78 CA         14.1552   23.2097   10.2760 C.3       3 GLC5        0.0000 
     79 CA         16.2410   21.6780   11.1483 C.3       3 GLC5        0.0000 
     80 CA         13.8164   19.4211    8.9848 C.3       3 GLC5        0.0000 
     81 CA         12.7790   18.1160    7.9260 C.3       6 GLP5        0.0000 
     82 CA         17.1273   21.8927   10.6635 C.3       3 GLC5        0.0000 
     83 CA         16.5890   20.3380    9.7170 C.3       9 GLL5        0.0000 
     84 CA         17.6446   23.4621    8.5006 C.3       3 GLC5        0.0000 
     85 CA         16.6440   21.4230    8.8610 C.3       9 GLL5        0.0000 
     86 CA         19.1730   24.8300    8.4700 C.3       6 GLP5        0.0000 
     87 CA          9.8114   24.0468    9.2438 C.3       3 GLC5        0.0000 
     88 CA         10.3770   22.4720    9.7880 C.3       6 GLP5        0.0000 
     89 CA         11.1086   27.7338    7.8605 C.3       3 GLC5        0.0000 
     90 CA         12.5410   28.6860    7.1090 C.3       6 GLP5        0.0000 
     91 CA          9.1352   23.8960    0.8207 C.3       3 GLC5        0.0000 
     92 CA          9.4310   25.0740    2.5610 C.3       9 GLL5        0.0000 
     93 CA          8.5220   23.3060   -1.0720 C.3       6 GLP5        0.0000 
     94 CA         10.0166   25.8330    1.1306 C.3       3 GLC5        0.0000 
     95 CA         10.0660   23.8980    2.8660 C.3       9 GLL5        0.0000 
     96 CA         11.1330   26.8560   -0.2820 C.3       6 GLP5        0.0000 
     97 CA          8.0972   23.9288    0.6770 C.3       3 GLC5        0.0000 
     98 CA          8.0520   25.1340    2.3730 C.3       9 GLL5        0.0000 
     99 CA          6.5527   21.8263    1.9370 C.3       3 GLC5        0.0000 
    100 CA          7.2930   23.9690    2.4790 C.3       9 GLL5        0.0000 
    101 CA          5.4920   20.2750    1.2520 C.3       6 GLP5        0.0000 
    102 CA          8.2278   21.9347    4.5448 C.3       3 GLC5        0.0000 
    103 CA          7.9340   22.7860    2.7650 C.3       9 GLL5        0.0000 
    104 CA          7.8330   21.1120    6.2180 C.3       6 GLP5        0.0000 
    105 CA          8.5723   23.0317    0.8998 C.3       3 GLC5        0.0000 
    106 CA         11.1050   22.2598    1.6581 C.3       3 GLC5        0.0000 
    107 CA          9.3110   22.7290    2.9780 C.3       9 GLL5        0.0000 
    108 CA         12.1440   21.2040    0.3350 C.3       6 GLP5        0.0000 
@<TRIPOS>BOND
@<TRIPOS>SUBSTRUCTURE
     1 ALC1        7 GROUP        1 X    ALC  0     ROOT ALC X 1
     2 SEC2        1 GROUP        1 X    SEC  0     **** SEC X 2
     3 GLC5        4 GROUP        1 X    GLC  0     **** GLC X 6
     4 ALP1        9 GROUP        1 Y    ALP  0     ROOT ALP Y 8
     5 SEP2        3 GROUP        1 Y    SEP  0     **** SEP Y 9
     6 GLP5        6 GROUP        1 Y    GLP  0     **** GLP Y 13
     7 ALL1        8 GROUP        1 Z    ALL  0     ROOT ALL Z 15
     8 SEL2        2 GROUP        1 Z    SEL  0     **** SEL Z 16
     9 GLL5        5 GROUP        1 Z    GLL  0     **** GLL Z 20
@<TRIPOS>SET

