#    Name: 1izh_Q50_1_ligand
#    Modification time : Tue Mar 25 08:19:52 2014

@<TRIPOS>MOLECULE
1izh_Q50_1_ligand
   97    99     1     0     0
SMALL
NO_CHARGES


@<TRIPOS>ATOM
      1 O49        17.7390   14.9760    5.8160 O.2       1 Q501001     0.0000 
      2 C48        18.7310   15.4960    5.3870 C.2       1 Q501001     0.0000 
      3 N50        19.5420   14.9160    4.4730 N.am      1 Q501001     0.0000 
      4 C40        19.0200   16.8930    5.8830 C.3       1 Q501001     0.0000 
      5 C41        19.6640   16.8490    7.2620 C.3       1 Q501001     0.0000 
      6 C42        18.8460   16.2080    8.3310 C.ar      1 Q501001     0.0000 
      7 C43        17.9980   17.0110    9.0630 C.ar      1 Q501001     0.0000 
      8 C44        17.1940   16.4610   10.0440 C.ar      1 Q501001     0.0000 
      9 C45        17.3020   15.1160   10.3240 C.ar      1 Q501001     0.0000 
     10 C46        18.1740   14.3070    9.6040 C.ar      1 Q501001     0.0000 
     11 C47        18.9600   14.8350    8.6010 C.ar      1 Q501001     0.0000 
     12 N39        17.7630   17.6720    5.8330 N.am      1 Q501001     0.0000 
     13 C37        17.7050   18.9640    5.4510 C.2       1 Q501001     0.0000 
     14 O38        18.6960   19.6900    5.2780 O.2       1 Q501001     0.0000 
     15 C31        16.2900   19.4800    5.3320 C.3       1 Q501001     0.0000 
     16 C32        15.7940   19.5590    3.8840 C.3       1 Q501001     0.0000 
     17 C33        15.6970   18.2300    3.1140 C.3       1 Q501001     0.0000 
     18 C34        17.0490   17.8280    2.5830 C.2       1 Q501001     0.0000 
     19 O35        17.7960   18.6550    2.0740 O.2       1 Q501001     0.0000 
     20 N36        17.3610   16.5420    2.6910 N.am      1 Q501001     0.0000 
     21 N30        16.1850   20.8720    5.6940 N.am      1 Q501001     0.0000 
     22 C28        15.0460   21.3940    6.1270 C.2       1 Q501001     0.0000 
     23 O29        14.0120   20.7170    6.2180 O.2       1 Q501001     0.0000 
     24 C20        15.0840   22.8800    6.4190 C.3       1 Q501001     0.0000 
     25 C21        15.6510   23.3280    7.7350 C.3       1 Q501001     0.0000 
     26 C22        15.5260   22.2030    8.6680 C.ar      1 Q501001     0.0000 
     27 C23        14.3090   21.9370    9.2910 C.ar      1 Q501001     0.0000 
     28 C24        14.2700   20.8360   10.1510 C.ar      1 Q501001     0.0000 
     29 C25        15.4180   20.0660   10.3660 C.ar      1 Q501001     0.0000 
     30 C26        16.5890   20.3380    9.7170 C.ar      1 Q501001     0.0000 
     31 C27        16.6440   21.4230    8.8610 C.ar      1 Q501001     0.0000 
     32 C19        13.6800   23.4380    6.3340 C.3       1 Q501001     0.0000 
     33 C17        13.4230   23.7170    4.8570 C.2       1 Q501001     0.0000 
     34 O18        14.0780   24.9530    4.5370 O.2       1 Q501001     0.0000 
     35 C9         11.9070   23.6980    4.5770 C.3       1 Q501001     0.0000 
     36 N8         11.2360   24.8030    5.2760 N.am      1 Q501001     0.0000 
     37 C6         10.7190   24.6790    6.4730 C.2       1 Q501001     0.0000 
     38 O7         10.7920   23.6130    7.0740 O.2       1 Q501001     0.0000 
     39 O5         10.0650   25.8830    7.0100 O.3       1 Q501001     0.0000 
     40 C1          9.5900   26.1170    8.3260 C.3       1 Q501001     0.0000 
     41 C4         10.7050   25.8170    9.3020 C.3       1 Q501001     0.0000 
     42 C3          8.3440   25.2760    8.5850 C.3       1 Q501001     0.0000 
     43 C2          9.2050   27.5960    8.4100 C.3       1 Q501001     0.0000 
     44 C10        11.5760   23.9060    3.1030 C.3       1 Q501001     0.0000 
     45 C11        10.0660   23.8980    2.8660 C.ar      1 Q501001     0.0000 
     46 C12         9.4310   25.0740    2.5610 C.ar      1 Q501001     0.0000 
     47 C13         8.0520   25.1340    2.3730 C.ar      1 Q501001     0.0000 
     48 C14         7.2930   23.9690    2.4790 C.ar      1 Q501001     0.0000 
     49 C15         7.9340   22.7860    2.7650 C.ar      1 Q501001     0.0000 
     50 C16         9.3110   22.7290    2.9780 C.ar      1 Q501001     0.0000 
     51 H          19.2619   14.0134    4.1461 H         1 Q501001     0.0000 
     52 H          20.3497   15.4412    4.2052 H         1 Q501001     0.0000 
     53 H          19.7406   17.3390    5.1840 H         1 Q501001     0.0000 
     54 H          19.9170   17.8911    7.5622 H         1 Q501001     0.0000 
     55 H          20.6405   16.3208    7.1742 H         1 Q501001     0.0000 
     56 H          17.9617   18.0269    8.8795 H         1 Q501001     0.0000 
     57 H          16.5264   17.0481   10.5556 H         1 Q501001     0.0000 
     58 H          16.7291   14.6975   11.0788 H         1 Q501001     0.0000 
     59 H          18.2304   13.2975    9.8269 H         1 Q501001     0.0000 
     60 H          19.6029   14.2598    8.0693 H         1 Q501001     0.0000 
     61 H          16.9048   17.1457    6.1187 H         1 Q501001     0.0000 
     62 H          15.6026   18.8994    5.8821 H         1 Q501001     0.0000 
     63 H          16.4607   20.2459    3.3165 H         1 Q501001     0.0000 
     64 H          14.7920   20.0429    3.8770 H         1 Q501001     0.0000 
     65 H          14.9961   18.3542    2.2906 H         1 Q501001     0.0000 
     66 H          15.3192   17.4632    3.7878 H         1 Q501001     0.0000 
     67 H          16.6832   15.9611    3.1418 H         1 Q501001     0.0000 
     68 H          18.2456   16.2705    2.3118 H         1 Q501001     0.0000 
     69 H          17.0545   21.4401    5.5951 H         1 Q501001     0.0000 
     70 H          15.6513   23.3806    5.6101 H         1 Q501001     0.0000 
     71 H          15.0920   24.1851    8.0921 H         1 Q501001     0.0000 
     72 H          16.6915   23.6009    7.6019 H         1 Q501001     0.0000 
     73 H          13.4979   22.5070    9.1316 H         1 Q501001     0.0000 
     74 H          13.3932   20.5902   10.6285 H         1 Q501001     0.0000 
     75 H          15.3644   19.2724   11.0372 H         1 Q501001     0.0000 
     76 H          17.4193   19.7510    9.8572 H         1 Q501001     0.0000 
     77 H          17.5228   21.6451    8.3692 H         1 Q501001     0.0000 
     78 H          13.6156   24.3532    6.8875 H         1 Q501001     0.0000 
     79 H          12.9756   22.7128    6.6889 H         1 Q501001     0.0000 
     80 H          11.4932   22.7642    4.8926 H         1 Q501001     0.0000 
     81 H          11.2040   25.7049    4.7361 H         1 Q501001     0.0000 
     82 H          12.0349   23.1099    2.5147 H         1 Q501001     0.0000 
     83 H          11.9850   24.8622    2.7731 H         1 Q501001     0.0000 
     84 H           9.9863   25.9518    2.4651 H         1 Q501001     0.0000 
     85 H           7.5985   26.0265    2.1586 H         1 Q501001     0.0000 
     86 H           6.2810   24.0025    2.3453 H         1 Q501001     0.0000 
     87 H           7.3824   21.9032    2.8260 H         1 Q501001     0.0000 
     88 H           9.7620   21.8438    3.2129 H         1 Q501001     0.0000 
     89 H          11.0102   24.8670    9.2366 H         1 Q501001     0.0000 
     90 H          11.5056   26.3939    9.1400 H         1 Q501001     0.0000 
     91 H          10.4209   25.9690   10.2487 H         1 Q501001     0.0000 
     92 H           8.5295   24.2980    8.4893 H         1 Q501001     0.0000 
     93 H           7.9857   25.4175    9.5078 H         1 Q501001     0.0000 
     94 H           7.6067   25.4982    7.9470 H         1 Q501001     0.0000 
     95 H           9.9846   28.1939    8.2236 H         1 Q501001     0.0000 
     96 H           8.4907   27.8318    7.7511 H         1 Q501001     0.0000 
     97 H           8.8594   27.8389    9.3164 H         1 Q501001     0.0000 
@<TRIPOS>BOND
     1    2    1 2    
     2    3    2 am   
     3    4    2 1    
     4   51    3 1    
     5   52    3 1    
     6    5    4 1    
     7   12    4 1    
     8   53    4 1    
     9    6    5 1    
    10   54    5 1    
    11   55    5 1    
    12    7    6 ar   
    13   11    6 ar   
    14    8    7 ar   
    15   56    7 1    
    16    9    8 ar   
    17   57    8 1    
    18   10    9 ar   
    19   58    9 1    
    20   11   10 ar   
    21   59   10 1    
    22   60   11 1    
    23   13   12 am   
    24   61   12 1    
    25   14   13 2    
    26   15   13 1    
    27   16   15 1    
    28   21   15 1    
    29   62   15 1    
    30   17   16 1    
    31   63   16 1    
    32   64   16 1    
    33   18   17 1    
    34   65   17 1    
    35   66   17 1    
    36   19   18 2    
    37   20   18 am   
    38   67   20 1    
    39   68   20 1    
    40   22   21 am   
    41   69   21 1    
    42   23   22 2    
    43   24   22 1    
    44   25   24 1    
    45   32   24 1    
    46   70   24 1    
    47   26   25 1    
    48   71   25 1    
    49   72   25 1    
    50   27   26 ar   
    51   31   26 ar   
    52   28   27 ar   
    53   73   27 1    
    54   29   28 ar   
    55   74   28 1    
    56   30   29 ar   
    57   75   29 1    
    58   31   30 ar   
    59   76   30 1    
    60   77   31 1    
    61   33   32 1    
    62   78   32 1    
    63   79   32 1    
    64   34   33 2    
    65   35   33 1    
    66   36   35 1    
    67   44   35 1    
    68   80   35 1    
    69   37   36 am   
    70   81   36 1    
    71   38   37 2    
    72   39   37 1    
    73   40   39 1    
    74   41   40 1    
    75   42   40 1    
    76   43   40 1    
    77   89   41 1    
    78   90   41 1    
    79   91   41 1    
    80   92   42 1    
    81   93   42 1    
    82   94   42 1    
    83   95   43 1    
    84   96   43 1    
    85   97   43 1    
    86   45   44 1    
    87   82   44 1    
    88   83   44 1    
    89   46   45 ar   
    90   50   45 ar   
    91   47   46 ar   
    92   84   46 1    
    93   48   47 ar   
    94   85   47 1    
    95   49   48 ar   
    96   86   48 1    
    97   50   49 ar   
    98   87   49 1    
    99   88   50 1    
@<TRIPOS>SUBSTRUCTURE
     1 Q501001     1 GROUP   
@<TRIPOS>SET

