#    Name: 3c7p_POF_1_INTS_M
#    Modification time : Mon Mar 24 20:34:18 2014

@<TRIPOS>MOLECULE
3c7p_POF_1_INTS_M
   56     0    12     0     0
SMALL
NO_CHARGES


@<TRIPOS>ATOM
      1 N          -3.6515    0.8965   18.0495 N.am      2 SEC2        0.0000 
      2 N          -4.6800    1.4930   17.2800 N.am     10 SEL2        0.0000 
      3 N          -2.6230    0.3000   18.8190 N.am      6 SEP2        0.0000 
      4 O          -4.5840   -1.3520   16.9420 O.2       1 ALC1        0.0000 
      5 O          -5.5760   -0.6130   16.4690 O.2       9 ALL1        0.0000 
      6 O          -3.5920   -2.0910   17.4150 O.2       5 ALP1        0.0000 
      7 Zn         -6.1655   -1.1505   15.8385 Zn        3 ZIC7        0.0000 
      8 Zn         -5.5760   -0.6130   16.4690 Zn       11 ZIL7        0.0000 
      9 Zn         -6.7550   -1.6880   15.2080 Zn        7 ZIP7        0.0000 
     10 CA         -2.6240    3.0935   16.5625 C.3       4 GLC5        0.0000 
     11 CA         -2.9870    2.6250   14.4740 C.3      12 GLL5        0.0000 
     12 CA         -2.2610    3.5620   18.6510 C.3       8 GLP5        0.0000 
     13 CA         -2.1500    0.8190   14.4205 C.3       4 GLC5        0.0000 
     14 CA         -1.3130   -0.9870   14.3670 C.3       8 GLP5        0.0000 
     15 CA         -7.5070    6.0370   14.9130 C.3       4 GLC5        0.0000 
     16 CA         -5.4180    6.2340   14.2780 C.3      12 GLL5        0.0000 
     17 CA         -9.5960    5.8400   15.5480 C.3       8 GLP5        0.0000 
     18 CA         -4.4170    9.0520   16.0675 C.3       4 GLC5        0.0000 
     19 CA         -4.6140    7.5400   14.4800 C.3      12 GLL5        0.0000 
     20 CA         -4.2200   10.5640   17.6550 C.3       8 GLP5        0.0000 
     21 CA         -2.1565    6.1400   15.8195 C.3       4 GLC5        0.0000 
     22 CA         -2.4140    6.4390   13.9220 C.3      12 GLL5        0.0000 
     23 CA         -1.8990    5.8410   17.7170 C.3       8 GLP5        0.0000 
     24 CA         -5.2845    9.8725   12.9980 C.3       4 GLC5        0.0000 
     25 CA         -3.5490   10.1820   13.2730 C.3      12 GLL5        0.0000 
     26 CA         -7.0200    9.5630   12.7230 C.3       8 GLP5        0.0000 
     27 CA         -3.8845   10.3730   15.4640 C.3       4 GLC5        0.0000 
     28 CA          0.6835   11.1035   17.6040 C.3       4 GLC5        0.0000 
     29 CA          1.1880   12.8690   16.5700 C.3      12 GLL5        0.0000 
     30 CA          0.1790    9.3380   18.6380 C.3       8 GLP5        0.0000 
     31 CA         -0.0085   15.0015   18.4860 C.3       4 GLC5        0.0000 
     32 CA          0.7280   14.0810   17.0520 C.3      12 GLL5        0.0000 
     33 CA         -0.7450   15.9220   19.9200 C.3       8 GLP5        0.0000 
     34 N          -0.2190   16.1500   17.2170 N.am      2 SEC2        0.0000 
     35 N          -0.0900   14.8090   16.3170 N.am     10 SEL2        0.0000 
     36 N          -0.3480   17.4910   18.1170 N.am      6 SEP2        0.0000 
     37 CA         -2.3535   14.8235   15.0055 C.3       4 GLC5        0.0000 
     38 CA         -0.5460   14.4300   15.0300 C.3      12 GLL5        0.0000 
     39 CA         -4.1610   15.2170   14.9810 C.3       8 GLP5        0.0000 
     40 CA         -4.5028    4.0665   16.3375 C.3       4 GLC5        0.0000 
     41 CA         -5.1710    3.7340   14.5710 C.3      12 GLL5        0.0000 
     42 CA         -4.2320    4.9790   18.0720 C.3       8 GLP5        0.0000 
     43 CA         -2.3205    5.1568   15.9608 C.3       4 GLC5        0.0000 
     44 CA         -3.1170    5.0780   14.1670 C.3      12 GLL5        0.0000 
     45 CA         -6.2535    7.9155   14.1265 C.3       4 GLC5        0.0000 
     46 CA         -7.4910    8.9440   13.8740 C.3       8 GLP5        0.0000 
     47 CA         -4.5156    5.7779   16.2329 C.3       4 GLC5        0.0000 
     48 CA         -5.0245    8.9118   13.1265 C.3       4 GLC5        0.0000 
     49 CA         -3.4180    7.5800   13.5200 C.3      12 GLL5        0.0000 
     50 CA          0.2554    6.4688   14.2101 C.3       4 GLC5        0.0000 
     51 CA         -0.5220    7.7130   12.7590 C.3      12 GLL5        0.0000 
     52 CA          1.6980    5.8770   15.3460 C.3       8 GLP5        0.0000 
     53 CA         -0.8320   12.9580   17.0575 C.3       4 GLC5        0.0000 
     54 CA         -2.6220   12.4410   17.3040 C.3       8 GLP5        0.0000 
     55 CA         -1.3715   13.0343   16.1212 C.3       4 GLC5        0.0000 
     56 CA          0.7380   12.4350   15.2330 C.3      12 GLL5        0.0000 
@<TRIPOS>BOND
@<TRIPOS>SUBSTRUCTURE
     1 ALC1        4 GROUP        1 X    ALC  0     ROOT ALC X 1
     2 SEC2        1 GROUP        1 X    SEC  0     **** SEC X 2
     3 ZIC7        7 GROUP        1 X    ZIC  0     **** ZIC X 5
     4 GLC5       10 GROUP        1 X    GLC  0     **** GLC X 6
     5 ALP1        6 GROUP        1 Y    ALP  0     ROOT ALP Y 8
     6 SEP2        3 GROUP        1 Y    SEP  0     **** SEP Y 9
     7 ZIP7        9 GROUP        1 Y    ZIP  0     **** ZIP Y 12
     8 GLP5       12 GROUP        1 Y    GLP  0     **** GLP Y 13
     9 ALL1        5 GROUP        1 Z    ALL  0     ROOT ALL Z 15
    10 SEL2        2 GROUP        1 Z    SEL  0     **** SEL Z 16
    11 ZIL7        8 GROUP        1 Z    ZIL  0     **** ZIL Z 19
    12 GLL5       11 GROUP        1 Z    GLL  0     **** GLL Z 20
@<TRIPOS>SET

