#    Name: 3c7p_POF_1_ligand
#    Modification time : Mon Mar 24 20:34:18 2014

@<TRIPOS>MOLECULE
3c7p_POF_1_ligand
   59    63     1     0     0
SMALL
NO_CHARGES


@<TRIPOS>ATOM
      1 O1         -4.6800    1.4930   17.2800 O.2       1 POF265      0.0000 
      2 O3         -4.9330    1.2870   14.8720 O.3       1 POF265      0.0000 
      3 O4         -3.4500   12.4880   13.7150 O.2       1 POF265      0.0000 
      4 O2         -6.9220    1.4180   16.2440 O.2       1 POF265      0.0000 
      5 C1         -4.3760    2.5740   14.6350 C.ar      1 POF265      0.0000 
      6 C2         -5.1710    3.7340   14.5710 C.ar      1 POF265      0.0000 
      7 N1         -5.5760   -0.6130   16.4690 N.pl3     1 POF265      0.0000 
      8 C3         -4.5510    4.9930   14.3370 C.ar      1 POF265      0.0000 
      9 C4         -3.1170    5.0780   14.1670 C.ar      1 POF265      0.0000 
     10 C5         -2.3670    3.8670   14.2420 C.ar      1 POF265      0.0000 
     11 S1         -5.5770    0.9490   16.3160 S.o2      1 POF265      0.0000 
     12 C6         -2.9870    2.6250   14.4740 C.ar      1 POF265      0.0000 
     13 C7         -5.4180    6.2340   14.2780 C.3       1 POF265      0.0000 
     14 C8         -4.6140    7.5400   14.4800 C.3       1 POF265      0.0000 
     15 C9         -3.4180    7.5800   13.5200 C.3       1 POF265      0.0000 
     16 C10        -2.4140    6.4390   13.9220 C.3       1 POF265      0.0000 
     17 C11        -2.6400    8.9410   13.5400 C.3       1 POF265      0.0000 
     18 C12        -1.4390    8.9480   12.4970 C.3       1 POF265      0.0000 
     19 C13        -0.5220    7.7130   12.7590 C.3       1 POF265      0.0000 
     20 C14        -1.2910    6.3770   12.8570 C.3       1 POF265      0.0000 
     21 C15        -1.9510    8.9040   11.0140 C.3       1 POF265      0.0000 
     22 C16        -3.5490   10.1820   13.2730 C.3       1 POF265      0.0000 
     23 C17        -2.8090   11.4950   13.3620 C.2       1 POF265      0.0000 
     24 N2         -1.3750   11.5060   13.0330 N.am      1 POF265      0.0000 
     25 C18        -0.6570   10.2720   12.6100 C.2       1 POF265      0.0000 
     26 O5          0.5590   10.2800   12.3390 O.2       1 POF265      0.0000 
     27 C19        -0.5980   12.8190   13.1270 C.3       1 POF265      0.0000 
     28 C20        -0.1300   13.2150   14.4610 C.ar      1 POF265      0.0000 
     29 C21         0.7380   12.4350   15.2330 C.ar      1 POF265      0.0000 
     30 C22         1.1880   12.8690   16.5700 C.ar      1 POF265      0.0000 
     31 C23         0.7280   14.0810   17.0520 C.ar      1 POF265      0.0000 
     32 N3         -0.0900   14.8090   16.3170 N.ar      1 POF265      0.0000 
     33 C24        -0.5460   14.4300   15.0300 C.ar      1 POF265      0.0000 
     34 H          -6.1782    3.6798   14.6899 H         1 POF265      0.0000 
     35 H          -4.9422   -0.9885   17.1452 H         1 POF265      0.0000 
     36 H          -1.3429    3.9112   14.1219 H         1 POF265      0.0000 
     37 H          -2.4277    1.7751   14.5235 H         1 POF265      0.0000 
     38 H          -6.1919    6.1806   15.0537 H         1 POF265      0.0000 
     39 H          -5.9229    6.2854   13.3054 H         1 POF265      0.0000 
     40 H          -4.2579    7.5797   15.5024 H         1 POF265      0.0000 
     41 H          -5.2620    8.3861   14.2852 H         1 POF265      0.0000 
     42 H          -3.7421    7.3812   12.5197 H         1 POF265      0.0000 
     43 H          -1.9466    6.7604   14.8664 H         1 POF265      0.0000 
     44 H          -2.1903    9.0650   14.5276 H         1 POF265      0.0000 
     45 H           0.0265    7.8800   13.6932 H         1 POF265      0.0000 
     46 H           0.2105    7.6460   11.9463 H         1 POF265      0.0000 
     47 H          -1.7340    6.1490   11.8893 H         1 POF265      0.0000 
     48 H          -0.5949    5.5839   13.1234 H         1 POF265      0.0000 
     49 H          -4.3688   10.1637   14.0032 H         1 POF265      0.0000 
     50 H          -3.9914   10.0682   12.2745 H         1 POF265      0.0000 
     51 H          -1.2441   13.6265   12.6934 H         1 POF265      0.0000 
     52 H           0.2714   12.7491   12.4222 H         1 POF265      0.0000 
     53 H           1.0885   11.5344   14.8903 H         1 POF265      0.0000 
     54 H           1.8103   12.2711   17.0811 H         1 POF265      0.0000 
     55 H           1.0428   14.3912   17.9934 H         1 POF265      0.0000 
     56 H          -1.1808   15.0477   14.5174 H         1 POF265      0.0000 
     57 H          -1.1947    8.9039   10.3598 H         1 POF265      0.0000 
     58 H          -2.4951    8.0847   10.8331 H         1 POF265      0.0000 
     59 H          -2.5267    9.6921   10.7963 H         1 POF265      0.0000 
@<TRIPOS>BOND
     1   11    1 2    
     2    5    2 1    
     3   11    2 1    
     4   23    3 2    
     5   11    4 2    
     6    6    5 ar   
     7   12    5 ar   
     8    8    6 ar   
     9   34    6 1    
    10   11    7 1    
    11   35    7 1    
    12    9    8 ar   
    13   13    8 1    
    14   10    9 ar   
    15   16    9 1    
    16   12   10 ar   
    17   36   10 1    
    18   37   12 1    
    19   14   13 1    
    20   38   13 1    
    21   39   13 1    
    22   15   14 1    
    23   40   14 1    
    24   41   14 1    
    25   16   15 1    
    26   17   15 1    
    27   42   15 1    
    28   20   16 1    
    29   43   16 1    
    30   18   17 1    
    31   22   17 1    
    32   44   17 1    
    33   19   18 1    
    34   21   18 1    
    35   25   18 1    
    36   20   19 1    
    37   45   19 1    
    38   46   19 1    
    39   47   20 1    
    40   48   20 1    
    41   57   21 1    
    42   58   21 1    
    43   59   21 1    
    44   23   22 1    
    45   49   22 1    
    46   50   22 1    
    47   24   23 am   
    48   25   24 am   
    49   27   24 1    
    50   26   25 2    
    51   28   27 1    
    52   51   27 1    
    53   52   27 1    
    54   29   28 ar   
    55   33   28 ar   
    56   30   29 ar   
    57   53   29 1    
    58   31   30 ar   
    59   54   30 1    
    60   32   31 ar   
    61   55   31 1    
    62   33   32 ar   
    63   56   33 1    
@<TRIPOS>SUBSTRUCTURE
     1 POF265      1 GROUP   
@<TRIPOS>SET

