#    Name: 2e9v_85A_1_INTS_M
#    Modification time : Tue Mar 25 10:47:20 2014

@<TRIPOS>MOLECULE
2e9v_85A_1_INTS_M
   64     0     9     0     0
SMALL
NO_CHARGES


@<TRIPOS>ATOM
      1 CA          1.7880   12.1355   -0.3945 C.3       3 GLC5        0.0000 
      2 CA          2.4330   13.8180   -1.5040 C.3       9 GLL5        0.0000 
      3 CA          1.1430   10.4530    0.7150 C.3       6 GLP5        0.0000 
      4 CA          4.4985   16.7925   -2.0240 C.3       3 GLC5        0.0000 
      5 CA          6.0630   15.5660   -1.0870 C.3       9 GLL5        0.0000 
      6 CA          2.9340   18.0190   -2.9610 C.3       6 GLP5        0.0000 
      7 CA          4.9425   16.9115    0.2620 C.3       3 GLC5        0.0000 
      8 CA          3.8220   18.2570    1.6110 C.3       6 GLP5        0.0000 
      9 CA          6.4970   15.7360    0.8810 C.3       3 GLC5        0.0000 
     10 CA          6.9310   15.9060    2.8490 C.3       6 GLP5        0.0000 
     11 CA          6.5295   13.7750   -0.9980 C.3       3 GLC5        0.0000 
     12 CA          6.9960   11.9840   -0.9090 C.3       6 GLP5        0.0000 
     13 CA         -6.2780   11.1335   -1.8120 C.3       3 GLC5        0.0000 
     14 CA         -4.7440   10.5340   -0.5340 C.3       9 GLL5        0.0000 
     15 CA         -7.8120   11.7330   -3.0900 C.3       6 GLP5        0.0000 
     16 CA         -5.2870    8.7425   -0.4785 C.3       3 GLC5        0.0000 
     17 CA         -5.8300    6.9510   -0.4230 C.3       6 GLP5        0.0000 
     18 O          -0.5980   13.9045    2.6470 O.2       1 ALC1        0.0000 
     19 O          -0.2790   13.6620    1.1160 O.2       7 ALL1        0.0000 
     20 O          -0.9170   14.1470    4.1780 O.2       4 ALP1        0.0000 
     21 N           2.1855   14.6990    2.5430 N.am      2 SEC2        0.0000 
     22 N           1.6310   14.7770    1.2690 N.am      8 SEL2        0.0000 
     23 N           2.7400   14.6210    3.8170 N.am      5 SEP2        0.0000 
     24 CA         -1.9955   14.2910   -0.8720 C.3       3 GLC5        0.0000 
     25 CA         -1.3510   12.8810    0.7120 C.3       9 GLL5        0.0000 
     26 CA         -2.6400   15.7010   -2.4560 C.3       6 GLP5        0.0000 
     27 CA         -3.2025   12.9770   -2.6155 C.3       3 GLC5        0.0000 
     28 CA         -2.5580   11.6660   -1.0910 C.3       9 GLL5        0.0000 
     29 CA         -3.8470   14.2880   -4.1400 C.3       6 GLP5        0.0000 
     30 CA         -0.7075   11.0595   -0.1880 C.3       3 GLC5        0.0000 
     31 CA         -2.6080   11.7315    3.2580 C.3       3 GLC5        0.0000 
     32 CA         -2.3920   12.5050    1.6290 C.3       9 GLL5        0.0000 
     33 CA         -2.8240   10.9580    4.8870 C.3       6 GLP5        0.0000 
     34 CA         -3.8295   13.3035    2.4675 C.3       3 GLC5        0.0000 
     35 CA         -5.2670   14.1020    3.3060 C.3       6 GLP5        0.0000 
     36 CA          1.9560   10.3615   -2.4710 C.3       3 GLC5        0.0000 
     37 CA          1.3660   11.5560   -4.0420 C.3       9 GLL5        0.0000 
     38 CA          2.5460    9.1670   -0.9000 C.3       6 GLP5        0.0000 
     39 CA          0.2315   12.9845   -6.6065 C.3       3 GLC5        0.0000 
     40 CA          0.5050   11.5270   -5.3190 C.3       9 GLL5        0.0000 
     41 CA         -0.0420   14.4420   -7.8940 C.3       6 GLP5        0.0000 
     42 CA         -2.3140   12.8675   -4.3015 C.3       3 GLC5        0.0000 
     43 CA         -0.7810   11.4470   -4.4630 C.3       9 GLL5        0.0000 
     44 CA          4.3975   16.8350   -4.0185 C.3       3 GLC5        0.0000 
     45 CA          5.8610   15.6510   -5.0760 C.3       9 GLL5        0.0000 
     46 CA          3.6985   11.6300   -3.7957 C.3       3 GLC5        0.0000 
     47 CA          2.4230   13.4460   -2.9350 C.3       9 GLL5        0.0000 
     48 CA          4.3760    9.6540   -4.2390 C.3       6 GLP5        0.0000 
     49 CA          2.0005   15.2040   -3.3501 C.3       3 GLC5        0.0000 
     50 CA          3.6190   13.7660   -3.7700 C.3       9 GLL5        0.0000 
     51 CA          1.2740   16.6960   -4.2720 C.3       6 GLP5        0.0000 
     52 CA          3.7055   16.2771   -2.6282 C.3       3 GLC5        0.0000 
     53 CA          3.6280   14.4960   -0.9690 C.3       9 GLL5        0.0000 
     54 CA          5.7365   13.2596   -1.6022 C.3       3 GLC5        0.0000 
     55 CA          4.7420   14.7810   -1.8030 C.3       9 GLL5        0.0000 
     56 CA         -5.3838   11.8175    0.6903 C.3       3 GLC5        0.0000 
     57 CA         -3.5970   11.3160   -0.1010 C.3       9 GLL5        0.0000 
     58 CA         -6.5970   12.7100    1.6980 C.3       6 GLP5        0.0000 
     59 CA         -3.1827    9.4085    0.5828 C.3       3 GLC5        0.0000 
     60 CA         -2.1950    7.8920    1.4830 C.3       6 GLP5        0.0000 
     61 CA         -1.8977   14.5895    1.3317 C.3       3 GLC5        0.0000 
     62 CA         -1.9240   16.4860    1.4930 C.3       6 GLP5        0.0000 
     63 CA         -0.3642   11.5730    0.9427 C.3       3 GLC5        0.0000 
     64 CA          2.6558   10.5977   -4.4597 C.3       3 GLC5        0.0000 
@<TRIPOS>BOND
@<TRIPOS>SUBSTRUCTURE
     1 ALC1       18 GROUP        1 X    ALC  0     ROOT ALC X 1
     2 SEC2       21 GROUP        1 X    SEC  0     **** SEC X 2
     3 GLC5        1 GROUP        1 X    GLC  0     **** GLC X 6
     4 ALP1       20 GROUP        1 Y    ALP  0     ROOT ALP Y 8
     5 SEP2       23 GROUP        1 Y    SEP  0     **** SEP Y 9
     6 GLP5        3 GROUP        1 Y    GLP  0     **** GLP Y 13
     7 ALL1       19 GROUP        1 Z    ALL  0     ROOT ALL Z 15
     8 SEL2       22 GROUP        1 Z    SEL  0     **** SEL Z 16
     9 GLL5        2 GROUP        1 Z    GLL  0     **** GLL Z 20
@<TRIPOS>SET

