#    Name: 2e9v_85A_1_ligand
#    Modification time : Tue Mar 25 10:47:20 2014

@<TRIPOS>MOLECULE
2e9v_85A_1_ligand
   56    59     1     0     0
SMALL
NO_CHARGES


@<TRIPOS>ATOM
      1 C1          3.6190   13.7660   -3.7700 C.ar      1 85A1001     0.0000 
      2 C2          2.4230   13.4460   -2.9350 C.ar      1 85A1001     0.0000 
      3 C3          2.4330   13.8180   -1.5040 C.ar      1 85A1001     0.0000 
      4 C4          3.6280   14.4960   -0.9690 C.ar      1 85A1001     0.0000 
      5 C5          4.7420   14.7810   -1.8030 C.ar      1 85A1001     0.0000 
      6 C6          4.7690   14.4320   -3.2050 C.ar      1 85A1001     0.0000 
      7 N7          5.8510   14.7210   -3.9870 N.pl3     1 85A1001     0.0000 
      8 CL8         6.0630   15.5660   -1.0870 Cl        1 85A1001     0.0000 
      9 C9         -4.7440   10.5340   -0.5340 C.1       1 85A1001     0.0000 
     10 N10        -5.6800    9.9510   -0.8460 N.1       1 85A1001     0.0000 
     11 N11         1.2860   13.5200   -0.6860 N.am      1 85A1001     0.0000 
     12 C12         0.9260   14.0250    0.5960 C.2       1 85A1001     0.0000 
     13 N13        -0.2790   13.6620    1.1160 N.am      1 85A1001     0.0000 
     14 O14         1.6310   14.7770    1.2690 O.2       1 85A1001     0.0000 
     15 C15        -1.3510   12.8810    0.7120 C.ar      1 85A1001     0.0000 
     16 N16        -1.4380   12.4490   -0.6630 N.ar      1 85A1001     0.0000 
     17 C17        -2.5580   11.6660   -1.0910 C.ar      1 85A1001     0.0000 
     18 C18        -3.5970   11.3160   -0.1010 C.ar      1 85A1001     0.0000 
     19 N19        -3.4810   11.7440    1.2200 N.ar      1 85A1001     0.0000 
     20 C20        -2.3920   12.5050    1.6290 C.ar      1 85A1001     0.0000 
     21 O21         1.2390   12.8080   -3.3940 O.3       1 85A1001     0.0000 
     22 C22         1.3660   11.5560   -4.0420 C.3       1 85A1001     0.0000 
     23 C23        -1.5420   10.0890   -4.4050 C.3       1 85A1001     0.0000 
     24 C24        -1.7530   10.1650   -2.8680 C.3       1 85A1001     0.0000 
     25 O25        -2.5350   11.3100   -2.4830 O.3       1 85A1001     0.0000 
     26 C26         0.5050   11.5270   -5.3190 C.3       1 85A1001     0.0000 
     27 C27        -0.7810   11.4470   -4.4630 C.3       1 85A1001     0.0000 
     28 C28         5.8610   15.6510   -5.0760 C.3       1 85A1001     0.0000 
     29 C29         7.2570   16.1210   -5.3700 C.ar      1 85A1001     0.0000 
     30 C30         7.9810   15.6030   -6.4740 C.ar      1 85A1001     0.0000 
     31 C31         9.2950   16.0750   -6.7090 C.ar      1 85A1001     0.0000 
     32 N32         9.8940   17.0130   -5.9090 N.ar      1 85A1001     0.0000 
     33 C33         9.1910   17.5080   -4.8480 C.ar      1 85A1001     0.0000 
     34 C34         7.8750   17.0910   -4.5430 C.ar      1 85A1001     0.0000 
     35 H           3.6029   13.5030   -4.7464 H         1 85A1001     0.0000 
     36 H           3.6322   14.7540    0.0145 H         1 85A1001     0.0000 
     37 H           6.7737   14.2286   -3.7919 H         1 85A1001     0.0000 
     38 H           0.5944   12.8011   -1.1164 H         1 85A1001     0.0000 
     39 H          -0.4610   14.1163    2.1578 H         1 85A1001     0.0000 
     40 H          -2.3105   12.8170    2.6090 H         1 85A1001     0.0000 
     41 H           1.0330   10.7237   -3.4068 H         1 85A1001     0.0000 
     42 H           2.4016   11.3475   -4.3437 H         1 85A1001     0.0000 
     43 H          -2.4371   10.1788   -4.8803 H         1 85A1001     0.0000 
     44 H          -0.9025    9.3297   -4.6277 H         1 85A1001     0.0000 
     45 H          -0.7528   10.1815   -2.4043 H         1 85A1001     0.0000 
     46 H          -2.2344    9.2221   -2.5603 H         1 85A1001     0.0000 
     47 H           0.6430   10.6535   -5.8078 H         1 85A1001     0.0000 
     48 H           0.5486   12.4228   -5.7843 H         1 85A1001     0.0000 
     49 H          -0.5281   11.7458   -3.4176 H         1 85A1001     0.0000 
     50 H          -1.4938   12.2269   -4.8233 H         1 85A1001     0.0000 
     51 H           5.2384   16.5337   -4.8507 H         1 85A1001     0.0000 
     52 H           5.4487   15.1948   -5.9922 H         1 85A1001     0.0000 
     53 H           7.5658   14.9098   -7.0811 H         1 85A1001     0.0000 
     54 H           9.8117   15.6818   -7.5278 H         1 85A1001     0.0000 
     55 H           9.6268   18.2267   -4.2226 H         1 85A1001     0.0000 
     56 H           7.3823   17.4777   -3.7485 H         1 85A1001     0.0000 
@<TRIPOS>BOND
     1    2    1 ar   
     2    6    1 ar   
     3   35    1 1    
     4    3    2 ar   
     5   21    2 1    
     6    4    3 ar   
     7   11    3 1    
     8    5    4 ar   
     9   36    4 1    
    10    6    5 ar   
    11    8    5 1    
    12    7    6 1    
    13   28    7 1    
    14   37    7 1    
    15   10    9 3    
    16   18    9 1    
    17   12   11 am   
    18   38   11 1    
    19   13   12 am   
    20   14   12 2    
    21   15   13 1    
    22   39   13 1    
    23   16   15 ar   
    24   20   15 ar   
    25   17   16 ar   
    26   18   17 ar   
    27   25   17 1    
    28   19   18 ar   
    29   20   19 ar   
    30   40   20 1    
    31   22   21 1    
    32   26   22 1    
    33   41   22 1    
    34   42   22 1    
    35   24   23 1    
    36   27   23 1    
    37   43   23 1    
    38   44   23 1    
    39   25   24 1    
    40   45   24 1    
    41   46   24 1    
    42   27   26 1    
    43   47   26 1    
    44   48   26 1    
    45   49   27 1    
    46   50   27 1    
    47   29   28 1    
    48   51   28 1    
    49   52   28 1    
    50   30   29 ar   
    51   34   29 ar   
    52   31   30 ar   
    53   53   30 1    
    54   32   31 ar   
    55   54   31 1    
    56   33   32 ar   
    57   34   33 ar   
    58   55   33 1    
    59   56   34 1    
@<TRIPOS>SUBSTRUCTURE
     1 85A1001     1 GROUP   
@<TRIPOS>SET

