#    Name: 1CQ7_1_CAVITY_N1_6.mol2
#    Modification time : Mon Mar 10 17:00:27 2014

@<TRIPOS>MOLECULE
1CQ7_1_CAVITY_N1_6.mol2
   91     0     7     0     0
SMALL
NO_CHARGES


@<TRIPOS>ATOM
      1 CA         24.6806   10.3762   -8.6523 C.3       6 GLY6        0.0000 
      2 CA         23.3506    9.8796   -8.1682 C.3       6 GLY6        0.0000 
      3 CA         19.3085   10.9631   -8.8662 C.3       6 GLY6        0.0000 
      4 CA         18.6695    9.4280   -7.5489 C.3       6 GLY6        0.0000 
      5 CA         25.2603   10.9496  -11.1191 C.3       6 GLY6        0.0000 
      6 CZ         25.9514    9.9111  -10.2860 C.ar      5 PHE5        0.0000 
      7 CA         23.9303   10.4529  -10.6350 C.3       6 GLY6        0.0000 
      8 DU         24.6213    9.4145   -9.8019 H         7 CUB7        0.0000 
      9 CZ         25.3124    8.3760   -8.9687 C.ar      5 PHE5        0.0000 
     10 CA         22.6003    9.9562  -10.1509 C.3       6 GLY6        0.0000 
     11 DU         23.2913    8.9178   -9.3177 H         7 CUB7        0.0000 
     12 DU         23.9824    7.8794   -8.4846 H         7 CUB7        0.0000 
     13 CA         21.2703    9.4595   -9.6668 C.3       6 GLY6        0.0000 
     14 DU         21.9613    8.4211   -8.8336 H         7 CUB7        0.0000 
     15 O          22.6524    7.3827   -8.0005 O.2       2 ALA2        0.0000 
     16 CA         19.2492   10.0013  -10.0158 C.3       6 GLY6        0.0000 
     17 DU         19.9402    8.9629   -9.1826 H         7 CUB7        0.0000 
     18 O          20.6313    7.9244   -8.3495 O.2       2 ALA2        0.0000 
     19 O          21.3223    6.8860   -7.5164 O.2       2 ALA2        0.0000 
     20 CA         18.6102    8.4662   -8.6985 C.3       6 GLY6        0.0000 
     21 O          25.2010    9.9878  -12.2687 O.2       2 ALA2        0.0000 
     22 CA         23.1800   10.5296  -12.6177 C.3       6 GLY6        0.0000 
     23 DU         23.8710    9.4911  -11.7846 H         7 CUB7        0.0000 
     24 CZ         24.5621    8.4527  -10.9514 C.ar      5 PHE5        0.0000 
     25 CZ         25.2531    7.4143  -10.1183 C.ar      5 PHE5        0.0000 
     26 CA         21.8499   10.0329  -12.1336 C.3       6 GLY6        0.0000 
     27 CA         22.5410    8.9945  -11.3005 C.3       6 GLY6        0.0000 
     28 DU         23.2320    7.9560  -10.4673 H         7 CUB7        0.0000 
     29 OG         23.9231    6.9176   -9.6342 O.2       1 SER1        0.0000 
     30 CA         20.5199    9.5362  -11.6495 C.3       6 GLY6        0.0000 
     31 DU         21.2110    8.4978  -10.8163 H         7 CUB7        0.0000 
     32 DU         21.9020    7.4594   -9.9832 H         7 CUB7        0.0000 
     33 O          22.5931    6.4209   -9.1500 O.2       2 ALA2        0.0000 
     34 CZ         19.1899    9.0395  -11.1653 C.ar      5 PHE5        0.0000 
     35 CZ         19.8810    8.0011  -10.3322 C.ar      5 PHE5        0.0000 
     36 O          20.5720    6.9627   -9.4991 O.2       2 ALA2        0.0000 
     37 N          19.2420    6.4660   -9.0149 N.2       2 ALA2        0.0000 
     38 O          24.4507   10.0645  -14.2514 O.2       2 ALA2        0.0000 
     39 O          25.1417    9.0260  -13.4183 O.2       2 ALA2        0.0000 
     40 OD1        23.1207    9.5678  -13.7673 O.3       3 ASP3        0.0000 
     41 OD1        23.8117    8.5294  -12.9341 O.3       3 ASP3        0.0000 
     42 CZ         24.5028    7.4909  -12.1010 C.ar      5 PHE5        0.0000 
     43 CZ         25.1938    6.4525  -11.2679 C.ar      5 PHE5        0.0000 
     44 OD1        22.4817    8.0327  -12.4500 O.3       3 ASP3        0.0000 
     45 CA         23.1728    6.9943  -11.6169 C.3       6 GLY6        0.0000 
     46 OG         23.8638    5.9558  -10.7837 O.2       1 SER1        0.0000 
     47 CA         21.1517    7.5360  -11.9659 C.3       6 GLY6        0.0000 
     48 CA         21.8427    6.4976  -11.1327 C.3       6 GLY6        0.0000 
     49 O          22.5338    5.4592  -10.2996 O.2       2 ALA2        0.0000 
     50 O          23.2248    4.4207   -9.4665 O.2       2 ALA2        0.0000 
     51 CA         19.8217    7.0393  -11.4818 C.3       6 GLY6        0.0000 
     52 CA         20.5127    6.0009  -10.6486 C.3       6 GLY6        0.0000 
     53 O          21.2038    4.9625   -9.8155 O.2       2 ALA2        0.0000 
     54 OG         24.3914    9.1027  -15.4010 O.2       1 SER1        0.0000 
     55 O          25.0824    8.0643  -14.5678 O.2       2 ALA2        0.0000 
     56 CZ         25.7735    7.0258  -13.7347 C.ar      5 PHE5        0.0000 
     57 OD1        23.0614    8.6060  -14.9168 O.3       3 ASP3        0.0000 
     58 OD1        23.7524    7.5676  -14.0837 O.3       3 ASP3        0.0000 
     59 OD1        24.4435    6.5292  -13.2506 O.3       3 ASP3        0.0000 
     60 CZ         25.1345    5.4907  -12.4174 C.ar      5 PHE5        0.0000 
     61 OG         25.8256    4.4523  -11.5843 O.2       1 SER1        0.0000 
     62 CA         23.1135    6.0325  -12.7664 C.3       6 GLY6        0.0000 
     63 DU         23.8045    4.9941  -11.9333 H         7 CUB7        0.0000 
     64 OG         24.4956    3.9556  -11.1002 O.2       1 SER1        0.0000 
     65 CA         22.4745    4.4974  -11.4492 C.3       6 GLY6        0.0000 
     66 O          23.1655    3.4590  -10.6160 O.2       2 ALA2        0.0000 
     67 CA         27.0442    6.5608  -15.3684 C.3       6 GLY6        0.0000 
     68 OG         25.0232    7.1025  -15.7174 O.2       1 SER1        0.0000 
     69 CZ         25.7142    6.0641  -14.8843 C.ar      5 PHE5        0.0000 
     70 CZ         26.4053    5.0257  -14.0511 C.ar      5 PHE5        0.0000 
     71 OG         24.3842    5.5674  -14.4001 O.2       1 SER1        0.0000 
     72 CA         25.0752    4.5290  -13.5670 C.3       6 GLY6        0.0000 
     73 CZ         25.7663    3.4906  -12.7338 C.ar      5 PHE5        0.0000 
     74 CA         23.0542    5.0707  -13.9160 C.3       6 GLY6        0.0000 
     75 CA         23.7452    4.0323  -13.0829 C.3       6 GLY6        0.0000 
     76 CA         24.4363    2.9939  -12.2497 C.3       6 GLY6        0.0000 
     77 OG         22.4152    3.5356  -12.5987 O.2       1 SER1        0.0000 
     78 O          26.9849    5.5990  -16.5179 O.2       2 ALA2        0.0000 
     79 NZ         27.6760    4.5606  -15.6848 N.2       4 LYS4        0.0000 
     80 CZ         25.6549    5.1023  -16.0338 C.ar      5 PHE5        0.0000 
     81 NZ         26.3460    4.0639  -15.2007 N.2       4 LYS4        0.0000 
     82 CA         24.3249    4.6056  -15.5497 C.3       6 GLY6        0.0000 
     83 CA         25.0160    3.5672  -14.7166 C.3       6 GLY6        0.0000 
     84 NZ         25.7070    2.5288  -13.8834 N.2       4 LYS4        0.0000 
     85 O          28.2557    5.1339  -18.1516 O.2       2 ALA2        0.0000 
     86 CA         26.9256    4.6372  -17.6675 C.3       6 GLY6        0.0000 
     87 CZ         25.5956    4.1406  -17.1834 C.ar      5 PHE5        0.0000 
     88 NZ         26.2867    3.1021  -16.3502 N.2       4 LYS4        0.0000 
     89 O          26.8664    3.6755  -18.8171 O.2       2 ALA2        0.0000 
     90 NZ         27.5574    2.6370  -17.9839 N.2       4 LYS4        0.0000 
     91 CZ         25.5363    3.1788  -18.3329 C.ar      5 PHE5        0.0000 
@<TRIPOS>BOND
@<TRIPOS>SUBSTRUCTURE
     1 SER1       29 GROUP   
     2 ALA2       15 GROUP   
     3 ASP3       40 GROUP   
     4 LYS4       79 GROUP   
     5 PHE5        6 GROUP   
     6 GLY6        1 GROUP   
     7 CUB7        8 GROUP   
@<TRIPOS>SET

