#    Name: 1cq7_PY5_1_INTS_M
#    Modification time : Mon Mar 24 20:52:06 2014

@<TRIPOS>MOLECULE
1cq7_PY5_1_INTS_M
   81     0    12     0     0
SMALL
NO_CHARGES


@<TRIPOS>ATOM
      1 CA         27.0795    6.2465  -18.5115 C.3       4 GLC5        0.0000 
      2 CA         27.1130    4.7940  -17.1700 C.3      12 GLL5        0.0000 
      3 CA         27.0460    7.6990  -19.8530 C.3       8 GLP5        0.0000 
      4 CA         25.2040    5.0565  -17.9725 C.3       4 GLC5        0.0000 
      5 CA         23.2950    5.3190  -18.7750 C.3       8 GLP5        0.0000 
      6 N          26.0740    7.7900  -16.8785 N.am      2 SEC2        0.0000 
      7 N          25.3570    6.9120  -16.0960 N.am     10 SEL2        0.0000 
      8 N          26.7910    8.6680  -17.6610 N.am      6 SEP2        0.0000 
      9 O          24.1475    7.0745  -16.7390 O.2       1 ALC1        0.0000 
     10 O          25.3570    6.9120  -16.0960 O.2       9 ALL1        0.0000 
     11 O          22.9380    7.2370  -17.3820 O.2       5 ALP1        0.0000 
     12 CA         25.9245    7.0950  -12.4050 C.3       4 GLC5        0.0000 
     13 CA         24.0540    6.8460  -13.3830 C.3      12 GLL5        0.0000 
     14 CA         27.7950    7.3440  -11.4270 C.3       8 GLP5        0.0000 
     15 CA         22.2400    6.3815  -13.7500 C.3       4 GLC5        0.0000 
     16 CA         20.4260    5.9170  -14.1170 C.3       8 GLP5        0.0000 
     17 CA         24.7870    2.0970  -11.2440 C.3       4 GLC5        0.0000 
     18 CA         24.8670    4.1260  -11.9270 C.3      12 GLL5        0.0000 
     19 CA         24.7070    0.0680  -10.5610 C.3       8 GLP5        0.0000 
     20 CA         26.4975    5.0830  -11.5460 C.3       4 GLC5        0.0000 
     21 CA         28.1280    6.0400  -11.1650 C.3       8 GLP5        0.0000 
     22 N          22.9705    1.5615  -10.2125 N.am      2 SEC2        0.0000 
     23 N          22.2830    2.7040  -10.8020 N.am     10 SEL2        0.0000 
     24 N          23.6580    0.4190   -9.6230 N.am      6 SEP2        0.0000 
     25 N          21.5660    1.9875  -11.5110 N.am      2 SEC2        0.0000 
     26 N          20.8490    1.2710  -12.2200 N.am      6 SEP2        0.0000 
     27 N          20.7485    2.9125  -10.5650 N.am      2 SEC2        0.0000 
     28 N          19.2140    3.1210  -10.3280 N.am      6 SEP2        0.0000 
     29 NZ         21.2965    4.6165   -8.6095 N.4       3 LYC4        0.0000 
     30 NZ         21.8500    5.0840   -9.9480 N.4      11 LYL4        0.0000 
     31 NZ         21.7140    4.1690   -6.3680 N.4       7 LYP4        0.0000 
     32 N          21.2965    4.6165   -8.6095 N.am      2 SEC2        0.0000 
     33 N          21.8500    5.0840   -9.9480 N.am     10 SEL2        0.0000 
     34 N          20.7430    4.1490   -7.2710 N.am      6 SEP2        0.0000 
     35 NZ         23.3520    3.9205   -8.0210 N.4       3 LYC4        0.0000 
     36 NZ         23.7280    3.6560   -9.2860 N.4      11 LYL4        0.0000 
     37 N          24.8780    2.6175   -9.2395 N.am      2 SEC2        0.0000 
     38 N          23.7280    3.6560   -9.2860 N.am     10 SEL2        0.0000 
     39 N          26.0280    1.5790   -9.1930 N.am      6 SEP2        0.0000 
     40 N          25.0880    4.0190   -9.0925 N.am      2 SEC2        0.0000 
     41 N          26.4480    4.3820   -8.8990 N.am      6 SEP2        0.0000 
     42 N          23.3520    3.9205   -8.0210 N.am      2 SEC2        0.0000 
     43 N          22.9760    4.1850   -6.7560 N.am      6 SEP2        0.0000 
     44 CA         21.8120   10.3470  -14.9600 C.3       4 GLC5        0.0000 
     45 CA         23.4470    9.2210  -13.9680 C.3      12 GLL5        0.0000 
     46 CA         20.1770   11.4730  -15.9520 C.3       8 GLP5        0.0000 
     47 CA         21.9365    7.5690  -14.0425 C.3       4 GLC5        0.0000 
     48 NZ         25.1590   11.0560  -16.6670 N.4       3 LYC4        0.0000 
     49 NZ         24.5770   10.2430  -15.7950 N.4      11 LYL4        0.0000 
     50 NZ         25.2310   13.0930  -17.5240 N.4       7 LYP4        0.0000 
     51 N          25.6840    9.4555  -16.7280 N.am      2 SEC2        0.0000 
     52 N          24.5770   10.2430  -15.7950 N.am     10 SEL2        0.0000 
     53 N          25.1590   11.0560  -16.6670 N.am      2 SEC2        0.0000 
     54 N          25.7410   11.8690  -17.5390 N.am      6 SEP2        0.0000 
     55 N          24.5815   11.8795  -16.1190 N.am      2 SEC2        0.0000 
     56 N          24.5860   13.5160  -16.4430 N.am      6 SEP2        0.0000 
     57 CA         22.1655   11.1590  -12.2835 C.3       4 GLC5        0.0000 
     58 CA         23.0610    9.4870  -12.5180 C.3      12 GLL5        0.0000 
     59 CA         21.2700   12.8310  -12.0490 C.3       8 GLP5        0.0000 
     60 CA         24.7435   11.8225  -11.9975 C.3       4 GLC5        0.0000 
     61 CA         24.2000    9.9650  -11.6310 C.3      12 GLL5        0.0000 
     62 CA         25.2870   13.6800  -12.3640 C.3       8 GLP5        0.0000 
     63 CA         25.9975    8.6545  -11.5290 C.3       4 GLC5        0.0000 
     64 CA         23.8605   11.4695   -9.1660 C.3       4 GLC5        0.0000 
     65 CA         23.8750    9.8710  -10.1520 C.3      12 GLL5        0.0000 
     66 CA         23.8460   13.0680   -8.1800 C.3       8 GLP5        0.0000 
     67 NZ         24.5815   11.8795  -16.1190 N.4       3 LYC4        0.0000 
     68 NZ         23.7600   11.6990  -14.1550 N.4      11 LYL4        0.0000 
     69 N          22.3340   12.0425  -14.6230 N.am      2 SEC2        0.0000 
     70 N          23.7600   11.6990  -14.1550 N.am     10 SEL2        0.0000 
     71 N          20.9080   12.3860  -15.0910 N.am      6 SEP2        0.0000 
     72 N          24.1730   12.6075  -15.2990 N.am      2 SEC2        0.0000 
     73 CA         28.2792    6.2203  -16.2725 C.3       4 GLC5        0.0000 
     74 CA         26.4040    4.8670  -15.8340 C.3      12 GLL5        0.0000 
     75 CA         29.8000    7.6100  -16.0430 C.3       8 GLP5        0.0000 
     76 CA         24.6487    3.8178  -15.8268 C.3       4 GLC5        0.0000 
     77 CA         23.3250    2.2660  -16.1130 C.3       8 GLP5        0.0000 
     78 CA         24.4966    3.3024  -14.9341 C.3       4 GLC5        0.0000 
     79 CA         25.3560    4.5240  -13.3250 C.3      12 GLL5        0.0000 
     80 CA         22.6747   11.2750  -10.7278 C.3       4 GLC5        0.0000 
     81 CA         21.3120   12.6320  -10.5640 C.3       8 GLP5        0.0000 
@<TRIPOS>BOND
@<TRIPOS>SUBSTRUCTURE
     1 ALC1        9 GROUP        1 X    ALC  0     ROOT ALC X 1
     2 SEC2        6 GROUP        1 X    SEC  0     **** SEC X 2
     3 LYC4       29 GROUP        1 X    LYC  0     **** LYC X 4
     4 GLC5        1 GROUP        1 X    GLC  0     **** GLC X 6
     5 ALP1       11 GROUP        1 Y    ALP  0     ROOT ALP Y 8
     6 SEP2        8 GROUP        1 Y    SEP  0     **** SEP Y 9
     7 LYP4       31 GROUP        1 Y    LYP  0     **** LYP Y 11
     8 GLP5        3 GROUP        1 Y    GLP  0     **** GLP Y 13
     9 ALL1       10 GROUP        1 Z    ALL  0     ROOT ALL Z 15
    10 SEL2        7 GROUP        1 Z    SEL  0     **** SEL Z 16
    11 LYL4       30 GROUP        1 Z    LYL  0     **** LYL Z 18
    12 GLL5        2 GROUP        1 Z    GLL  0     **** GLL Z 20
@<TRIPOS>SET

