#    Name: 1cq7_PY5_1_ligand
#    Modification time : Mon Mar 24 20:52:06 2014

@<TRIPOS>MOLECULE
1cq7_PY5_1_ligand
   40    40     1     0     0
SMALL
NO_CHARGES


@<TRIPOS>ATOM
      1 N1         26.6910    3.7390  -15.1030 N.ar      1 PY5413      0.0000 
      2 C2         26.4040    4.8670  -15.8340 C.ar      1 PY5413      0.0000 
      3 C2A        27.1130    4.7940  -17.1700 C.3       1 PY5413      0.0000 
      4 C3         25.5410    5.8720  -15.2470 C.ar      1 PY5413      0.0000 
      5 O3         25.3570    6.9120  -16.0960 O.3       1 PY5413      0.0000 
      6 C4         24.9650    5.7550  -13.9740 C.ar      1 PY5413      0.0000 
      7 C4A        24.0540    6.8460  -13.3830 C.3       1 PY5413      0.0000 
      8 C5         25.3560    4.5240  -13.3250 C.ar      1 PY5413      0.0000 
      9 C6         26.1760    3.5380  -13.8610 C.ar      1 PY5413      0.0000 
     10 C5A        24.8670    4.1260  -11.9270 C.3       1 PY5413      0.0000 
     11 O4P        23.6660    4.6350  -11.5060 O.3       1 PY5413      0.0000 
     12 P          22.7700    3.9770  -10.3960 P.3       1 PY5413      0.0000 
     13 O1P        22.2830    2.7040  -10.8020 O.co2     1 PY5413      0.0000 
     14 O2P        21.8500    5.0840   -9.9480 O.co2     1 PY5413      0.0000 
     15 O3P        23.7280    3.6560   -9.2860 O.co2     1 PY5413      0.0000 
     16 N          24.5220    8.1510  -14.0480 N.4       1 PY5413      0.0000 
     17 CA         23.4470    9.2210  -13.9680 C.3       1 PY5413      0.0000 
     18 C          23.9370   10.5050  -14.6380 C.2       1 PY5413      0.0000 
     19 O          24.5770   10.2430  -15.7950 O.co2     1 PY5413      0.0000 
     20 CB         23.0610    9.4870  -12.5180 C.3       1 PY5413      0.0000 
     21 CG         24.2000    9.9650  -11.6310 C.3       1 PY5413      0.0000 
     22 CD         23.8750    9.8710  -10.1520 C.3       1 PY5413      0.0000 
     23 OXT        23.7600   11.6990  -14.1550 O.co2     1 PY5413      0.0000 
     24 H          24.2040    6.9056  -12.3336 H         1 PY5413      0.0000 
     25 H          23.0450    6.6507  -13.6495 H         1 PY5413      0.0000 
     26 H          26.3771    2.6925  -13.3261 H         1 PY5413      0.0000 
     27 H          25.7150    4.3903  -11.2173 H         1 PY5413      0.0000 
     28 H          24.8788    2.9893  -11.9086 H         1 PY5413      0.0000 
     29 H          22.5710    8.8720  -14.5011 H         1 PY5413      0.0000 
     30 H          22.6348    8.5603  -12.0866 H         1 PY5413      0.0000 
     31 H          22.2496   10.2404  -12.4974 H         1 PY5413      0.0000 
     32 H          24.4373   11.0086  -11.8831 H         1 PY5413      0.0000 
     33 H          25.0961    9.3641  -11.8428 H         1 PY5413      0.0000 
     34 H          28.1053    4.7357  -17.0611 H         1 PY5413      0.0000 
     35 H          26.8285    3.9939  -17.6982 H         1 PY5413      0.0000 
     36 H          26.9268    5.5987  -17.7337 H         1 PY5413      0.0000 
     37 H          24.6345   10.1879   -9.5840 H         1 PY5413      0.0000 
     38 H          23.0779   10.4246   -9.9110 H         1 PY5413      0.0000 
     39 H          23.6739    8.9314   -9.8749 H         1 PY5413      0.0000 
     40 H          24.3808    6.8994  -16.3129 H         1 PY5413      0.0000 
@<TRIPOS>BOND
     1    2    1 ar   
     2    9    1 ar   
     3    3    2 1    
     4    4    2 ar   
     5   34    3 1    
     6   35    3 1    
     7   36    3 1    
     8    5    4 1    
     9    6    4 ar   
    10   40    5 1    
    11    7    6 1    
    12    8    6 ar   
    13   16    7 1    
    14   24    7 1    
    15   25    7 1    
    16    9    8 ar   
    17   10    8 1    
    18   26    9 1    
    19   11   10 1    
    20   27   10 1    
    21   28   10 1    
    22   12   11 1    
    23   13   12 ar   
    24   14   12 ar   
    25   15   12 ar   
    26   17   16 1    
    27   18   17 1    
    28   20   17 1    
    29   29   17 1    
    30   19   18 ar   
    31   23   18 ar   
    32   21   20 1    
    33   30   20 1    
    34   31   20 1    
    35   22   21 1    
    36   32   21 1    
    37   33   21 1    
    38   37   22 1    
    39   38   22 1    
    40   39   22 1    
@<TRIPOS>SUBSTRUCTURE
     1 PY5413      1 GROUP   
@<TRIPOS>SET

