#    Name: 3b20_NAD_3_INTS_M
#    Modification time : Mon Mar 24 18:44:57 2014

@<TRIPOS>MOLECULE
3b20_NAD_3_INTS_M
   65     0     9     0     0
SMALL
NO_CHARGES


@<TRIPOS>ATOM
      1 N          93.8565   82.3370   58.9945 N.am      2 SEC2        0.0000 
      2 N          94.3980   81.4750   57.8910 N.am      8 SEL2        0.0000 
      3 N          93.3150   83.1990   60.0980 N.am      5 SEP2        0.0000 
      4 CA         88.9920   79.5450   56.8925 C.3       3 GLC5        0.0000 
      5 CA         91.0790   79.4110   56.7560 C.3       9 GLL5        0.0000 
      6 CA         86.9050   79.6790   57.0290 C.3       6 GLP5        0.0000 
      7 CA         90.0510   80.1685   54.9115 C.3       3 GLC5        0.0000 
      8 CA         89.0230   80.9260   53.0670 C.3       6 GLP5        0.0000 
      9 O          89.9935   77.4865   58.7910 O.2       1 ALC1        0.0000 
     10 O          91.2660   77.8360   58.5190 O.2       7 ALL1        0.0000 
     11 O          88.7210   77.1370   59.0630 O.2       4 ALP1        0.0000 
     12 CA         88.5885   78.5955   56.3655 C.3       3 GLC5        0.0000 
     13 CA         90.2720   77.5120   55.7020 C.3       9 GLL5        0.0000 
     14 CA         89.6475   79.2190   54.3845 C.3       3 GLC5        0.0000 
     15 CA         88.3975   77.8600   52.6085 C.3       3 GLC5        0.0000 
     16 CA         88.6670   75.8810   52.8200 C.3       9 GLL5        0.0000 
     17 CA         88.1280   79.8390   52.3970 C.3       6 GLP5        0.0000 
     18 CA         86.1910   73.7075   52.0905 C.3       3 GLC5        0.0000 
     19 CA         87.4880   75.3790   52.2260 C.3       9 GLL5        0.0000 
     20 CA         84.8940   72.0360   51.9550 C.3       6 GLP5        0.0000 
     21 CA         87.1830   77.4725   52.7285 C.3       3 GLC5        0.0000 
     22 CA         86.8780   79.5660   53.2310 C.3       6 GLP5        0.0000 
     23 CA         87.9850   76.7335   50.5125 C.3       3 GLC5        0.0000 
     24 CA         88.4820   78.0880   48.7990 C.3       6 GLP5        0.0000 
     25 O          86.0635   74.1730   50.5205 O.2       1 ALC1        0.0000 
     26 O          87.5140   74.8210   50.9480 O.2       7 ALL1        0.0000 
     27 O          84.6130   73.5250   50.0930 O.2       4 ALP1        0.0000 
     28 CA         87.7870   74.9695   55.2730 C.3       3 GLC5        0.0000 
     29 CA         86.3190   75.9780   54.1450 C.3       9 GLL5        0.0000 
     30 CA         89.2550   73.9610   56.4010 C.3       6 GLP5        0.0000 
     31 CA         86.5985   77.7720   53.6880 C.3       3 GLC5        0.0000 
     32 CA         87.7315   77.9990   53.6750 C.3       3 GLC5        0.0000 
     33 CA         88.5850   76.4320   54.1190 C.3       9 GLL5        0.0000 
     34 N          92.7515   84.8445   58.1420 N.am      2 SEC2        0.0000 
     35 N          93.4390   83.9430   56.9000 N.am      8 SEL2        0.0000 
     36 N          92.0640   85.7460   59.3840 N.am      5 SEP2        0.0000 
     37 CA         92.6035   87.3095   54.8225 C.3       3 GLC5        0.0000 
     38 CA         93.2330   87.5230   52.7460 C.3       9 GLL5        0.0000 
     39 CA         91.9740   87.0960   56.8990 C.3       6 GLP5        0.0000 
     40 N          98.6155   90.2075   57.1710 N.am      2 SEC2        0.0000 
     41 N          97.5700   89.6200   56.2830 N.am      8 SEL2        0.0000 
     42 N          99.6610   90.7950   58.0590 N.am      5 SEP2        0.0000 
     43 CA         91.8034   80.1861   58.4981 C.3       3 GLC5        0.0000 
     44 CA         91.9500   80.6980   56.6850 C.3       9 GLL5        0.0000 
     45 CA         91.9050   81.2350   59.9880 C.3       6 GLP5        0.0000 
     46 CA         90.1167   75.6372   56.1820 C.3       3 GLC5        0.0000 
     47 CA         91.6850   77.1150   56.2240 C.3       9 GLL5        0.0000 
     48 CA         88.9405   75.0588   54.9353 C.3       3 GLC5        0.0000 
     49 CA         92.1468   86.0025   55.3015 C.3       3 GLC5        0.0000 
     50 CA         92.4650   84.3950   54.2580 C.3       9 GLL5        0.0000 
     51 CA         91.9439   83.8225   51.6157 C.3       3 GLC5        0.0000 
     52 CA         93.1460   85.2530   51.9550 C.3       9 GLL5        0.0000 
     53 CA         91.1550   82.5640   50.4020 C.3       6 GLP5        0.0000 
     54 CA         92.1713   87.3451   50.9703 C.3       3 GLC5        0.0000 
     55 CA         90.9080   88.0020   49.5590 C.3       6 GLP5        0.0000 
     56 CA         94.1315   88.3865   56.0737 C.3       3 GLC5        0.0000 
     57 CA         94.9840   88.1530   54.2950 C.3       9 GLL5        0.0000 
     58 CA         92.9250   88.1400   57.4830 C.3       6 GLP5        0.0000 
     59 CA         96.2820   91.2347   54.3870 C.3       3 GLC5        0.0000 
     60 CA         95.6920   89.1130   55.0340 C.3       9 GLL5        0.0000 
     61 CA         97.0530   92.6790   53.7800 C.3       6 GLP5        0.0000 
     62 CA         95.5025   91.4915   53.7767 C.3       3 GLC5        0.0000 
     63 CA         94.2820   90.8040   54.1240 C.3       9 GLL5        0.0000 
     64 CA         93.5695   89.1800   55.7320 C.3       3 GLC5        0.0000 
     65 CA         95.3300   90.4680   54.9540 C.3       9 GLL5        0.0000 
@<TRIPOS>BOND
@<TRIPOS>SUBSTRUCTURE
     1 ALC1        9 GROUP        1 X    ALC  0     ROOT ALC X 1
     2 SEC2        1 GROUP        1 X    SEC  0     **** SEC X 2
     3 GLC5        4 GROUP        1 X    GLC  0     **** GLC X 6
     4 ALP1       11 GROUP        1 Y    ALP  0     ROOT ALP Y 8
     5 SEP2        3 GROUP        1 Y    SEP  0     **** SEP Y 9
     6 GLP5        6 GROUP        1 Y    GLP  0     **** GLP Y 13
     7 ALL1       10 GROUP        1 Z    ALL  0     ROOT ALL Z 15
     8 SEL2        2 GROUP        1 Z    SEL  0     **** SEL Z 16
     9 GLL5        5 GROUP        1 Z    GLL  0     **** GLL Z 20
@<TRIPOS>SET

