#    Name: 3b20_NAD_3_ligand
#    Modification time : Mon Mar 24 18:44:57 2014

@<TRIPOS>MOLECULE
3b20_NAD_3_ligand
   70    74     1     0     0
SMALL
NO_CHARGES


@<TRIPOS>ATOM
      1 PA         94.4510   81.0920   56.4290 P.3       1 NAD340      0.0000 
      2 O1A        94.3980   81.4750   57.8910 O.co2     1 NAD340      0.0000 
      3 O2A        95.3030   79.8560   56.2380 O.co2     1 NAD340      0.0000 
      4 O5B        93.0160   80.6760   55.7320 O.3       1 NAD340      0.0000 
      5 C5B        91.9500   80.6980   56.6850 C.3       1 NAD340      0.0000 
      6 C4B        91.0790   79.4110   56.7560 C.3       1 NAD340      0.0000 
      7 O4B        90.4330   78.9510   55.5360 O.3       1 NAD340      0.0000 
      8 C3B        91.8890   78.2200   57.2960 C.3       1 NAD340      0.0000 
      9 O3B        91.2660   77.8360   58.5190 O.3       1 NAD340      0.0000 
     10 C2B        91.6850   77.1150   56.2240 C.3       1 NAD340      0.0000 
     11 O2B        91.6730   75.8100   56.8070 O.3       1 NAD340      0.0000 
     12 C1B        90.2720   77.5120   55.7020 C.3       1 NAD340      0.0000 
     13 N9A        89.8650   76.8540   54.4460 N.pl3     1 NAD340      0.0000 
     14 C8A        90.6710   76.5510   53.3780 C.2       1 NAD340      0.0000 
     15 N7A        89.9670   75.9810   52.4290 N.2       1 NAD340      0.0000 
     16 C5A        88.6670   75.8810   52.8200 C.ar      1 NAD340      0.0000 
     17 C6A        87.4880   75.3790   52.2260 C.ar      1 NAD340      0.0000 
     18 N6A        87.5140   74.8210   50.9480 N.pl3     1 NAD340      0.0000 
     19 N1A        86.3510   75.4520   52.9250 N.ar      1 NAD340      0.0000 
     20 C2A        86.3190   75.9780   54.1450 C.ar      1 NAD340      0.0000 
     21 N3A        87.3960   76.4590   54.7310 N.ar      1 NAD340      0.0000 
     22 C4A        88.5850   76.4320   54.1190 C.ar      1 NAD340      0.0000 
     23 O3         95.1100   82.2910   55.5520 O.3       1 NAD340      0.0000 
     24 PN         94.4820   83.7840   55.7490 P.3       1 NAD340      0.0000 
     25 O1N        95.6860   84.7240   55.9850 O.co2     1 NAD340      0.0000 
     26 O2N        93.4390   83.9430   56.9000 O.co2     1 NAD340      0.0000 
     27 O5D        93.8850   84.2010   54.2950 O.3       1 NAD340      0.0000 
     28 C5D        92.4650   84.3950   54.2580 C.3       1 NAD340      0.0000 
     29 C4D        92.1740   85.4230   53.1500 C.3       1 NAD340      0.0000 
     30 O4D        92.4160   86.7600   53.6770 O.3       1 NAD340      0.0000 
     31 C3D        93.1460   85.2530   51.9550 C.3       1 NAD340      0.0000 
     32 O3D        92.4130   85.3120   50.7290 O.3       1 NAD340      0.0000 
     33 C2D        94.1260   86.4540   52.0790 C.3       1 NAD340      0.0000 
     34 O2D        94.6160   86.9160   50.8100 O.3       1 NAD340      0.0000 
     35 C1D        93.2330   87.5230   52.7460 C.3       1 NAD340      0.0000 
     36 N1N        93.9870   88.5310   53.5110 N.pl3     1 NAD340      0.0000 
     37 C2N        94.9840   88.1530   54.2950 C.ar      1 NAD340      0.0000 
     38 C3N        95.6920   89.1130   55.0340 C.ar      1 NAD340      0.0000 
     39 C7N        96.8210   88.7350   55.9130 C.2       1 NAD340      0.0000 
     40 O7N        97.5700   89.6200   56.2830 O.2       1 NAD340      0.0000 
     41 N7N        97.0050   87.4460   56.2880 N.am      1 NAD340      0.0000 
     42 C4N        95.3300   90.4680   54.9540 C.ar      1 NAD340      0.0000 
     43 C5N        94.2820   90.8040   54.1240 C.ar      1 NAD340      0.0000 
     44 C6N        93.6220   89.8040   53.4230 C.ar      1 NAD340      0.0000 
     45 H          91.2465   81.5465   56.4904 H         1 NAD340      0.0000 
     46 H          92.3328   80.8791   57.7210 H         1 NAD340      0.0000 
     47 H          90.2933   79.5911   57.5314 H         1 NAD340      0.0000 
     48 H          92.8788   78.4750   57.3601 H         1 NAD340      0.0000 
     49 H          92.3684   77.2729   55.4571 H         1 NAD340      0.0000 
     50 H          89.5842   77.3282   56.5037 H         1 NAD340      0.0000 
     51 H          91.6310   76.7461   53.3595 H         1 NAD340      0.0000 
     52 H          86.6445   74.4649   50.6056 H         1 NAD340      0.0000 
     53 H          88.3999   74.8250   50.4841 H         1 NAD340      0.0000 
     54 H          85.3879   76.0093   54.6625 H         1 NAD340      0.0000 
     55 H          92.0839   84.7959   55.1904 H         1 NAD340      0.0000 
     56 H          91.9351   83.4822   54.0105 H         1 NAD340      0.0000 
     57 H          91.1838   85.3182   52.8068 H         1 NAD340      0.0000 
     58 H          93.6885   84.3637   52.0951 H         1 NAD340      0.0000 
     59 H          94.8780   86.1881   52.7725 H         1 NAD340      0.0000 
     60 H          92.6194   87.9610   52.0017 H         1 NAD340      0.0000 
     61 H          95.2686   87.1607   54.3876 H         1 NAD340      0.0000 
     62 H          97.7570   87.2761   56.9249 H         1 NAD340      0.0000 
     63 H          96.3725   86.7787   55.8946 H         1 NAD340      0.0000 
     64 H          95.8295   91.1645   55.4925 H         1 NAD340      0.0000 
     65 H          93.9893   91.7822   54.0223 H         1 NAD340      0.0000 
     66 H          92.8143   90.0897   52.8128 H         1 NAD340      0.0000 
     67 H          90.3198   77.6262   58.2726 H         1 NAD340      0.0000 
     68 H          91.8521   75.9595   57.7794 H         1 NAD340      0.0000 
     69 H          92.9050   85.9754   50.1651 H         1 NAD340      0.0000 
     70 H          94.3600   87.8819   50.7700 H         1 NAD340      0.0000 
@<TRIPOS>BOND
     1    2    1 ar   
     2    3    1 ar   
     3    4    1 1    
     4   23    1 1    
     5    5    4 1    
     6    6    5 1    
     7   45    5 1    
     8   46    5 1    
     9    7    6 1    
    10    8    6 1    
    11   47    6 1    
    12   12    7 1    
    13    9    8 1    
    14   10    8 1    
    15   48    8 1    
    16   67    9 1    
    17   11   10 1    
    18   12   10 1    
    19   49   10 1    
    20   68   11 1    
    21   13   12 1    
    22   50   12 1    
    23   14   13 1    
    24   22   13 1    
    25   15   14 2    
    26   51   14 1    
    27   16   15 1    
    28   17   16 ar   
    29   22   16 ar   
    30   18   17 1    
    31   19   17 ar   
    32   52   18 1    
    33   53   18 1    
    34   20   19 ar   
    35   21   20 ar   
    36   54   20 1    
    37   22   21 ar   
    38   24   23 1    
    39   25   24 ar   
    40   26   24 ar   
    41   27   24 1    
    42   28   27 1    
    43   29   28 1    
    44   55   28 1    
    45   56   28 1    
    46   30   29 1    
    47   31   29 1    
    48   57   29 1    
    49   35   30 1    
    50   32   31 1    
    51   33   31 1    
    52   58   31 1    
    53   69   32 1    
    54   34   33 1    
    55   35   33 1    
    56   59   33 1    
    57   70   34 1    
    58   36   35 1    
    59   60   35 1    
    60   37   36 ar   
    61   44   36 ar   
    62   38   37 ar   
    63   61   37 1    
    64   39   38 1    
    65   42   38 ar   
    66   40   39 2    
    67   41   39 am   
    68   62   41 1    
    69   63   41 1    
    70   43   42 ar   
    71   64   42 1    
    72   44   43 ar   
    73   65   43 1    
    74   66   44 1    
@<TRIPOS>SUBSTRUCTURE
     1 NAD340      1 GROUP   
@<TRIPOS>SET

