#    Name: 1ny6_ADP_14_INTS_M
#    Modification time : Mon Mar 24 19:11:24 2014

@<TRIPOS>MOLECULE
1ny6_ADP_14_INTS_M
   62     0    12     0     0
SMALL
NO_CHARGES


@<TRIPOS>ATOM
      1 NZ        122.2785  124.5905   67.0680 N.4       3 LYC4        0.0000 
      2 NZ        123.5040  125.1750   67.3750 N.4      11 LYL4        0.0000 
      3 NZ        121.0530  124.0060   66.7610 N.4       7 LYP4        0.0000 
      4 N         123.5230  126.5420   67.6175 N.am      2 SEC2        0.0000 
      5 N         123.5040  125.1750   67.3750 N.am     10 SEL2        0.0000 
      6 N         123.5420  127.9090   67.8600 N.am      6 SEP2        0.0000 
      7 N         124.4010  125.7550   68.1730 N.am      2 SEC2        0.0000 
      8 N         125.2980  126.3350   68.9710 N.am      6 SEP2        0.0000 
      9 N         124.1165  124.4520   68.3330 N.am      2 SEC2        0.0000 
     10 N         124.7290  123.7290   69.2910 N.am      6 SEP2        0.0000 
     11 N         122.2785  124.5905   67.0680 N.am      2 SEC2        0.0000 
     12 N         121.0530  124.0060   66.7610 N.am      6 SEP2        0.0000 
     13 NZ        122.6375  123.5000   66.5325 N.4       3 LYC4        0.0000 
     14 NZ        124.2220  122.9940   66.3040 N.4      11 LYL4        0.0000 
     15 N         125.0645  122.2200   67.2185 N.am      2 SEC2        0.0000 
     16 N         124.2220  122.9940   66.3040 N.am     10 SEL2        0.0000 
     17 N         125.9070  121.4460   68.1330 N.am      6 SEP2        0.0000 
     18 NZ        121.9915  124.3855   65.8965 N.4       3 LYC4        0.0000 
     19 NZ        122.9300  124.7650   65.0320 N.4      11 LYL4        0.0000 
     20 N         122.7060  126.1460   65.1740 N.am      2 SEC2        0.0000 
     21 N         122.9300  124.7650   65.0320 N.am     10 SEL2        0.0000 
     22 N         122.4820  127.5270   65.3160 N.am      6 SEP2        0.0000 
     23 N         121.9915  124.3855   65.8965 N.am      2 SEC2        0.0000 
     24 N         126.5220  122.6055   67.3875 N.am      2 SEC2        0.0000 
     25 N         127.1370  123.7650   66.6420 N.am     10 SEL2        0.0000 
     26 N         127.9155  122.7745   67.7010 N.am      2 SEC2        0.0000 
     27 N         128.6940  121.7840   68.7600 N.am      6 SEP2        0.0000 
     28 CA        125.7045  127.6205   65.1980 C.3       4 GLC5        0.0000 
     29 CA        127.6790  126.9790   64.9150 C.3      12 GLL5        0.0000 
     30 CA        123.7300  128.2620   65.4810 C.3       8 GLP5        0.0000 
     31 CA        126.7430  128.3435   63.8585 C.3       4 GLC5        0.0000 
     32 CA        125.8070  129.7080   62.8020 C.3       8 GLP5        0.0000 
     33 CA        128.0590  129.0230   63.9515 C.3       4 GLC5        0.0000 
     34 CA        129.1150  127.5300   64.5700 C.3      12 GLL5        0.0000 
     35 CA        127.0030  130.5160   63.3330 C.3       8 GLP5        0.0000 
     36 CA        131.5535  129.8100   66.1390 C.3       4 GLC5        0.0000 
     37 CA        130.7300  127.7620   66.3160 C.3      12 GLL5        0.0000 
     38 CA        132.3770  131.8580   65.9620 C.3       8 GLP5        0.0000 
     39 CA        129.9925  129.4875   67.1045 C.3       4 GLC5        0.0000 
     40 CA        129.2550  131.2130   67.8930 C.3       8 GLP5        0.0000 
     41 CA        132.6060  129.0875   72.4480 C.3       4 GLC5        0.0000 
     42 CA        131.5690  127.8010   71.1800 C.3      12 GLL5        0.0000 
     43 CA        133.6430  130.3740   73.7160 C.3       8 GLP5        0.0000 
     44 CA        131.1375  125.7755   71.2345 C.3       4 GLC5        0.0000 
     45 CA        130.7060  123.7500   71.2890 C.3       8 GLP5        0.0000 
     46 O         131.1880  128.3235   73.6180 O.2       1 ALC1        0.0000 
     47 O         131.0020  127.7030   72.3890 O.2       9 ALL1        0.0000 
     48 O         131.3740  128.9440   74.8470 O.2       5 ALP1        0.0000 
     49 N         133.5560  127.9765   72.3995 N.am      2 SEC2        0.0000 
     50 N         132.9440  127.9950   71.0790 N.am     10 SEL2        0.0000 
     51 N         134.1680  127.9580   73.7200 N.am      6 SEP2        0.0000 
     52 CA        134.6360  127.1495   71.4635 C.3       4 GLC5        0.0000 
     53 CA        133.5750  128.1030   69.8720 C.3      12 GLL5        0.0000 
     54 CA        135.6970  126.1960   73.0550 C.3       8 GLP5        0.0000 
     55 CA        134.2350  129.3415   71.3820 C.3       4 GLC5        0.0000 
     56 CA        134.8950  130.5800   72.8920 C.3       8 GLP5        0.0000 
     57 CA        130.7058  125.6762   67.4197 C.3       4 GLC5        0.0000 
     58 CA        130.5430  124.2720   68.8430 C.3       8 GLP5        0.0000 
     59 CA        130.8288  126.0188   69.1158 C.3       4 GLC5        0.0000 
     60 CA        131.4520  127.8230   68.7600 C.3      12 GLL5        0.0000 
     61 CA        130.1848  129.4892   68.6407 C.3       4 GLC5        0.0000 
     62 CA        130.7770  127.7080   70.0170 C.3      12 GLL5        0.0000 
@<TRIPOS>BOND
@<TRIPOS>SUBSTRUCTURE
     1 ALC1       46 GROUP        1 X    ALC  0     ROOT ALC X 1
     2 SEC2        4 GROUP        1 X    SEC  0     **** SEC X 2
     3 LYC4        1 GROUP        1 X    LYC  0     **** LYC X 4
     4 GLC5       28 GROUP        1 X    GLC  0     **** GLC X 6
     5 ALP1       48 GROUP        1 Y    ALP  0     ROOT ALP Y 8
     6 SEP2        6 GROUP        1 Y    SEP  0     **** SEP Y 9
     7 LYP4        3 GROUP        1 Y    LYP  0     **** LYP Y 11
     8 GLP5       30 GROUP        1 Y    GLP  0     **** GLP Y 13
     9 ALL1       47 GROUP        1 Z    ALL  0     ROOT ALL Z 15
    10 SEL2        5 GROUP        1 Z    SEL  0     **** SEL Z 16
    11 LYL4        2 GROUP        1 Z    LYL  0     **** LYL Z 18
    12 GLL5       29 GROUP        1 Z    GLL  0     **** GLL Z 20
@<TRIPOS>SET

