#    Name: 1ny6_ADP_14_ligand
#    Modification time : Mon Mar 24 19:11:24 2014

@<TRIPOS>MOLECULE
1ny6_ADP_14_ligand
   39    41     1     0     0
SMALL
NO_CHARGES


@<TRIPOS>ATOM
      1 PB        123.9440  124.5610   66.1010 P.3       1 ADP13       0.0000 
      2 O1B       123.5040  125.1750   67.3750 O.co2     1 ADP13       0.0000 
      3 O2B       124.2220  122.9940   66.3040 O.co2     1 ADP13       0.0000 
      4 O3B       122.9300  124.7650   65.0320 O.co2     1 ADP13       0.0000 
      5 PA        126.7310  124.4750   65.4310 P.3       1 ADP13       0.0000 
      6 O1A       127.1370  123.7650   66.6420 O.co2     1 ADP13       0.0000 
      7 O2A       126.6570  123.5380   64.3160 O.co2     1 ADP13       0.0000 
      8 O3A       125.3330  125.1560   65.6600 O.3       1 ADP13       0.0000 
      9 O5'       127.8150  125.5660   65.0640 O.3       1 ADP13       0.0000 
     10 C5'       127.6790  126.9790   64.9150 C.3       1 ADP13       0.0000 
     11 C4'       129.1150  127.5300   64.5700 C.3       1 ADP13       0.0000 
     12 O4'       129.4950  128.2560   65.7370 O.3       1 ADP13       0.0000 
     13 C3'       130.2330  126.4680   64.3700 C.3       1 ADP13       0.0000 
     14 O3'       131.1000  126.7830   63.2650 O.3       1 ADP13       0.0000 
     15 C2'       131.0070  126.3990   65.6770 C.3       1 ADP13       0.0000 
     16 O2'       132.3940  126.0680   65.4810 O.3       1 ADP13       0.0000 
     17 C1'       130.7300  127.7620   66.3160 C.3       1 ADP13       0.0000 
     18 N9        130.5290  127.7080   67.8240 N.pl3     1 ADP13       0.0000 
     19 C8        129.3320  127.5310   68.4500 C.2       1 ADP13       0.0000 
     20 N7        129.5040  127.5340   69.7620 N.2       1 ADP13       0.0000 
     21 C5        130.7770  127.7080   70.0170 C.ar      1 ADP13       0.0000 
     22 C6        131.5690  127.8010   71.1800 C.ar      1 ADP13       0.0000 
     23 N6        131.0020  127.7030   72.3890 N.pl3     1 ADP13       0.0000 
     24 N1        132.9440  127.9950   71.0790 N.ar      1 ADP13       0.0000 
     25 C2        133.5750  128.1030   69.8720 C.ar      1 ADP13       0.0000 
     26 N3        132.8200  128.0150   68.7360 N.ar      1 ADP13       0.0000 
     27 C4        131.4520  127.8230   68.7600 C.ar      1 ADP13       0.0000 
     28 H         127.3666  127.4685   65.8235 H         1 ADP13       0.0000 
     29 H         127.0338  127.2543   64.0962 H         1 ADP13       0.0000 
     30 H         129.0548  128.1627   63.7334 H         1 ADP13       0.0000 
     31 H         129.7372  125.5131   64.2334 H         1 ADP13       0.0000 
     32 H         130.4899  125.6561   66.2942 H         1 ADP13       0.0000 
     33 H         131.5329  128.4291   66.0851 H         1 ADP13       0.0000 
     34 H         128.4821  127.4200   67.9787 H         1 ADP13       0.0000 
     35 H         131.0903  128.5029   72.9826 H         1 ADP13       0.0000 
     36 H         130.5410  126.8387   72.5900 H         1 ADP13       0.0000 
     37 H         134.5882  128.2463   69.8194 H         1 ADP13       0.0000 
     38 H         131.0629  125.9801   62.6701 H         1 ADP13       0.0000 
     39 H         132.5154  126.0396   64.4888 H         1 ADP13       0.0000 
@<TRIPOS>BOND
     1    2    1 ar   
     2    3    1 ar   
     3    4    1 ar   
     4    8    1 1    
     5    6    5 ar   
     6    7    5 ar   
     7    8    5 1    
     8    9    5 1    
     9   10    9 1    
    10   11   10 1    
    11   28   10 1    
    12   29   10 1    
    13   12   11 1    
    14   13   11 1    
    15   30   11 1    
    16   17   12 1    
    17   14   13 1    
    18   15   13 1    
    19   31   13 1    
    20   38   14 1    
    21   16   15 1    
    22   17   15 1    
    23   32   15 1    
    24   39   16 1    
    25   18   17 1    
    26   33   17 1    
    27   19   18 1    
    28   27   18 1    
    29   20   19 2    
    30   34   19 1    
    31   21   20 1    
    32   22   21 ar   
    33   27   21 ar   
    34   23   22 1    
    35   24   22 ar   
    36   35   23 1    
    37   36   23 1    
    38   25   24 ar   
    39   26   25 ar   
    40   37   25 1    
    41   27   26 ar   
@<TRIPOS>SUBSTRUCTURE
     1 ADP13       1 GROUP   
@<TRIPOS>SET

