#    Name: 2H4K_1_CAVITY_N1_ALL.mol2
#    Modification time : Mon Mar 10 16:01:09 2014

@<TRIPOS>MOLECULE
2H4K_1_CAVITY_N1_ALL.mol2
   69     0     6     0     0
SMALL
NO_CHARGES


@<TRIPOS>ATOM
      1 CZ         44.7858   16.0615   -1.8692 C.ar      4 PHE5        0.0000 
      2 CA         43.6083   16.9248   -2.2131 C.3       5 GLY6        0.0000 
      3 CZ         45.0518   14.0171   -1.3697 C.ar      4 PHE5        0.0000 
      4 OG         43.8744   14.8804   -1.7136 O.2       1 SER1        0.0000 
      5 DU         46.4953   11.1093   -0.5263 H         6 CUB7        0.0000 
      6 DU         45.3179   11.9726   -0.8702 H         6 CUB7        0.0000 
      7 CZ         42.9629   13.6992   -1.5580 C.ar      4 PHE5        0.0000 
      8 CZ         41.7855   14.5625   -1.9019 C.ar      4 PHE5        0.0000 
      9 DU         46.7614    9.0649   -0.0268 H         6 CUB7        0.0000 
     10 DU         45.5839    9.9282   -0.3707 H         6 CUB7        0.0000 
     11 CZ         44.4064   10.7915   -0.7146 C.ar      4 PHE5        0.0000 
     12 CA         47.0274    7.0204    0.4727 C.3       5 GLY6        0.0000 
     13 CA         45.8500    7.8837    0.1288 C.3       5 GLY6        0.0000 
     14 CA         44.6725    8.7470   -0.2151 C.3       5 GLY6        0.0000 
     15 CZ         43.4950    9.6103   -0.5590 C.ar      4 PHE5        0.0000 
     16 CZ         44.6045   16.3926   -0.4175 C.ar      4 PHE5        0.0000 
     17 CZ         47.2255   12.6216    0.7698 C.ar      4 PHE5        0.0000 
     18 CZ         46.0481   13.4849    0.4259 C.ar      4 PHE5        0.0000 
     19 CZ         44.8706   14.3482    0.0820 C.ar      4 PHE5        0.0000 
     20 OG         43.6931   15.2115   -0.2619 O.2       1 SER1        0.0000 
     21 OG         42.5156   16.0747   -0.6058 O.2       1 SER1        0.0000 
     22 N          48.6690    9.7138    1.6132 N.2       2 ALA2        0.0000 
     23 N          47.4916   10.5771    1.2693 N.2       2 ALA2        0.0000 
     24 DU         46.3141   11.4404    0.9254 H         6 CUB7        0.0000 
     25 DU         45.1366   12.3037    0.5815 H         6 CUB7        0.0000 
     26 CZ         43.9591   13.1670    0.2376 C.ar      4 PHE5        0.0000 
     27 CA         47.7576    8.5327    1.7688 C.3       5 GLY6        0.0000 
     28 CA         46.5801    9.3960    1.4249 C.3       5 GLY6        0.0000 
     29 CA         45.4027   10.2593    1.0810 C.3       5 GLY6        0.0000 
     30 CZ         44.2252   11.1226    0.7371 C.ar      4 PHE5        0.0000 
     31 N          46.8462    7.3515    1.9244 N.2       2 ALA2        0.0000 
     32 CZ         43.3138    9.9414    0.8927 C.ar      4 PHE5        0.0000 
     33 CZ         45.6008   15.8604    1.3782 C.ar      4 PHE5        0.0000 
     34 OD1        44.4233   16.7237    1.0343 O.3       3 ASP3        0.0000 
     35 CZ         47.0443   12.9527    2.2216 C.ar      4 PHE5        0.0000 
     36 CZ         45.8668   13.8160    1.8777 C.ar      4 PHE5        0.0000 
     37 CZ         44.6893   14.6792    1.5337 C.ar      4 PHE5        0.0000 
     38 OG         43.5119   15.5425    1.1898 O.2       1 SER1        0.0000 
     39 CA         47.3103   10.9082    2.7210 C.3       5 GLY6        0.0000 
     40 CA         46.1328   11.7715    2.3771 C.3       5 GLY6        0.0000 
     41 CA         44.9554   12.6348    2.0332 C.3       5 GLY6        0.0000 
     42 CZ         43.7779   13.4981    1.6893 C.ar      4 PHE5        0.0000 
     43 CA         47.5764    8.8638    3.2205 C.3       5 GLY6        0.0000 
     44 CA         46.3989    9.7271    2.8766 C.3       5 GLY6        0.0000 
     45 CA         45.2214   10.5904    2.5327 C.3       5 GLY6        0.0000 
     46 CA         44.0439   11.4537    2.1888 C.3       5 GLY6        0.0000 
     47 CA         46.6649    7.6826    3.3761 C.3       5 GLY6        0.0000 
     48 O          47.5084   16.5093    3.0182 O.2       2 ALA2        0.0000 
     49 CA         46.3309   17.3726    2.6743 C.3       5 GLY6        0.0000 
     50 CA         47.7745   14.4649    3.5177 C.3       5 GLY6        0.0000 
     51 CZ         46.5970   15.3282    3.1738 C.ar      4 PHE5        0.0000 
     52 DU         45.4195   16.1915    2.8299 H         6 CUB7        0.0000 
     53 CA         44.2420   17.0548    2.4860 C.3       5 GLY6        0.0000 
     54 CA         46.8630   13.2837    3.6733 C.3       5 GLY6        0.0000 
     55 CA         45.6855   14.1470    3.3294 C.3       5 GLY6        0.0000 
     56 CA         44.5081   15.0103    2.9855 C.3       5 GLY6        0.0000 
     57 CA         43.3306   15.8736    2.6416 C.3       5 GLY6        0.0000 
     58 CA         45.9516   12.1026    3.8289 C.3       5 GLY6        0.0000 
     59 O          47.3272   16.8404    4.4699 O.2       2 ALA2        0.0000 
     60 O          46.1497   17.7037    4.1260 O.2       2 ALA2        0.0000 
     61 CA         47.5932   14.7960    4.9694 C.3       5 GLY6        0.0000 
     62 O          46.4157   15.6593    4.6255 O.2       2 ALA2        0.0000 
     63 O          45.2383   16.5226    4.2816 O.2       2 ALA2        0.0000 
     64 O          44.0608   17.3859    3.9377 O.2       2 ALA2        0.0000 
     65 O          46.6818   13.6148    5.1250 O.2       2 ALA2        0.0000 
     66 CA         45.5043   14.4781    4.7811 C.3       5 GLY6        0.0000 
     67 O          44.3268   15.3414    4.4372 O.2       2 ALA2        0.0000 
     68 CA         46.2345   15.9904    6.0773 C.3       5 GLY6        0.0000 
     69 CA         45.0570   16.8537    5.7334 C.3       5 GLY6        0.0000 
@<TRIPOS>BOND
@<TRIPOS>SUBSTRUCTURE
     1 SER1        4 GROUP   
     2 ALA2       22 GROUP   
     3 ASP3       34 GROUP   
     4 PHE5        1 GROUP   
     5 GLY6        2 GROUP   
     6 CUB7        5 GROUP   
@<TRIPOS>SET

