#    Name: 2h4k_509_1_INTS_M
#    Modification time : Tue Mar 25 15:31:49 2014

@<TRIPOS>MOLECULE
2h4k_509_1_INTS_M
   44     0     9     0     0
SMALL
NO_CHARGES


@<TRIPOS>ATOM
      1 NZ         43.1590   17.9455    0.0525 N.4       2 LYC4        0.0000 
      2 NZ         43.5570   16.6510   -0.0020 N.4       8 LYL4        0.0000 
      3 NZ         42.7610   19.2400    0.1070 N.4       5 LYP4        0.0000 
      4 N          43.1590   17.9455    0.0525 N.am      1 SEC2        0.0000 
      5 N          43.5570   16.6510   -0.0020 N.am      7 SEL2        0.0000 
      6 N          42.7610   19.2400    0.1070 N.am      4 SEP2        0.0000 
      7 NZ         43.3475   18.2405    1.1325 N.4       2 LYC4        0.0000 
      8 NZ         43.9340   17.2410    2.1580 N.4       8 LYL4        0.0000 
      9 N          43.3475   18.2405    1.1325 N.am      1 SEC2        0.0000 
     10 N          43.9340   17.2410    2.1580 N.am      7 SEL2        0.0000 
     11 CA         47.4255   16.1700    1.3545 C.3       3 GLC5        0.0000 
     12 CA         47.1380   16.2780    3.2020 C.3       9 GLL5        0.0000 
     13 CA         47.7130   16.0620   -0.4930 C.3       6 GLP5        0.0000 
     14 N          48.8320   18.5330    3.3900 N.am      1 SEC2        0.0000 
     15 N          48.5950   17.6430    4.4450 N.am      7 SEL2        0.0000 
     16 N          49.0690   19.4230    2.3350 N.am      4 SEP2        0.0000 
     17 N          49.8865   18.0225    5.1120 N.am      1 SEC2        0.0000 
     18 N          51.1780   18.4020    5.7790 N.am      4 SEP2        0.0000 
     19 N          47.4960   16.9110    6.8230 N.am      1 SEC2        0.0000 
     20 N          46.7690   16.9050    5.4950 N.am      7 SEL2        0.0000 
     21 N          48.2230   16.9170    8.1510 N.am      4 SEP2        0.0000 
     22 N          46.2595   18.4800    5.6775 N.am      1 SEC2        0.0000 
     23 N          45.7500   20.0550    5.8600 N.am      4 SEP2        0.0000 
     24 CA         47.7430   13.7480    1.6710 C.3       3 GLC5        0.0000 
     25 CA         47.1990   12.6480    3.4640 C.3       9 GLL5        0.0000 
     26 CA         48.2870   14.8480   -0.1220 C.3       6 GLP5        0.0000 
     27 CA         45.3015   12.4685    4.0775 C.3       3 GLC5        0.0000 
     28 CA         43.4040   12.2890    4.6910 C.3       6 GLP5        0.0000 
     29 CA         47.0285   11.8370    5.0145 C.3       3 GLC5        0.0000 
     30 CA         46.8580   11.0260    6.5650 C.3       6 GLP5        0.0000 
     31 CA         48.6285   12.7660    3.8960 C.3       3 GLC5        0.0000 
     32 CA         50.0580   12.8840    4.3280 C.3       6 GLP5        0.0000 
     33 CA         45.1827    6.9207   -0.0710 C.3       3 GLC5        0.0000 
     34 CA         46.3160    8.7190    0.0150 C.3       9 GLL5        0.0000 
     35 CA         44.7030    4.8730   -0.1320 C.3       6 GLP5        0.0000 
     36 CA         42.9047    9.4950    0.6482 C.3       3 GLC5        0.0000 
     37 CA         45.0090    9.2180   -0.0350 C.3       9 GLL5        0.0000 
     38 CA         40.9310    9.1110    1.1440 C.3       6 GLP5        0.0000 
     39 CA         44.6868    9.7085    1.9203 C.3       3 GLC5        0.0000 
     40 CA         44.7480   10.5400    0.3400 C.3       9 GLL5        0.0000 
     41 CA         44.0940    8.4620    3.3010 C.3       6 GLP5        0.0000 
     42 CA         45.3064    8.8569    1.7532 C.3       3 GLC5        0.0000 
     43 CA         44.5353   13.0961    3.3683 C.3       3 GLC5        0.0000 
     44 CA         45.5390   12.7420    1.1450 C.3       9 GLL5        0.0000 
@<TRIPOS>BOND
@<TRIPOS>SUBSTRUCTURE
     1 SEC2        4 GROUP        1 X    SEC  0     ROOT SEC X 2
     2 LYC4        1 GROUP        1 X    LYC  0     **** LYC X 4
     3 GLC5       11 GROUP        1 X    GLC  0     **** GLC X 6
     4 SEP2        6 GROUP        1 Y    SEP  0     ROOT SEP Y 9
     5 LYP4        3 GROUP        1 Y    LYP  0     **** LYP Y 11
     6 GLP5       13 GROUP        1 Y    GLP  0     **** GLP Y 13
     7 SEL2        5 GROUP        1 Z    SEL  0     ROOT SEL Z 16
     8 LYL4        2 GROUP        1 Z    LYL  0     **** LYL Z 18
     9 GLL5       12 GROUP        1 Z    GLL  0     **** GLL Z 20
@<TRIPOS>SET

