#    Name: 2h4k_509_1_ligand
#    Modification time : Tue Mar 25 15:31:49 2014

@<TRIPOS>MOLECULE
2h4k_509_1_ligand
   27    28     1     0     0
SMALL
NO_CHARGES


@<TRIPOS>ATOM
      1 C1         46.3160    8.7190    0.0150 C.ar      1 509300      0.0000 
      2 C2         45.0090    9.2180   -0.0350 C.ar      1 509300      0.0000 
      3 C3         44.7480   10.5400    0.3400 C.ar      1 509300      0.0000 
      4 C4         45.8110   11.3700    0.7390 C.ar      1 509300      0.0000 
      5 C5         47.1210   10.8600    0.7890 C.ar      1 509300      0.0000 
      6 C6         47.3750    9.5350    0.4210 C.ar      1 509300      0.0000 
      7 C7         45.5390   12.7420    1.1450 C.2       1 509300      0.0000 
      8 C8         46.0050   13.4030    2.2410 C.2       1 509300      0.0000 
      9 C9         45.5610   14.7340    2.3980 C.2       1 509300      0.0000 
     10 C10        44.7080   15.0700    1.3730 C.2       1 509300      0.0000 
     11 S1         44.4990   13.7740    0.2710 S.3       1 509300      0.0000 
     12 C11        43.9960   16.4520    1.1670 C.2       1 509300      0.0000 
     13 O1         43.5570   16.6510   -0.0020 O.co2     1 509300      0.0000 
     14 O2         43.9340   17.2410    2.1580 O.co2     1 509300      0.0000 
     15 O3         45.9320   15.5320    3.4260 O.3       1 509300      0.0000 
     16 C12        47.1380   16.2780    3.2020 C.3       1 509300      0.0000 
     17 C13        47.5240   17.0040    4.5010 C.2       1 509300      0.0000 
     18 O4         48.5950   17.6430    4.4450 O.co2     1 509300      0.0000 
     19 O5         46.7690   16.9050    5.4950 O.co2     1 509300      0.0000 
     20 BR1        47.1990   12.6480    3.4640 Br        1 509300      0.0000 
     21 H          46.4976    7.7403   -0.2504 H         1 509300      0.0000 
     22 H          44.2417    8.6126   -0.3473 H         1 509300      0.0000 
     23 H          43.7939   10.9031    0.3254 H         1 509300      0.0000 
     24 H          47.8901   11.4650    1.0970 H         1 509300      0.0000 
     25 H          48.3282    9.1669    0.4490 H         1 509300      0.0000 
     26 H          47.0097   17.0330    2.4251 H         1 509300      0.0000 
     27 H          47.9703   15.6299    2.9238 H         1 509300      0.0000 
@<TRIPOS>BOND
     1    2    1 ar   
     2    6    1 ar   
     3   21    1 1    
     4    3    2 ar   
     5   22    2 1    
     6    4    3 ar   
     7   23    3 1    
     8    5    4 ar   
     9    7    4 1    
    10    6    5 ar   
    11   24    5 1    
    12   25    6 1    
    13    8    7 2    
    14   11    7 1    
    15    9    8 1    
    16   20    8 1    
    17   10    9 2    
    18   15    9 1    
    19   11   10 1    
    20   12   10 1    
    21   13   12 ar   
    22   14   12 ar   
    23   16   15 1    
    24   17   16 1    
    25   26   16 1    
    26   27   16 1    
    27   18   17 ar   
    28   19   17 ar   
@<TRIPOS>SUBSTRUCTURE
     1 509300      1 GROUP   
@<TRIPOS>SET

