#    Name: 3h0l_ADP_7_INTS_M
#    Modification time : Tue Mar 25 13:24:33 2014

@<TRIPOS>MOLECULE
3h0l_ADP_7_INTS_M
   50     0    12     0     0
SMALL
NO_CHARGES


@<TRIPOS>ATOM
      1 NZ        -52.4810  102.1000  -26.3585 N.4       3 LYC4        0.0000 
      2 NZ        -51.0680  100.9300  -26.0670 N.4      11 LYL4        0.0000 
      3 NZ        -53.8940  103.2700  -26.6500 N.4       7 LYP4        0.0000 
      4 CA        -55.5980   97.2955  -27.5595 C.3       4 GLC5        0.0000 
      5 CA        -54.2040   98.2670  -28.6380 C.3      12 GLL5        0.0000 
      6 CA        -56.9920   96.3240  -26.4810 C.3       8 GLP5        0.0000 
      7 O         -54.3365   95.9060  -31.1235 O.2       1 ALC1        0.0000 
      8 O         -55.0400   96.6610  -30.2340 O.2       9 ALL1        0.0000 
      9 O         -53.6330   95.1510  -32.0130 O.2       5 ALP1        0.0000 
     10 CA        -52.6200   98.3385  -32.9615 C.3       4 GLC5        0.0000 
     11 CA        -53.4670   98.3810  -30.9180 C.3      12 GLL5        0.0000 
     12 CA        -51.7730   98.2960  -35.0050 C.3       8 GLP5        0.0000 
     13 O         -53.6595   96.5060  -32.1225 O.2       1 ALC1        0.0000 
     14 O         -53.6860   97.8610  -32.2320 O.2       9 ALL1        0.0000 
     15 CA        -55.9540  100.4570  -30.0745 C.3       4 GLC5        0.0000 
     16 CA        -54.3640   99.5590  -30.5920 C.3      12 GLL5        0.0000 
     17 CA        -57.5440  101.3550  -29.5570 C.3       8 GLP5        0.0000 
     18 CA        -54.9465  105.5185  -33.5795 C.3       4 GLC5        0.0000 
     19 CA        -53.9730  103.9370  -32.8950 C.3      12 GLL5        0.0000 
     20 CA        -55.9200  107.1000  -34.2640 C.3       8 GLP5        0.0000 
     21 O         -54.2985  105.5270  -34.0625 O.2       1 ALC1        0.0000 
     22 O         -53.1980  105.0230  -33.0910 O.2       9 ALL1        0.0000 
     23 O         -55.3990  106.0310  -35.0340 O.2       5 ALP1        0.0000 
     24 O         -53.1560  106.7440  -33.2110 O.2       1 ALC1        0.0000 
     25 O         -53.1140  108.4650  -33.3310 O.2       5 ALP1        0.0000 
     26 N         -55.2855  104.9240  -34.2680 N.am      2 SEC2        0.0000 
     27 N         -55.1720  103.8170  -33.5020 N.am     10 SEL2        0.0000 
     28 N         -55.3990  106.0310  -35.0340 N.am      6 SEP2        0.0000 
     29 CA        -55.3005  102.6245  -35.3940 C.3       4 GLC5        0.0000 
     30 CA        -55.9440  102.7310  -33.3120 C.3      12 GLL5        0.0000 
     31 CA        -54.6570  102.5180  -37.4760 C.3       8 GLP5        0.0000 
     32 CA        -57.2965  101.7160  -34.3625 C.3       4 GLC5        0.0000 
     33 CA        -58.6490  100.7010  -35.4130 C.3       8 GLP5        0.0000 
     34 CA        -54.7095  101.3740  -34.3105 C.3       4 GLC5        0.0000 
     35 CA        -53.4750  100.0170  -35.3090 C.3       8 GLP5        0.0000 
     36 CA        -56.7440  102.0430  -31.4345 C.3       4 GLC5        0.0000 
     37 CA        -57.6320  103.5495  -33.0170 C.3       4 GLC5        0.0000 
     38 CA        -59.3200  104.3680  -32.7220 C.3       8 GLP5        0.0000 
     39 CA        -55.9320  104.9155  -33.7880 C.3       4 GLC5        0.0000 
     40 CA        -55.9805  101.5235  -30.7065 C.3       4 GLC5        0.0000 
     41 CA        -54.4170  101.6920  -31.8560 C.3      12 GLL5        0.0000 
     42 CA        -53.4540   96.0696  -28.7464 C.3       4 GLC5        0.0000 
     43 CA        -53.8710   97.3980  -29.8370 C.3      12 GLL5        0.0000 
     44 CA        -53.1670   94.2790  -28.4910 C.3       8 GLP5        0.0000 
     45 CA        -55.5383   98.5790  -31.8640 C.3       4 GLC5        0.0000 
     46 CA        -57.1610   98.1880  -32.9730 C.3       8 GLP5        0.0000 
     47 CA        -53.7205  101.1423  -33.6210 C.3       4 GLC5        0.0000 
     48 CA        -54.3648  103.1900  -30.5466 C.3       4 GLC5        0.0000 
     49 CA        -53.5150  102.8430  -32.0100 C.3      12 GLL5        0.0000 
     50 CA        -54.6490  103.8390  -28.9390 C.3       8 GLP5        0.0000 
@<TRIPOS>BOND
@<TRIPOS>SUBSTRUCTURE
     1 ALC1        7 GROUP        1 X    ALC  0     ROOT ALC X 1
     2 SEC2       26 GROUP        1 X    SEC  0     **** SEC X 2
     3 LYC4        1 GROUP        1 X    LYC  0     **** LYC X 4
     4 GLC5        4 GROUP        1 X    GLC  0     **** GLC X 6
     5 ALP1        9 GROUP        1 Y    ALP  0     ROOT ALP Y 8
     6 SEP2       28 GROUP        1 Y    SEP  0     **** SEP Y 9
     7 LYP4        3 GROUP        1 Y    LYP  0     **** LYP Y 11
     8 GLP5        6 GROUP        1 Y    GLP  0     **** GLP Y 13
     9 ALL1        8 GROUP        1 Z    ALL  0     ROOT ALL Z 15
    10 SEL2       27 GROUP        1 Z    SEL  0     **** SEL Z 16
    11 LYL4        2 GROUP        1 Z    LYL  0     **** LYL Z 18
    12 GLL5        5 GROUP        1 Z    GLL  0     **** GLL Z 20
@<TRIPOS>SET

