#    Name: 3h0l_ADP_7_ligand
#    Modification time : Tue Mar 25 13:24:33 2014

@<TRIPOS>MOLECULE
3h0l_ADP_7_ligand
   39    41     1     0     0
SMALL
NO_CHARGES


@<TRIPOS>ATOM
      1 PB        -50.6560   97.9120  -25.3760 P.3       1 ADP707      0.0000 
      2 O1B       -51.9170   98.5300  -24.8080 O.co2     1 ADP707      0.0000 
      3 O2B       -49.4110   98.2830  -24.5980 O.co2     1 ADP707      0.0000 
      4 O3B       -50.8190   96.4490  -25.7560 O.co2     1 ADP707      0.0000 
      5 PA        -50.9410  100.0280  -27.2750 P.3       1 ADP707      0.0000 
      6 O1A       -51.0680  100.9300  -26.0670 O.co2     1 ADP707      0.0000 
      7 O2A       -50.0910  100.4850  -28.4460 O.co2     1 ADP707      0.0000 
      8 O3A       -50.3770   98.5870  -26.8180 O.3       1 ADP707      0.0000 
      9 O5'       -52.4280   99.6770  -27.8140 O.3       1 ADP707      0.0000 
     10 C5'       -53.0180   98.3780  -27.6950 C.3       1 ADP707      0.0000 
     11 C4'       -54.2040   98.2670  -28.6380 C.3       1 ADP707      0.0000 
     12 O4'       -54.4810   99.5590  -29.1680 O.3       1 ADP707      0.0000 
     13 C3'       -53.8710   97.3980  -29.8370 C.3       1 ADP707      0.0000 
     14 O3'       -55.0400   96.6610  -30.2340 O.3       1 ADP707      0.0000 
     15 C2'       -53.4670   98.3810  -30.9180 C.3       1 ADP707      0.0000 
     16 O2'       -53.6860   97.8610  -32.2320 O.3       1 ADP707      0.0000 
     17 C1'       -54.3640   99.5590  -30.5920 C.3       1 ADP707      0.0000 
     18 N9        -53.8030  100.8520  -31.0320 N.pl3     1 ADP707      0.0000 
     19 C8        -52.6200  101.3820  -30.6710 C.2       1 ADP707      0.0000 
     20 N7        -52.4290  102.5890  -31.2550 N.2       1 ADP707      0.0000 
     21 C5        -53.5150  102.8430  -32.0100 C.ar      1 ADP707      0.0000 
     22 C6        -53.9730  103.9370  -32.8950 C.ar      1 ADP707      0.0000 
     23 N6        -53.1980  105.0230  -33.0910 N.pl3     1 ADP707      0.0000 
     24 N1        -55.1720  103.8170  -33.5020 N.ar      1 ADP707      0.0000 
     25 C2        -55.9440  102.7310  -33.3120 C.ar      1 ADP707      0.0000 
     26 N3        -55.6010  101.6910  -32.5230 N.ar      1 ADP707      0.0000 
     27 C4        -54.4170  101.6920  -31.8560 C.ar      1 ADP707      0.0000 
     28 H         -53.3759   98.1898  -26.6762 H         1 ADP707      0.0000 
     29 H         -52.3047   97.5864  -27.9523 H         1 ADP707      0.0000 
     30 H         -55.0371   97.8630  -28.1308 H         1 ADP707      0.0000 
     31 H         -53.0490   96.7854  -29.5980 H         1 ADP707      0.0000 
     32 H         -52.4599   98.6747  -30.7289 H         1 ADP707      0.0000 
     33 H         -55.3232   99.3883  -31.0413 H         1 ADP707      0.0000 
     34 H         -51.9766  100.9540  -30.0644 H         1 ADP707      0.0000 
     35 H         -52.3267  105.0362  -32.6004 H         1 ADP707      0.0000 
     36 H         -53.5635  105.7186  -33.7096 H         1 ADP707      0.0000 
     37 H         -56.8865  102.6880  -33.8160 H         1 ADP707      0.0000 
     38 H         -54.7084   95.9847  -30.8918 H         1 ADP707      0.0000 
     39 H         -53.2144   96.9793  -32.2432 H         1 ADP707      0.0000 
@<TRIPOS>BOND
     1    2    1 ar   
     2    3    1 ar   
     3    4    1 ar   
     4    8    1 1    
     5    6    5 ar   
     6    7    5 ar   
     7    8    5 1    
     8    9    5 1    
     9   10    9 1    
    10   11   10 1    
    11   28   10 1    
    12   29   10 1    
    13   12   11 1    
    14   13   11 1    
    15   30   11 1    
    16   17   12 1    
    17   14   13 1    
    18   15   13 1    
    19   31   13 1    
    20   38   14 1    
    21   16   15 1    
    22   17   15 1    
    23   32   15 1    
    24   39   16 1    
    25   18   17 1    
    26   33   17 1    
    27   19   18 1    
    28   27   18 1    
    29   20   19 2    
    30   34   19 1    
    31   21   20 1    
    32   22   21 ar   
    33   27   21 ar   
    34   23   22 1    
    35   24   22 ar   
    36   35   23 1    
    37   36   23 1    
    38   25   24 ar   
    39   26   25 ar   
    40   37   25 1    
    41   27   26 ar   
@<TRIPOS>SUBSTRUCTURE
     1 ADP707      1 GROUP   
@<TRIPOS>SET

