#    Name: 1s4d_SAH_4_INTS_M
#    Modification time : Tue Mar 25 01:58:21 2014

@<TRIPOS>MOLECULE
1s4d_SAH_4_INTS_M
   69     0     9     0     0
SMALL
NO_CHARGES


@<TRIPOS>ATOM
      1 O         110.6970   30.1000  -40.8540 O.2       1 ALC1        0.0000 
      2 O         109.4760   29.5410  -41.4140 O.2       7 ALL1        0.0000 
      3 O         111.9180   30.6590  -40.2940 O.2       4 ALP1        0.0000 
      4 O         108.7215   30.1940  -40.4250 O.2       1 ALC1        0.0000 
      5 O         107.9670   30.8470  -39.4360 O.2       4 ALP1        0.0000 
      6 CA        110.3355   30.0515  -43.7725 C.3       3 GLC5        0.0000 
      7 CA        108.7260   29.6030  -42.6560 C.3       9 GLL5        0.0000 
      8 CA        111.9450   30.5000  -44.8890 C.3       6 GLP5        0.0000 
      9 CA        105.7150   30.3380  -42.6500 C.3       3 GLC5        0.0000 
     10 CA        107.2880   29.1450  -42.4000 C.3       9 GLL5        0.0000 
     11 CA        104.1420   31.5310  -42.9000 C.3       6 GLP5        0.0000 
     12 CA        104.1945   27.1765  -40.6635 C.3       3 GLC5        0.0000 
     13 CA        105.5370   26.9600  -41.7140 C.3       9 GLL5        0.0000 
     14 CA        102.8520   27.3930  -39.6130 C.3       6 GLP5        0.0000 
     15 N         110.9560   31.7540  -42.7935 N.am      2 SEC2        0.0000 
     16 N         109.5500   31.8910  -42.8030 N.am      8 SEL2        0.0000 
     17 N         112.3620   31.6170  -42.7840 N.am      5 SEP2        0.0000 
     18 N         108.9585   33.0505  -43.1010 N.am      2 SEC2        0.0000 
     19 N         108.3670   34.2100  -43.3990 N.am      5 SEP2        0.0000 
     20 N         108.3205   32.7835  -43.8525 N.am      2 SEC2        0.0000 
     21 N         108.2740   31.3570  -44.3060 N.am      8 SEL2        0.0000 
     22 N         108.2285   32.4685  -45.3515 N.am      2 SEC2        0.0000 
     23 N         108.1830   33.5800  -46.3970 N.am      5 SEP2        0.0000 
     24 CA        104.1635   29.5400  -43.4910 C.3       3 GLC5        0.0000 
     25 CA        104.1850   27.5490  -44.0820 C.3       9 GLL5        0.0000 
     26 N         100.9730   28.7105  -44.1830 N.am      2 SEC2        0.0000 
     27 N         101.9140   28.8000  -45.3420 N.am      8 SEL2        0.0000 
     28 N         100.0320   28.6210  -43.0240 N.am      5 SEP2        0.0000 
     29 O         101.2085   29.2400  -46.3765 O.2       1 ALC1        0.0000 
     30 O         101.9140   28.8000  -45.3420 O.2       7 ALL1        0.0000 
     31 O         100.5030   29.6800  -47.4110 O.2       4 ALP1        0.0000 
     32 CA        105.3185   30.6195  -46.6785 C.3       3 GLC5        0.0000 
     33 CA        104.1620   29.0330  -45.8800 C.3       9 GLL5        0.0000 
     34 CA        106.4750   32.2060  -47.4770 C.3       6 GLP5        0.0000 
     35 CA        104.1520   30.2820  -44.3900 C.3       3 GLC5        0.0000 
     36 CA        103.5870   30.8545  -46.0395 C.3       3 GLC5        0.0000 
     37 CA        103.0120   32.6760  -46.1990 C.3       6 GLP5        0.0000 
     38 CA        105.5110   28.5890  -52.1565 C.3       3 GLC5        0.0000 
     39 CA        106.2230   29.1060  -50.3470 C.3       9 GLL5        0.0000 
     40 CA        104.7990   28.0720  -53.9660 C.3       6 GLP5        0.0000 
     41 CA        105.9515   30.8280  -51.4735 C.3       3 GLC5        0.0000 
     42 CA        105.6800   32.5500  -52.6000 C.3       6 GLP5        0.0000 
     43 CA        105.2965   27.1405  -50.2440 C.3       3 GLC5        0.0000 
     44 CA        104.3700   25.1750  -50.1410 C.3       6 GLP5        0.0000 
     45 O         107.6905   29.7540  -52.2390 O.2       1 ALC1        0.0000 
     46 O         107.3630   28.8500  -50.9940 O.2       7 ALL1        0.0000 
     47 O         108.0180   30.6580  -53.4840 O.2       4 ALP1        0.0000 
     48 N         105.1645   29.9985  -52.3195 N.am      2 SEC2        0.0000 
     49 N         105.1180   29.5820  -51.0290 N.am      8 SEL2        0.0000 
     50 N         105.2110   30.4150  -53.6100 N.am      5 SEP2        0.0000 
     51 CA        105.2115   31.0275  -48.9150 C.3       3 GLC5        0.0000 
     52 CA        103.9480   29.8490  -50.3530 C.3       9 GLL5        0.0000 
     53 CA        104.3735   28.9605  -52.1595 C.3       3 GLC5        0.0000 
     54 CA        104.8140   31.1995  -51.4765 C.3       3 GLC5        0.0000 
     55 CA        103.8090   27.7960  -49.6300 C.3       3 GLC5        0.0000 
     56 CA        103.6700   25.7430  -48.9070 C.3       6 GLP5        0.0000 
     57 CA        102.2055   29.4135  -50.0155 C.3       3 GLC5        0.0000 
     58 CA        100.4630   28.9780  -49.6780 C.3       6 GLP5        0.0000 
     59 CA        103.4390   31.3740  -49.0320 C.3       3 GLC5        0.0000 
     60 CA        102.9300   32.8990  -47.7110 C.3       6 GLP5        0.0000 
     61 CA        103.9315   31.0360  -48.0130 C.3       3 GLC5        0.0000 
     62 CA        104.9330   29.1730  -48.3150 C.3       9 GLL5        0.0000 
     63 CA        102.7315   26.6905  -43.0909 C.3       3 GLC5        0.0000 
     64 CA        101.4230   26.3680  -41.6980 C.3       6 GLP5        0.0000 
     65 CA        103.6654   27.0122  -47.3206 C.3       3 GLC5        0.0000 
     66 CA        103.3580   26.9280  -45.1870 C.3       9 GLL5        0.0000 
     67 CA        104.5987   27.3890  -48.7750 C.3       3 GLC5        0.0000 
     68 CA        106.1220   28.8970  -48.9710 C.3       9 GLL5        0.0000 
     69 CA        106.0139   30.6466  -48.2320 C.3       3 GLC5        0.0000 
@<TRIPOS>BOND
@<TRIPOS>SUBSTRUCTURE
     1 ALC1        1 GROUP        1 X    ALC  0     ROOT ALC X 1
     2 SEC2       15 GROUP        1 X    SEC  0     **** SEC X 2
     3 GLC5        6 GROUP        1 X    GLC  0     **** GLC X 6
     4 ALP1        3 GROUP        1 Y    ALP  0     ROOT ALP Y 8
     5 SEP2       17 GROUP        1 Y    SEP  0     **** SEP Y 9
     6 GLP5        8 GROUP        1 Y    GLP  0     **** GLP Y 13
     7 ALL1        2 GROUP        1 Z    ALL  0     ROOT ALL Z 15
     8 SEL2       16 GROUP        1 Z    SEL  0     **** SEL Z 16
     9 GLL5        7 GROUP        1 Z    GLL  0     **** GLL Z 20
@<TRIPOS>SET

