#    Name: 1s4d_SAH_4_ligand
#    Modification time : Tue Mar 25 01:58:21 2014

@<TRIPOS>MOLECULE
1s4d_SAH_4_ligand
   46    48     1     0     0
SMALL
NO_CHARGES


@<TRIPOS>ATOM
      1 N         109.4760   29.5410  -41.4140 N.4       1 SAH2511     0.0000 
      2 CA        108.7260   29.6030  -42.6560 C.3       1 SAH2511     0.0000 
      3 CB        107.2880   29.1450  -42.4000 C.3       1 SAH2511     0.0000 
      4 CG        107.1870   27.6990  -41.8990 C.3       1 SAH2511     0.0000 
      5 SD        105.5370   26.9600  -41.7140 S.3       1 SAH2511     0.0000 
      6 C         108.8450   31.0010  -43.2750 C.2       1 SAH2511     0.0000 
      7 O         109.5500   31.8910  -42.8030 O.co2     1 SAH2511     0.0000 
      8 OXT       108.2740   31.3570  -44.3060 O.co2     1 SAH2511     0.0000 
      9 C5'       105.2590   26.6470  -43.4790 C.3       1 SAH2511     0.0000 
     10 C4'       104.1850   27.5490  -44.0820 C.3       1 SAH2511     0.0000 
     11 O4'       104.7990   28.6770  -44.6760 O.3       1 SAH2511     0.0000 
     12 C3'       103.3580   26.9280  -45.1870 C.3       1 SAH2511     0.0000 
     13 O3'       102.1980   26.2960  -44.7370 O.3       1 SAH2511     0.0000 
     14 C2'       102.9610   28.1320  -45.9900 C.3       1 SAH2511     0.0000 
     15 O2'       101.9140   28.8000  -45.3420 O.3       1 SAH2511     0.0000 
     16 C1'       104.1620   29.0330  -45.8800 C.3       1 SAH2511     0.0000 
     17 N9        105.1280   28.8780  -46.9980 N.pl3     1 SAH2511     0.0000 
     18 C8        106.4160   28.4360  -46.8700 C.2       1 SAH2511     0.0000 
     19 N7        107.0080   28.4490  -48.0680 N.2       1 SAH2511     0.0000 
     20 C5        106.1220   28.8970  -48.9710 C.ar      1 SAH2511     0.0000 
     21 C6        106.2230   29.1060  -50.3470 C.ar      1 SAH2511     0.0000 
     22 N6        107.3630   28.8500  -50.9940 N.pl3     1 SAH2511     0.0000 
     23 N1        105.1180   29.5820  -51.0290 N.ar      1 SAH2511     0.0000 
     24 C2        103.9480   29.8490  -50.3530 C.ar      1 SAH2511     0.0000 
     25 N3        103.8640   29.6430  -48.9910 N.ar      1 SAH2511     0.0000 
     26 C4        104.9330   29.1730  -48.3150 C.ar      1 SAH2511     0.0000 
     27 H         109.1741   28.8881  -43.3693 H         1 SAH2511     0.0000 
     28 H         106.7110   29.2402  -43.3309 H         1 SAH2511     0.0000 
     29 H         106.8268   29.8118  -41.6576 H         1 SAH2511     0.0000 
     30 H         107.6103   27.5659  -40.8942 H         1 SAH2511     0.0000 
     31 H         107.6846   26.9816  -42.5655 H         1 SAH2511     0.0000 
     32 H         104.9985   25.6049  -43.4883 H         1 SAH2511     0.0000 
     33 H         106.2360   26.8058  -43.8962 H         1 SAH2511     0.0000 
     34 H         103.5124   27.8719  -43.2949 H         1 SAH2511     0.0000 
     35 H         103.9884   26.3288  -45.7900 H         1 SAH2511     0.0000 
     36 H         102.7939   27.8844  -46.9724 H         1 SAH2511     0.0000 
     37 H         103.8178   30.0553  -45.8320 H         1 SAH2511     0.0000 
     38 H         106.8201   28.1601  -46.0321 H         1 SAH2511     0.0000 
     39 H         107.9069   28.0881  -50.6425 H         1 SAH2511     0.0000 
     40 H         107.5703   29.4434  -51.7718 H         1 SAH2511     0.0000 
     41 H         103.1248   30.2069  -50.8694 H         1 SAH2511     0.0000 
     42 H         108.8909   29.6991  -40.6185 H         1 SAH2511     0.0000 
     43 H         109.9097   28.6490  -41.2862 H         1 SAH2511     0.0000 
     44 H         110.2027   30.2273  -41.3843 H         1 SAH2511     0.0000 
     45 H         101.5017   27.0136  -44.7219 H         1 SAH2511     0.0000 
     46 H         101.3280   29.1383  -46.0783 H         1 SAH2511     0.0000 
@<TRIPOS>BOND
     1    2    1 1    
     2   42    1 1    
     3   43    1 1    
     4   44    1 1    
     5    3    2 1    
     6    6    2 1    
     7   27    2 1    
     8    4    3 1    
     9   28    3 1    
    10   29    3 1    
    11    5    4 1    
    12   30    4 1    
    13   31    4 1    
    14    9    5 1    
    15    7    6 ar   
    16    8    6 ar   
    17   10    9 1    
    18   32    9 1    
    19   33    9 1    
    20   11   10 1    
    21   12   10 1    
    22   34   10 1    
    23   16   11 1    
    24   13   12 1    
    25   14   12 1    
    26   35   12 1    
    27   45   13 1    
    28   15   14 1    
    29   16   14 1    
    30   36   14 1    
    31   46   15 1    
    32   17   16 1    
    33   37   16 1    
    34   18   17 1    
    35   26   17 1    
    36   19   18 2    
    37   38   18 1    
    38   20   19 1    
    39   21   20 ar   
    40   26   20 ar   
    41   22   21 1    
    42   23   21 ar   
    43   39   22 1    
    44   40   22 1    
    45   24   23 ar   
    46   25   24 ar   
    47   41   24 1    
    48   26   25 ar   
@<TRIPOS>SUBSTRUCTURE
     1 SAH2511     1 GROUP   
@<TRIPOS>SET

