#    Name: 2q61_SF1_1_INTS_M
#    Modification time : Mon Mar 24 20:49:15 2014

@<TRIPOS>MOLECULE
2q61_SF1_1_INTS_M
   80     0     6     0     0
SMALL
NO_CHARGES


@<TRIPOS>ATOM
      1 CA         15.1225   15.8780   15.2415 C.3       2 GLC5        0.0000 
      2 CA         14.5430   17.1180   13.6090 C.3       6 GLL5        0.0000 
      3 CA         15.7020   14.6380   16.8740 C.3       4 GLP5        0.0000 
      4 CA         14.4355   19.1665   10.7985 C.3       2 GLC5        0.0000 
      5 CA         15.2640   17.8900    9.3450 C.3       6 GLL5        0.0000 
      6 CA         13.6070   20.4430   12.2520 C.3       4 GLP5        0.0000 
      7 CA         16.0250   18.1665    7.5745 C.3       2 GLC5        0.0000 
      8 CA         16.7860   18.4430    5.8040 C.3       4 GLP5        0.0000 
      9 CA         14.9225   20.3055   10.6990 C.3       2 GLC5        0.0000 
     10 CA         16.2380   20.1680    9.1460 C.3       6 GLL5        0.0000 
     11 N          13.3885   20.3640    7.4095 N.am      1 SEC2        0.0000 
     12 N          13.9130   20.2270    8.8180 N.am      5 SEL2        0.0000 
     13 N          12.8640   20.5010    6.0010 N.am      3 SEP2        0.0000 
     14 CA         20.3400   15.5200    9.9580 C.3       2 GLC5        0.0000 
     15 CA         19.7090   17.2610    9.4200 C.3       6 GLL5        0.0000 
     16 CA         20.9710   13.7790   10.4960 C.3       4 GLP5        0.0000 
     17 CA         21.2760   19.3300   11.0560 C.3       2 GLC5        0.0000 
     18 CA         22.1470   18.2930    9.3710 C.3       6 GLL5        0.0000 
     19 CA         20.4050   20.3670   12.7410 C.3       4 GLP5        0.0000 
     20 CA         21.6590   18.5805    7.6230 C.3       2 GLC5        0.0000 
     21 CA         21.1710   18.8680    5.8750 C.3       4 GLP5        0.0000 
     22 CA         23.2995   17.9810    8.0145 C.3       2 GLC5        0.0000 
     23 CA         24.4520   17.6690    6.6580 C.3       4 GLP5        0.0000 
     24 CA         23.4785   18.3765   10.3275 C.3       2 GLC5        0.0000 
     25 CA         24.8100   18.4600   11.2840 C.3       4 GLP5        0.0000 
     26 CA         22.7935   16.6295    9.9255 C.3       2 GLC5        0.0000 
     27 CA         23.4400   14.9660   10.4800 C.3       4 GLP5        0.0000 
     28 CA         20.1130   20.0290   10.9850 C.3       2 GLC5        0.0000 
     29 CA         19.8210   19.6910    9.2290 C.3       6 GLL5        0.0000 
     30 CA         18.5695   23.7010   10.2390 C.3       2 GLC5        0.0000 
     31 CA         17.7470   22.4790    8.9900 C.3       6 GLL5        0.0000 
     32 CA         19.3920   24.9230   11.4880 C.3       4 GLP5        0.0000 
     33 CA         18.4955   21.9190   10.9110 C.3       2 GLC5        0.0000 
     34 CA         19.2440   21.3590   12.8320 C.3       4 GLP5        0.0000 
     35 CA         21.0165   21.4165    4.7485 C.3       2 GLC5        0.0000 
     36 CA         20.1540   23.3830    5.1800 C.3       6 GLL5        0.0000 
     37 CA         21.8790   19.4500    4.3170 C.3       4 GLP5        0.0000 
     38 CA         21.3525   23.9405    8.1020 C.3       2 GLC5        0.0000 
     39 CA         19.2620   24.0510    7.3290 C.3       6 GLL5        0.0000 
     40 CA         23.4430   23.8300    8.8750 C.3       4 GLP5        0.0000 
     41 CA         19.3270   24.4870    9.4085 C.3       2 GLC5        0.0000 
     42 CA         17.8633   18.3160   12.8670 C.3       2 GLC5        0.0000 
     43 CA         15.8820   18.0960   11.8630 C.3       6 GLL5        0.0000 
     44 CA         19.9530   18.6580   13.1930 C.3       4 GLP5        0.0000 
     45 CA         14.6902   19.2085   12.3965 C.3       2 GLC5        0.0000 
     46 CA         15.8953   15.9240   11.9120 C.3       2 GLC5        0.0000 
     47 CA         16.0170   13.8740   11.2830 C.3       4 GLP5        0.0000 
     48 CA         13.8525   18.6617   12.6887 C.3       2 GLC5        0.0000 
     49 CA         13.6530   16.6430   12.6420 C.3       6 GLL5        0.0000 
     50 CA         15.0575   15.3773   12.2042 C.3       2 GLC5        0.0000 
     51 CA         14.0272   18.8478   11.6623 C.3       2 GLC5        0.0000 
     52 CA         13.8840   16.8880   11.2810 C.3       6 GLL5        0.0000 
     53 CA         15.2323   15.5633   11.1777 C.3       2 GLC5        0.0000 
     54 CA         15.0110   17.6170   10.8640 C.3       6 GLL5        0.0000 
     55 CA         13.3584   15.8021   10.3059 C.3       2 GLC5        0.0000 
     56 CA         12.3270   14.4130    9.1990 C.3       4 GLP5        0.0000 
     57 CA         17.3942   18.1880    7.5740 C.3       2 GLC5        0.0000 
     58 CA         17.6830   18.5470    9.2900 C.3       6 GLL5        0.0000 
     59 CA         18.9423   16.0430    7.7405 C.3       2 GLC5        0.0000 
     60 CA         18.8690   14.7960    6.0720 C.3       4 GLP5        0.0000 
     61 CA         20.6220   18.3592    7.6260 C.3       2 GLC5        0.0000 
     62 CA         19.8396   18.2615   11.2823 C.3       2 GLC5        0.0000 
     63 CA         20.4370   18.4400    9.3340 C.3       6 GLL5        0.0000 
     64 CA         22.0423   20.2124    8.6979 C.3       2 GLC5        0.0000 
     65 CA         23.5280   21.3960    8.1050 C.3       4 GLP5        0.0000 
     66 CA         20.1478   19.2888    7.5460 C.3       2 GLC5        0.0000 
     67 CA         18.6010   20.7978   10.9928 C.3       2 GLC5        0.0000 
     68 CA         18.4280   19.7280    9.2050 C.3       6 GLL5        0.0000 
     69 CA         17.2157   19.2676    7.4843 C.3       2 GLC5        0.0000 
     70 CA         17.9123   21.4370    4.7468 C.3       2 GLC5        0.0000 
     71 CA         18.8240   21.8270    6.4960 C.3       6 GLL5        0.0000 
     72 CA         16.6310   20.8970    3.5750 C.3       4 GLP5        0.0000 
     73 CA         20.1822   20.4225    5.8968 C.3       2 GLC5        0.0000 
     74 CA         19.5630   22.1270    5.3410 C.3       6 GLL5        0.0000 
     75 CA         19.4547   22.4665    3.1242 C.3       2 GLC5        0.0000 
     76 CA         19.0510   22.1780    0.9880 C.3       4 GLP5        0.0000 
     77 CA         21.3225   24.0630    4.1988 C.3       2 GLC5        0.0000 
     78 CA         22.5670   24.2610    2.7170 C.3       4 GLP5        0.0000 
     79 CA         22.0180   23.5410    6.0702 C.3       2 GLC5        0.0000 
     80 CA         23.9580   23.2170    6.4600 C.3       4 GLP5        0.0000 
@<TRIPOS>BOND
@<TRIPOS>SUBSTRUCTURE
     1 SEC2       11 GROUP        1 X    SEC  0     ROOT SEC X 2
     2 GLC5        1 GROUP        1 X    GLC  0     **** GLC X 6
     3 SEP2       13 GROUP        1 Y    SEP  0     ROOT SEP Y 9
     4 GLP5        3 GROUP        1 Y    GLP  0     **** GLP Y 13
     5 SEL2       12 GROUP        1 Z    SEL  0     ROOT SEL Z 16
     6 GLL5        2 GROUP        1 Z    GLL  0     **** GLL Z 20
@<TRIPOS>SET

