#    Name: 2q61_SF1_1_ligand
#    Modification time : Mon Mar 24 20:49:15 2014

@<TRIPOS>MOLECULE
2q61_SF1_1_ligand
   42    45     1     0     0
SMALL
NO_CHARGES


@<TRIPOS>ATOM
      1 CAJ        15.8820   18.0960   11.8630 C.ar      1 SF17001     0.0000 
      2 CAF        15.6650   17.8520   13.2190 C.ar      1 SF17001     0.0000 
      3 CAD        14.5430   17.1180   13.6090 C.ar      1 SF17001     0.0000 
      4 CAG        13.6530   16.6430   12.6420 C.ar      1 SF17001     0.0000 
      5 CAK        13.8840   16.8880   11.2810 C.ar      1 SF17001     0.0000 
      6 CAU        15.0110   17.6170   10.8640 C.ar      1 SF17001     0.0000 
      7 CAQ        15.2640   17.8900    9.3450 C.3       1 SF17001     0.0000 
      8 NBA        16.3780   18.8610    9.2470 N.pl3     1 SF17001     0.0000 
      9 CAX        16.2380   20.1680    9.1460 C.2       1 SF17001     0.0000 
     10 CAS        14.9220   20.9040    9.0510 C.2       1 SF17001     0.0000 
     11 OAB        14.9060   22.1370    9.1720 O.co2     1 SF17001     0.0000 
     12 OAA        13.9130   20.2270    8.8180 O.co2     1 SF17001     0.0000 
     13 CAZ        17.6830   18.5470    9.2900 C.ar      1 SF17001     0.0000 
     14 CAO        18.3220   17.3190    9.3980 C.ar      1 SF17001     0.0000 
     15 CAN        19.7090   17.2610    9.4200 C.ar      1 SF17001     0.0000 
     16 CAT        20.4370   18.4400    9.3340 C.ar      1 SF17001     0.0000 
     17 CLAC       22.1470   18.2930    9.3710 Cl        1 SF17001     0.0000 
     18 CAP        19.8210   19.6910    9.2290 C.ar      1 SF17001     0.0000 
     19 CAY        18.4280   19.7280    9.2050 C.ar      1 SF17001     0.0000 
     20 CAW        17.4880   20.7450    9.1020 C.2       1 SF17001     0.0000 
     21 SAR        17.7470   22.4790    8.9900 S.3       1 SF17001     0.0000 
     22 CAV        18.6720   22.7880    7.4970 C.ar      1 SF17001     0.0000 
     23 CAL        18.8240   21.8270    6.4960 C.ar      1 SF17001     0.0000 
     24 CAH        19.5630   22.1270    5.3410 C.ar      1 SF17001     0.0000 
     25 CAE        20.1540   23.3830    5.1800 C.ar      1 SF17001     0.0000 
     26 CAI        20.0020   24.3470    6.1810 C.ar      1 SF17001     0.0000 
     27 CAM        19.2620   24.0510    7.3290 C.ar      1 SF17001     0.0000 
     28 H          16.7135   18.6499   11.5728 H         1 SF17001     0.0000 
     29 H          16.3189   18.2058   13.9192 H         1 SF17001     0.0000 
     30 H          14.3722   16.9279   14.6015 H         1 SF17001     0.0000 
     31 H          12.8216   16.1094   12.9288 H         1 SF17001     0.0000 
     32 H          13.2222   16.5309   10.5787 H         1 SF17001     0.0000 
     33 H          14.3576   18.2914    8.9250 H         1 SF17001     0.0000 
     34 H          15.5192   16.9541    8.8781 H         1 SF17001     0.0000 
     35 H          17.7692   16.4546    9.4615 H         1 SF17001     0.0000 
     36 H          20.1886   16.3606    9.4986 H         1 SF17001     0.0000 
     37 H          20.3692   20.5381    9.1726 H         1 SF17001     0.0000 
     38 H          18.3970   20.9007    6.6012 H         1 SF17001     0.0000 
     39 H          19.6691   21.4130    4.6070 H         1 SF17001     0.0000 
     40 H          20.6927   23.5953    4.3380 H         1 SF17001     0.0000 
     41 H          20.4335   25.2712    6.0727 H         1 SF17001     0.0000 
     42 H          19.1464   24.7656    8.0619 H         1 SF17001     0.0000 
@<TRIPOS>BOND
     1    2    1 ar   
     2    6    1 ar   
     3   28    1 1    
     4    3    2 ar   
     5   29    2 1    
     6    4    3 ar   
     7   30    3 1    
     8    5    4 ar   
     9   31    4 1    
    10    6    5 ar   
    11   32    5 1    
    12    7    6 1    
    13    8    7 1    
    14   33    7 1    
    15   34    7 1    
    16    9    8 1    
    17   13    8 1    
    18   10    9 1    
    19   20    9 2    
    20   11   10 ar   
    21   12   10 ar   
    22   14   13 ar   
    23   19   13 ar   
    24   15   14 ar   
    25   35   14 1    
    26   16   15 ar   
    27   36   15 1    
    28   17   16 1    
    29   18   16 ar   
    30   19   18 ar   
    31   37   18 1    
    32   20   19 1    
    33   21   20 1    
    34   22   21 1    
    35   23   22 ar   
    36   27   22 ar   
    37   24   23 ar   
    38   38   23 1    
    39   25   24 ar   
    40   39   24 1    
    41   26   25 ar   
    42   40   25 1    
    43   27   26 ar   
    44   41   26 1    
    45   42   27 1    
@<TRIPOS>SUBSTRUCTURE
     1 SF17001     1 GROUP   
@<TRIPOS>SET

