#    Name: 3qud_N3F_1_INTS_M
#    Modification time : Tue Mar 25 10:09:24 2014

@<TRIPOS>MOLECULE
3qud_N3F_1_INTS_M
   73     0     9     0     0
SMALL
NO_CHARGES


@<TRIPOS>ATOM
      1 O          -1.2325   -3.0060  -16.5600 O.2       1 ALC1        0.0000 
      2 O          -2.1980   -2.6940  -17.5930 O.2       7 ALL1        0.0000 
      3 O          -0.2670   -3.3180  -15.5270 O.2       4 ALP1        0.0000 
      4 O          -1.0510   -3.3015  -18.5355 O.2       1 ALC1        0.0000 
      5 O           0.0960   -3.9090  -19.4780 O.2       4 ALP1        0.0000 
      6 N          -2.1480    5.0345  -23.3100 N.am      2 SEC2        0.0000 
      7 N          -2.0130    3.6160  -23.6200 N.am      8 SEL2        0.0000 
      8 N          -2.2830    6.4530  -23.0000 N.am      5 SEP2        0.0000 
      9 N          -1.7035    4.7060  -24.6190 N.am      2 SEC2        0.0000 
     10 N          -1.3940    5.7960  -25.6180 N.am      5 SEP2        0.0000 
     11 CA         -3.9260    0.9895  -27.7560 C.3       3 GLC5        0.0000 
     12 CA         -1.9270    1.9290  -27.6180 C.3       9 GLL5        0.0000 
     13 CA         -5.9250    0.0500  -27.8940 C.3       6 GLP5        0.0000 
     14 CA         -5.3700   -2.7365  -14.9955 C.3       3 GLC5        0.0000 
     15 CA         -3.9670   -1.7320  -16.3500 C.3       9 GLL5        0.0000 
     16 CA         -6.7730   -3.7410  -13.6410 C.3       6 GLP5        0.0000 
     17 CA          0.7130    2.6275  -26.6825 C.3       3 GLC5        0.0000 
     18 CA         -0.2480    1.2900  -25.4640 C.3       9 GLL5        0.0000 
     19 CA          1.6740    3.9650  -27.9010 C.3       6 GLP5        0.0000 
     20 CA         -3.9695    3.5045  -25.4655 C.3       3 GLC5        0.0000 
     21 CA         -2.2770    2.3120  -26.3200 C.3       9 GLL5        0.0000 
     22 CA         -5.6620    4.6970  -24.6110 C.3       6 GLP5        0.0000 
     23 CA         -0.8345    1.0355  -19.6480 C.3       3 GLC5        0.0000 
     24 CA         -2.6820    0.8730  -20.4380 C.3       9 GLL5        0.0000 
     25 CA          1.0130    1.1980  -18.8580 C.3       6 GLP5        0.0000 
     26 CA         -2.7990   -2.1535  -23.5325 C.3       3 GLC5        0.0000 
     27 CA         -2.5160   -0.8990  -22.0740 C.3       9 GLL5        0.0000 
     28 CA         -3.0820   -3.4080  -24.9910 C.3       6 GLP5        0.0000 
     29 CA         -5.4405    1.1125  -19.9205 C.3       3 GLC5        0.0000 
     30 CA         -4.8750   -0.4120  -18.6120 C.3       9 GLL5        0.0000 
     31 CA         -6.0060    2.6370  -21.2290 C.3       6 GLP5        0.0000 
     32 CA         -1.9900   -1.4565  -24.3165 C.3       3 GLC5        0.0000 
     33 CA         -2.2150    0.0200  -23.0700 C.3       9 GLL5        0.0000 
     34 CA         -1.7650   -2.9330  -25.5630 C.3       6 GLP5        0.0000 
     35 CA         -1.1670   -0.4255  -26.9790 C.3       3 GLC5        0.0000 
     36 CA          0.0970    0.9020  -26.7530 C.3       9 GLL5        0.0000 
     37 CA         -2.0130   -1.9110  -26.6670 C.3       6 GLP5        0.0000 
     38 CA          1.9943    0.7530  -26.0548 C.3       3 GLC5        0.0000 
     39 CA          4.0640    0.4100  -26.0010 C.3       6 GLP5        0.0000 
     40 CA          0.2750    2.7298  -27.6777 C.3       3 GLC5        0.0000 
     41 CA         -2.0575    0.1047  -26.8180 C.3       3 GLC5        0.0000 
     42 CA         -3.9777   -1.7178  -14.3555 C.3       3 GLC5        0.0000 
     43 CA         -5.1020   -0.9090  -16.2760 C.3       9 GLL5        0.0000 
     44 CA         -3.4210   -2.1150  -12.3980 C.3       6 GLP5        0.0000 
     45 CA         -3.4577    0.0092  -16.3158 C.3       3 GLC5        0.0000 
     46 CA         -1.5840    0.5990  -15.7890 C.3       6 GLP5        0.0000 
     47 CA         -6.7062   -1.1492  -15.5412 C.3       3 GLC5        0.0000 
     48 CA         -8.0810   -1.7180  -14.2400 C.3       6 GLP5        0.0000 
     49 CA         -4.7683    1.2567  -17.3537 C.3       3 GLC5        0.0000 
     50 CA         -4.2050    3.0940  -17.8650 C.3       6 GLP5        0.0000 
     51 CA         -2.6050   -0.6078  -16.3680 C.3       3 GLC5        0.0000 
     52 CA         -3.2850   -1.8970  -17.5440 C.3       9 GLL5        0.0000 
     53 CA         -1.4290   -0.1350  -26.0120 C.3       3 GLC5        0.0000 
     54 CA         -1.4420    1.9920  -25.2500 C.3       9 GLL5        0.0000 
     55 CA         -3.3700    2.2153  -19.4025 C.3       3 GLC5        0.0000 
     56 CA         -2.3880    1.8000  -21.4420 C.3       9 GLL5        0.0000 
     57 CA         -6.2981   -1.8356  -18.1101 C.3       3 GLC5        0.0000 
     58 CA         -7.4930   -3.1750  -18.4930 C.3       6 GLP5        0.0000 
     59 CA         -2.9417   -0.1098  -17.2190 C.3       3 GLC5        0.0000 
     60 CA         -4.2523    1.1378  -18.2570 C.3       3 GLC5        0.0000 
     61 CA         -3.7240   -1.2250  -18.6860 C.3       9 GLL5        0.0000 
     62 CA         -0.5020    0.6375  -21.4438 C.3       3 GLC5        0.0000 
     63 CA          1.2620   -0.3150  -20.7910 C.3       6 GLP5        0.0000 
     64 CA         -4.4854   -0.7394  -22.2810 C.3       3 GLC5        0.0000 
     65 CA         -2.7460   -0.4880  -20.7540 C.3       9 GLL5        0.0000 
     66 CA         -6.4150   -1.0150  -22.8990 C.3       6 GLP5        0.0000 
     67 CA         -0.6469   -0.3894  -21.2270 C.3       3 GLC5        0.0000 
     68 CA         -1.6695    3.9156  -26.5843 C.3       3 GLC5        0.0000 
     69 CA         -1.5670    5.7750  -27.0590 C.3       6 GLP5        0.0000 
     70 CA         -4.1728    1.9976  -21.5373 C.3       3 GLC5        0.0000 
     71 CA         -2.1440    1.3800  -22.7510 C.3       9 GLL5        0.0000 
     72 CA         -4.5900   -3.0829  -17.9798 C.3       3 GLC5        0.0000 
     73 CA         -5.5050   -4.6460  -18.1430 C.3       6 GLP5        0.0000 
@<TRIPOS>BOND
@<TRIPOS>SUBSTRUCTURE
     1 ALC1        1 GROUP        1 X    ALC  0     ROOT ALC X 1
     2 SEC2        6 GROUP        1 X    SEC  0     **** SEC X 2
     3 GLC5       11 GROUP        1 X    GLC  0     **** GLC X 6
     4 ALP1        3 GROUP        1 Y    ALP  0     ROOT ALP Y 8
     5 SEP2        8 GROUP        1 Y    SEP  0     **** SEP Y 9
     6 GLP5       13 GROUP        1 Y    GLP  0     **** GLP Y 13
     7 ALL1        2 GROUP        1 Z    ALL  0     ROOT ALL Z 15
     8 SEL2        7 GROUP        1 Z    SEL  0     **** SEL Z 16
     9 GLL5       12 GROUP        1 Z    GLL  0     **** GLL Z 20
@<TRIPOS>SET

