#    Name: 3qud_N3F_1_ligand
#    Modification time : Tue Mar 25 10:09:24 2014

@<TRIPOS>MOLECULE
3qud_N3F_1_ligand
   38    40     1     0     0
SMALL
NO_CHARGES


@<TRIPOS>ATOM
      1 NAA        -2.1980   -2.6940  -17.5930 N.pl3     1 N3F361      0.0000 
      2 OAB        -2.0130    3.6160  -23.6200 O.2       1 N3F361      0.0000 
      3 CAC        -0.7390    1.2180  -27.8290 C.ar      1 N3F361      0.0000 
      4 CAD         0.0970    0.9020  -26.7530 C.ar      1 N3F361      0.0000 
      5 CAE        -1.9270    1.9290  -27.6180 C.ar      1 N3F361      0.0000 
      6 CAF        -5.1020   -0.9090  -16.2760 C.ar      1 N3F361      0.0000 
      7 CAG        -5.5610   -0.2520  -17.4090 C.ar      1 N3F361      0.0000 
      8 CAH        -3.9670   -1.7320  -16.3500 C.ar      1 N3F361      0.0000 
      9 CAI        -0.2480    1.2900  -25.4640 C.ar      1 N3F361      0.0000 
     10 CAJ        -2.2770    2.3120  -26.3200 C.ar      1 N3F361      0.0000 
     11 CAK        -2.6820    0.8730  -20.4380 C.ar      1 N3F361      0.0000 
     12 CAL        -2.5160   -0.8990  -22.0740 C.ar      1 N3F361      0.0000 
     13 CAM        -4.8750   -0.4120  -18.6120 C.ar      1 N3F361      0.0000 
     14 CAN        -2.3880    1.8000  -21.4420 C.ar      1 N3F361      0.0000 
     15 CAO        -2.2150    0.0200  -23.0700 C.ar      1 N3F361      0.0000 
     16 NAP        -3.0490   -1.4280  -19.8350 N.pl3     1 N3F361      0.0000 
     17 CAQ        -1.8380    2.4250  -23.8480 C.2       1 N3F361      0.0000 
     18 CAR        -3.2850   -1.8970  -17.5440 C.ar      1 N3F361      0.0000 
     19 CAS        -2.7460   -0.4880  -20.7540 C.ar      1 N3F361      0.0000 
     20 CAT        -1.4420    1.9920  -25.2500 C.ar      1 N3F361      0.0000 
     21 CAU        -2.1440    1.3800  -22.7510 C.ar      1 N3F361      0.0000 
     22 CAV        -3.7240   -1.2250  -18.6860 C.ar      1 N3F361      0.0000 
     23 H          -1.6290   -2.7130  -16.7710 H         1 N3F361      0.0000 
     24 H          -2.0579   -3.1950  -18.4470 H         1 N3F361      0.0000 
     25 H          -0.4806    0.9270  -28.7805 H         1 N3F361      0.0000 
     26 H           0.9676    0.3815  -26.9203 H         1 N3F361      0.0000 
     27 H          -2.5317    2.1651  -28.4066 H         1 N3F361      0.0000 
     28 H          -5.5887   -0.7976  -15.3781 H         1 N3F361      0.0000 
     29 H          -6.3916    0.3425  -17.3649 H         1 N3F361      0.0000 
     30 H          -3.6427   -2.2176  -15.4975 H         1 N3F361      0.0000 
     31 H           0.3619    1.0673  -24.6730 H         1 N3F361      0.0000 
     32 H          -3.1486    2.8285  -26.1561 H         1 N3F361      0.0000 
     33 H          -2.8491    1.1871  -19.4796 H         1 N3F361      0.0000 
     34 H          -2.5729   -1.9064  -22.3043 H         1 N3F361      0.0000 
     35 H          -5.2067    0.0663  -19.4621 H         1 N3F361      0.0000 
     36 H          -2.3511    2.8047  -21.2128 H         1 N3F361      0.0000 
     37 H          -2.0458   -0.2900  -24.0303 H         1 N3F361      0.0000 
     38 H          -2.7190   -2.4399  -20.0398 H         1 N3F361      0.0000 
@<TRIPOS>BOND
     1   18    1 1    
     2   23    1 1    
     3   24    1 1    
     4   17    2 2    
     5    4    3 ar   
     6    5    3 ar   
     7   25    3 1    
     8    9    4 ar   
     9   26    4 1    
    10   10    5 ar   
    11   27    5 1    
    12    7    6 ar   
    13    8    6 ar   
    14   28    6 1    
    15   13    7 ar   
    16   29    7 1    
    17   18    8 ar   
    18   30    8 1    
    19   20    9 ar   
    20   31    9 1    
    21   20   10 ar   
    22   32   10 1    
    23   14   11 ar   
    24   19   11 ar   
    25   33   11 1    
    26   15   12 ar   
    27   19   12 ar   
    28   34   12 1    
    29   22   13 ar   
    30   35   13 1    
    31   21   14 ar   
    32   36   14 1    
    33   21   15 ar   
    34   37   15 1    
    35   19   16 1    
    36   22   16 1    
    37   38   16 1    
    38   20   17 1    
    39   21   17 1    
    40   22   18 ar   
@<TRIPOS>SUBSTRUCTURE
     1 N3F361      1 GROUP   
@<TRIPOS>SET

