#    Name: 2o5d_VR1_2_INTS_M
#    Modification time : Tue Mar 25 22:00:23 2014

@<TRIPOS>MOLECULE
2o5d_VR1_2_INTS_M
   80     0     6     0     0
SMALL
NO_CHARGES


@<TRIPOS>ATOM
      1 CA        -12.7810   33.2410  -31.4610 C.3       2 GLC5        0.0000 
      2 CA        -11.5600   31.3700  -31.6410 C.3       6 GLL5        0.0000 
      3 CA        -14.0020   35.1120  -31.2810 C.3       4 GLP5        0.0000 
      4 CA        -12.8175   32.1505  -33.0180 C.3       2 GLC5        0.0000 
      5 CA        -14.0750   32.9310  -34.3950 C.3       4 GLP5        0.0000 
      6 CA         -9.8715   33.4850  -31.1140 C.3       2 GLC5        0.0000 
      7 CA        -10.3200   31.8530  -31.9880 C.3       6 GLL5        0.0000 
      8 CA         -9.4230   35.1170  -30.2400 C.3       4 GLP5        0.0000 
      9 CA        -11.0425   32.4635  -33.6560 C.3       2 GLC5        0.0000 
     10 CA        -11.7650   33.0740  -35.3240 C.3       4 GLP5        0.0000 
     11 CA         -9.6620   32.2645  -29.9270 C.3       2 GLC5        0.0000 
     12 CA         -9.3560   30.9830  -31.4620 C.3       6 GLL5        0.0000 
     13 CA         -9.9680   33.5460  -28.3920 C.3       4 GLP5        0.0000 
     14 CA         -9.0350   29.3955  -30.1000 C.3       2 GLC5        0.0000 
     15 CA         -8.7140   27.8080  -28.7380 C.3       4 GLP5        0.0000 
     16 CA        -12.9500   28.0725  -28.7235 C.3       2 GLC5        0.0000 
     17 CA        -12.4460   29.3110  -30.2610 C.3       6 GLL5        0.0000 
     18 CA        -13.4540   26.8340  -27.1860 C.3       4 GLP5        0.0000 
     19 CA        -12.9770   31.0985  -27.4525 C.3       2 GLC5        0.0000 
     20 CA        -12.8920   29.8490  -28.8940 C.3       6 GLL5        0.0000 
     21 CA        -13.0620   32.3480  -26.0110 C.3       4 GLP5        0.0000 
     22 CA        -13.5785   28.8870  -27.6870 C.3       2 GLC5        0.0000 
     23 CA        -14.2650   27.9250  -26.4800 C.3       4 GLP5        0.0000 
     24 CA        -14.7705   30.8745  -28.5215 C.3       2 GLC5        0.0000 
     25 CA        -16.6490   31.9000  -28.1490 C.3       4 GLP5        0.0000 
     26 CA         -6.1715   33.3745  -30.6940 C.3       2 GLC5        0.0000 
     27 CA         -7.0500   32.0400  -32.1130 C.3       6 GLL5        0.0000 
     28 CA         -5.2930   34.7090  -29.2750 C.3       4 GLP5        0.0000 
     29 CA         -4.2610   35.0330  -32.7525 C.3       2 GLC5        0.0000 
     30 CA         -6.0860   33.9230  -33.2440 C.3       6 GLL5        0.0000 
     31 CA         -2.4360   36.1430  -32.2610 C.3       4 GLP5        0.0000 
     32 CA         -5.6895   34.3160  -31.2595 C.3       2 GLC5        0.0000 
     33 N          -3.8900   31.8690  -30.5450 N.am      1 SEC2        0.0000 
     34 N          -4.8700   31.3110  -31.3920 N.am      5 SEL2        0.0000 
     35 N          -2.9100   32.4270  -29.6980 N.am      3 SEP2        0.0000 
     36 CA         -7.8825   39.9970  -30.5865 C.3       2 GLC5        0.0000 
     37 CA         -8.2850   38.4680  -32.0430 C.3       6 GLL5        0.0000 
     38 CA         -7.4800   41.5260  -29.1300 C.3       4 GLP5        0.0000 
     39 CA        -10.5775   39.8815  -33.0490 C.3       2 GLC5        0.0000 
     40 CA        -10.6200   38.8770  -31.5400 C.3       6 GLL5        0.0000 
     41 CA        -10.5350   40.8860  -34.5580 C.3       4 GLP5        0.0000 
     42 N          -6.2975   39.3465  -39.3810 N.am      1 SEC2        0.0000 
     43 N          -6.2520   38.0350  -39.3160 N.am      5 SEL2        0.0000 
     44 N          -6.3430   40.6580  -39.4460 N.am      3 SEP2        0.0000 
     45 N          -5.8125   40.0400  -38.3285 N.am      1 SEC2        0.0000 
     46 N          -5.2820   39.4220  -37.2110 N.am      5 SEL2        0.0000 
     47 CA         -1.7635   37.0850  -36.0400 C.3       2 GLC5        0.0000 
     48 CA         -2.6620   37.9640  -37.8220 C.3       6 GLL5        0.0000 
     49 CA         -0.8650   36.2060  -34.2580 C.3       4 GLP5        0.0000 
     50 CA         -0.6635   37.2630  -36.2350 C.3       2 GLC5        0.0000 
     51 CA         -1.3850   37.3580  -37.9780 C.3       6 GLL5        0.0000 
     52 CA          0.0580   37.1680  -34.4920 C.3       4 GLP5        0.0000 
     53 CA         -1.0585   36.1005  -36.3425 C.3       2 GLC5        0.0000 
     54 CA         -1.2520   35.9950  -38.4270 C.3       6 GLL5        0.0000 
     55 CA        -10.7205   32.1647  -29.8270 C.3       2 GLC5        0.0000 
     56 CA        -10.3150   28.7810  -29.6550 C.3       2 GLC5        0.0000 
     57 CA        -11.3860   30.1970  -30.8830 C.3       6 GLL5        0.0000 
     58 CA         -6.6390   30.2077  -30.6250 C.3       2 GLC5        0.0000 
     59 CA         -7.8520   31.0690  -31.5390 C.3       6 GLL5        0.0000 
     60 CA         -5.8270   28.8610  -29.4240 C.3       4 GLP5        0.0000 
     61 CA         -8.3955   33.9027  -31.4095 C.3       2 GLC5        0.0000 
     62 CA         -8.4703   36.1882  -31.7812 C.3       2 GLC5        0.0000 
     63 CA         -7.7320   36.7620  -33.8290 C.3       6 GLL5        0.0000 
     64 CA         -7.7678   39.0803  -34.3392 C.3       2 GLC5        0.0000 
     65 CA         -7.3030   37.7570  -32.8160 C.3       6 GLL5        0.0000 
     66 CA         -8.0180   40.9010  -35.3560 C.3       4 GLP5        0.0000 
     67 CA         -8.5027   39.6200  -33.7537 C.3       2 GLC5        0.0000 
     68 CA         -9.6900   38.2100  -32.2600 C.3       6 GLL5        0.0000 
     69 CA        -10.0715   40.0033  -30.6330 C.3       2 GLC5        0.0000 
     70 CA         -9.9880   41.4630  -29.3660 C.3       4 GLP5        0.0000 
     71 CA         -9.5293   36.0032  -31.9327 C.3       2 GLC5        0.0000 
     72 CA        -10.1220   37.2480  -33.2360 C.3       6 GLL5        0.0000 
     73 CA        -11.3107   36.0267  -34.1598 C.3       2 GLC5        0.0000 
     74 CA        -12.9860   35.1640  -34.6940 C.3       4 GLP5        0.0000 
     75 CA         -9.6134   36.8625  -31.0429 C.3       2 GLC5        0.0000 
     76 CA        -11.7775   38.0245  -31.3740 C.3       2 GLC5        0.0000 
     77 CA        -13.2920   37.7460  -30.6040 C.3       4 GLP5        0.0000 
     78 CA         -4.1232   39.1333  -39.0352 C.3       2 GLC5        0.0000 
     79 CA         -3.8230   37.2170  -38.1210 C.3       6 GLL5        0.0000 
     80 CA         -5.0040   40.6760  -40.0990 C.3       4 GLP5        0.0000 
@<TRIPOS>BOND
@<TRIPOS>SUBSTRUCTURE
     1 SEC2       33 GROUP        1 X    SEC  0     ROOT SEC X 2
     2 GLC5        1 GROUP        1 X    GLC  0     **** GLC X 6
     3 SEP2       35 GROUP        1 Y    SEP  0     ROOT SEP Y 9
     4 GLP5        3 GROUP        1 Y    GLP  0     **** GLP Y 13
     5 SEL2       34 GROUP        1 Z    SEL  0     ROOT SEL Z 16
     6 GLL5        2 GROUP        1 Z    GLL  0     **** GLL Z 20
@<TRIPOS>SET

