#    Name: 2o5d_VR1_2_ligand
#    Modification time : Tue Mar 25 22:00:23 2014

@<TRIPOS>MOLECULE
2o5d_VR1_2_ligand
   58    61     1     0     0
SMALL
NO_CHARGES


@<TRIPOS>ATOM
      1 C1        -11.3860   30.1970  -30.8830 C.2       1 VR1600      0.0000 
      2 C2        -11.5600   31.3700  -31.6410 C.2       1 VR1600      0.0000 
      3 C3        -10.3200   31.8530  -31.9880 C.2       1 VR1600      0.0000 
      4 C4         -9.3560   30.9830  -31.4620 C.2       1 VR1600      0.0000 
      5 O5        -10.0170   29.9760  -30.7820 O.3       1 VR1600      0.0000 
      6 C6        -12.4460   29.3110  -30.2610 C.3       1 VR1600      0.0000 
      7 C7        -12.8920   29.8490  -28.8940 C.3       1 VR1600      0.0000 
      8 C8         -7.8520   31.0690  -31.5390 C.2       1 VR1600      0.0000 
      9 C9         -7.0500   32.0400  -32.1130 C.2       1 VR1600      0.0000 
     10 C10        -5.5670   32.1180  -32.0030 C.2       1 VR1600      0.0000 
     11 N11        -5.0920   33.2330  -32.6820 N.am      1 VR1600      0.0000 
     12 C12        -6.0860   33.9230  -33.2440 C.2       1 VR1600      0.0000 
     13 S13        -7.6860   33.3370  -33.0450 S.3       1 VR1600      0.0000 
     14 O14        -4.8700   31.3110  -31.3920 O.2       1 VR1600      0.0000 
     15 N15        -5.7890   35.0960  -33.9590 N.pl3     1 VR1600      0.0000 
     16 C16        -6.7330   35.9520  -34.7260 C.3       1 VR1600      0.0000 
     17 C17        -5.9450   36.9220  -35.5840 C.2       1 VR1600      0.0000 
     18 O18        -5.0480   37.6670  -35.1070 O.2       1 VR1600      0.0000 
     19 N19        -6.2370   36.9420  -36.8680 N.am      1 VR1600      0.0000 
     20 S20        -5.4120   37.9630  -37.9280 S.o2      1 VR1600      0.0000 
     21 C21        -7.7320   36.7620  -33.8290 C.ar      1 VR1600      0.0000 
     22 C22        -7.3030   37.7570  -32.8160 C.ar      1 VR1600      0.0000 
     23 C23        -8.2850   38.4680  -32.0430 C.ar      1 VR1600      0.0000 
     24 C24        -9.6900   38.2100  -32.2600 C.ar      1 VR1600      0.0000 
     25 C25       -10.1220   37.2480  -33.2360 C.ar      1 VR1600      0.0000 
     26 C26        -9.1490   36.5310  -34.0150 C.ar      1 VR1600      0.0000 
     27 F         -10.6200   38.8770  -31.5400 F         1 VR1600      0.0000 
     28 O28        -6.2520   38.0350  -39.3160 O.2       1 VR1600      0.0000 
     29 O29        -5.2820   39.4220  -37.2110 O.2       1 VR1600      0.0000 
     30 C30        -3.8230   37.2170  -38.1210 C.ar      1 VR1600      0.0000 
     31 C31        -2.6620   37.9640  -37.8220 C.ar      1 VR1600      0.0000 
     32 C32        -1.3850   37.3580  -37.9780 C.ar      1 VR1600      0.0000 
     33 C33        -1.2520   35.9950  -38.4270 C.ar      1 VR1600      0.0000 
     34 C34        -2.4570   35.2590  -38.7230 C.ar      1 VR1600      0.0000 
     35 C35        -3.7400   35.8580  -38.5720 C.ar      1 VR1600      0.0000 
     36 N36         0.1220   35.3530  -38.5890 N.pl3     1 VR1600      0.0000 
     37 O37         1.1550   35.9730  -38.3420 O.2       1 VR1600      0.0000 
     38 O38         0.2420   34.1870  -38.9700 O.2       1 VR1600      0.0000 
     39 H         -12.4013   31.7498  -31.8655 H         1 VR1600      0.0000 
     40 H         -10.1348   32.6333  -32.4923 H         1 VR1600      0.0000 
     41 H         -12.0504   28.3021  -30.1305 H         1 VR1600      0.0000 
     42 H         -13.3146   29.2603  -30.9201 H         1 VR1600      0.0000 
     43 H          -7.3671   30.2257  -31.0621 H         1 VR1600      0.0000 
     44 H          -4.1383   33.4592  -32.7253 H         1 VR1600      0.0000 
     45 H          -4.7791   35.4362  -33.9712 H         1 VR1600      0.0000 
     46 H          -7.3310   35.3333  -35.3961 H         1 VR1600      0.0000 
     47 H          -6.9288   36.4065  -37.3744 H         1 VR1600      0.0000 
     48 H          -6.3193   37.9203  -32.6846 H         1 VR1600      0.0000 
     49 H          -7.9976   39.1444  -31.3517 H         1 VR1600      0.0000 
     50 H         -11.1092   37.0750  -33.3753 H         1 VR1600      0.0000 
     51 H          -9.4562   35.8516  -34.7070 H         1 VR1600      0.0000 
     52 H          -2.7339   38.9230  -37.4991 H         1 VR1600      0.0000 
     53 H          -0.5376   37.8942  -37.7691 H         1 VR1600      0.0000 
     54 H          -2.3800   34.2925  -39.0458 H         1 VR1600      0.0000 
     55 H          -4.5793   35.3391  -38.7776 H         1 VR1600      0.0000 
     56 H         -12.1293   29.9036  -28.2496 H         1 VR1600      0.0000 
     57 H         -13.2817   30.7672  -28.9654 H         1 VR1600      0.0000 
     58 H         -13.5886   29.2667  -28.4750 H         1 VR1600      0.0000 
@<TRIPOS>BOND
     1    2    1 2    
     2    5    1 1    
     3    6    1 1    
     4    3    2 1    
     5   39    2 1    
     6    4    3 2    
     7   40    3 1    
     8    5    4 1    
     9    8    4 1    
    10    7    6 1    
    11   41    6 1    
    12   42    6 1    
    13   56    7 1    
    14   57    7 1    
    15   58    7 1    
    16    9    8 2    
    17   43    8 1    
    18   10    9 1    
    19   13    9 1    
    20   11   10 am   
    21   14   10 2    
    22   12   11 1    
    23   44   11 1    
    24   13   12 1    
    25   15   12 2    
    26   16   15 1    
    27   45   15 1    
    28   17   16 1    
    29   21   16 1    
    30   46   16 1    
    31   18   17 2    
    32   19   17 am   
    33   20   19 1    
    34   47   19 1    
    35   28   20 2    
    36   29   20 2    
    37   30   20 1    
    38   22   21 ar   
    39   26   21 ar   
    40   23   22 ar   
    41   48   22 1    
    42   24   23 ar   
    43   49   23 1    
    44   25   24 ar   
    45   27   24 1    
    46   26   25 ar   
    47   50   25 1    
    48   51   26 1    
    49   31   30 ar   
    50   35   30 ar   
    51   32   31 ar   
    52   52   31 1    
    53   33   32 ar   
    54   53   32 1    
    55   34   33 ar   
    56   36   33 1    
    57   35   34 ar   
    58   54   34 1    
    59   55   35 1    
    60   37   36 2    
    61   38   36 2    
@<TRIPOS>SUBSTRUCTURE
     1 VR1600      1 GROUP   
@<TRIPOS>SET

