#    Name: 3fkl_FKL_1_INTS_M
#    Modification time : Tue Mar 25 05:38:42 2014

@<TRIPOS>MOLECULE
3fkl_FKL_1_INTS_M
   87     0     9     0     0
SMALL
NO_CHARGES


@<TRIPOS>ATOM
      1 N          22.7675    5.6070   29.7935 N.am      2 SEC2        0.0000 
      2 N          22.5570    7.0340   30.1970 N.am      8 SEL2        0.0000 
      3 N          22.9780    4.1800   29.3900 N.am      5 SEP2        0.0000 
      4 CA         21.2355    5.5465   30.3655 C.3       3 GLC5        0.0000 
      5 CA         21.3490    7.5590   29.9240 C.3       9 GLL5        0.0000 
      6 CA         21.1220    3.5340   30.8070 C.3       6 GLP5        0.0000 
      7 CA         22.0750    6.4030   28.3030 C.3       3 GLC5        0.0000 
      8 CA         22.8010    5.2470   26.6820 C.3       6 GLP5        0.0000 
      9 CA         21.3015    9.8565   32.7825 C.3       3 GLC5        0.0000 
     10 CA         22.1190    9.6810   30.7270 C.3       9 GLL5        0.0000 
     11 CA         20.4840   10.0320   34.8380 C.3       6 GLP5        0.0000 
     12 CA         19.6625   11.7870   27.5300 C.3       3 GLC5        0.0000 
     13 CA         18.1700   12.2940   28.8050 C.3       9 GLL5        0.0000 
     14 CA         21.1550   11.2800   26.2550 C.3       6 GLP5        0.0000 
     15 CA         13.9505   12.7240   28.7985 C.3       3 GLC5        0.0000 
     16 CA         15.8270   12.6380   29.2800 C.3       9 GLL5        0.0000 
     17 CA         12.0740   12.8100   28.3170 C.3       6 GLP5        0.0000 
     18 CA         14.0370   13.2555   30.4940 C.3       3 GLC5        0.0000 
     19 CA         12.2470   13.8730   31.7080 C.3       6 GLP5        0.0000 
     20 CA         18.8635   10.1600   33.3720 C.3       3 GLC5        0.0000 
     21 CA         17.2430   10.2880   31.9060 C.3       9 GLL5        0.0000 
     22 CA         18.2565    8.6155   32.3235 C.3       3 GLC5        0.0000 
     23 CA         19.2700    6.9430   32.7410 C.3       6 GLP5        0.0000 
     24 CA         12.7205   15.9290   24.3465 C.3       3 GLC5        0.0000 
     25 CA         14.4150   15.7330   25.5660 C.3       9 GLL5        0.0000 
     26 CA         11.0260   16.1250   23.1270 C.3       6 GLP5        0.0000 
     27 CA         13.2545   14.2195   26.1900 C.3       3 GLC5        0.0000 
     28 CA         12.0940   12.7060   26.8140 C.3       6 GLP5        0.0000 
     29 N          18.5450   14.2905   25.6175 N.am      2 SEC2        0.0000 
     30 N          17.7350   13.5830   26.4190 N.am      8 SEL2        0.0000 
     31 N          19.3550   14.9980   24.8160 N.am      5 SEP2        0.0000 
     32 O          15.2430   15.2315   28.4005 O.2       1 ALC1        0.0000 
     33 O          15.9500   14.7390   27.1660 O.2       7 ALL1        0.0000 
     34 O          14.5360   15.7240   29.6350 O.2       4 ALP1        0.0000 
     35 CA         14.3545   13.3885   25.5670 C.3       3 GLC5        0.0000 
     36 CA         15.4100   14.8690   24.8030 C.3       9 GLL5        0.0000 
     37 CA         13.2990   11.9080   26.3310 C.3       6 GLP5        0.0000 
     38 CA         16.1290   12.8355   24.7555 C.3       3 GLC5        0.0000 
     39 CA         16.8480   10.8020   24.7080 C.3       6 GLP5        0.0000 
     40 CA         15.2610   14.0480   23.2330 C.3       3 GLC5        0.0000 
     41 CA         15.1120   13.2270   21.6630 C.3       6 GLP5        0.0000 
     42 CA         15.1225   12.3975   27.4085 C.3       3 GLC5        0.0000 
     43 CA         16.9460   12.8870   28.4860 C.3       9 GLL5        0.0000 
     44 CA         16.8970   11.8445   26.5970 C.3       3 GLC5        0.0000 
     45 CA         14.0910   11.6330   31.3980 C.3       3 GLC5        0.0000 
     46 CA         15.9430   11.7940   30.3860 C.3       9 GLL5        0.0000 
     47 CA         12.2390   11.4720   32.4100 C.3       6 GLP5        0.0000 
     48 CA         21.5885   12.1775   33.0520 C.3       3 GLC5        0.0000 
     49 CA         23.0020   11.8560   31.5750 C.3       9 GLL5        0.0000 
     50 CA         20.1750   12.4990   34.5290 C.3       6 GLP5        0.0000 
     51 CA         22.6050   11.5985   29.4555 C.3       3 GLC5        0.0000 
     52 CA         22.2080   11.3410   27.3360 C.3       6 GLP5        0.0000 
     53 CA         23.1205    6.2795   32.0125 C.3       3 GLC5        0.0000 
     54 CA         23.5430    7.8100   30.7160 C.3       9 GLL5        0.0000 
     55 CA         22.6980    4.7490   33.3090 C.3       6 GLP5        0.0000 
     56 CA         23.8430    6.4160   29.0570 C.3       3 GLC5        0.0000 
     57 CA         24.1430    5.0220   27.3980 C.3       6 GLP5        0.0000 
     58 O          25.1460    5.9325   30.6455 O.2       1 ALC1        0.0000 
     59 O          24.7620    7.2770   30.9890 O.2       7 ALL1        0.0000 
     60 O          25.5300    4.5880   30.3020 O.2       4 ALP1        0.0000 
     61 CA         28.4520   10.0500   28.8220 C.3       3 GLC5        0.0000 
     62 CA         27.7880    9.4580   30.7100 C.3       9 GLL5        0.0000 
     63 CA         29.1160   10.6420   26.9340 C.3       6 GLP5        0.0000 
     64 CA         21.9080   10.3170   28.8978 C.3       3 GLC5        0.0000 
     65 CA         21.0970    8.9050   30.1920 C.3       9 GLL5        0.0000 
     66 CA         20.0150    8.0801   31.4506 C.3       3 GLC5        0.0000 
     67 CA         19.8490    9.4780   29.9280 C.3       9 GLL5        0.0000 
     68 CA         20.9728   10.7490   28.7007 C.3       3 GLC5        0.0000 
     69 CA         15.9220   13.6155   31.1545 C.3       3 GLC5        0.0000 
     70 CA         15.9590   15.0150   32.4760 C.3       6 GLP5        0.0000 
     71 CA         15.6105   10.3000   29.4910 C.3       3 GLC5        0.0000 
     72 CA         15.3360    8.3840   29.1490 C.3       6 GLP5        0.0000 
     73 CA         16.7025   11.6657   32.9005 C.3       3 GLC5        0.0000 
     74 CA         17.1670   11.1990   30.7020 C.3       9 GLL5        0.0000 
     75 CA         16.2000   12.5880   34.4970 C.3       6 GLP5        0.0000 
     76 CA         13.8362   16.0823   27.2045 C.3       3 GLC5        0.0000 
     77 CA         15.8680   15.6600   26.0240 C.3       9 GLL5        0.0000 
     78 CA         12.5310   16.4680   28.6140 C.3       6 GLP5        0.0000 
     79 CA         17.4620   15.8553   25.2572 C.3       3 GLC5        0.0000 
     80 CA         19.2850   16.4460   25.1010 C.3       6 GLP5        0.0000 
     81 CA         15.6803   17.4518   26.5110 C.3       3 GLC5        0.0000 
     82 CA         16.2190   19.2070   27.2270 C.3       6 GLP5        0.0000 
     83 CA         16.5420    9.7396   29.8780 C.3       3 GLC5        0.0000 
     84 CA         18.2910   11.4470   29.9100 C.3       9 GLL5        0.0000 
     85 CA         28.2837    7.6298   29.5400 C.3       3 GLC5        0.0000 
     86 CA         26.4710    8.7890   30.3120 C.3       9 GLL5        0.0000 
     87 CA         29.4380    6.1360   28.5690 C.3       6 GLP5        0.0000 
@<TRIPOS>BOND
@<TRIPOS>SUBSTRUCTURE
     1 ALC1       32 GROUP        1 X    ALC  0     ROOT ALC X 1
     2 SEC2        1 GROUP        1 X    SEC  0     **** SEC X 2
     3 GLC5        4 GROUP        1 X    GLC  0     **** GLC X 6
     4 ALP1       34 GROUP        1 Y    ALP  0     ROOT ALP Y 8
     5 SEP2        3 GROUP        1 Y    SEP  0     **** SEP Y 9
     6 GLP5        6 GROUP        1 Y    GLP  0     **** GLP Y 13
     7 ALL1       33 GROUP        1 Z    ALL  0     ROOT ALL Z 15
     8 SEL2        2 GROUP        1 Z    SEL  0     **** SEL Z 16
     9 GLL5        5 GROUP        1 Z    GLL  0     **** GLL Z 20
@<TRIPOS>SET

