#    Name: 3fkl_FKL_1_ligand
#    Modification time : Tue Mar 25 05:38:42 2014

@<TRIPOS>MOLECULE
3fkl_FKL_1_ligand
   59    63     1     0     0
SMALL
NO_CHARGES


@<TRIPOS>ATOM
      1 N1         22.5570    7.0340   30.1970 N.ar      1 FKL361      0.0000 
      2 N3         23.3160    9.1210   30.9830 N.ar      1 FKL361      0.0000 
      3 C4         21.3490    7.5590   29.9240 C.ar      1 FKL361      0.0000 
      4 C5         21.0970    8.9050   30.1920 C.ar      1 FKL361      0.0000 
      5 C6         22.1190    9.6810   30.7270 C.ar      1 FKL361      0.0000 
      6 C8         20.6520   11.6240   30.7360 C.2       1 FKL361      0.0000 
      7 C10        19.8490    9.4780   29.9280 C.2       1 FKL361      0.0000 
      8 C15        18.1700   12.2940   28.8050 C.ar      1 FKL361      0.0000 
      9 C17        15.8270   12.6380   29.2800 C.ar      1 FKL361      0.0000 
     10 C20        17.2430   10.2880   31.9060 C.3       1 FKL361      0.0000 
     11 C21        16.8910   13.7850   27.2810 C.2       1 FKL361      0.0000 
     12 C24        15.8680   15.6600   26.0240 C.3       1 FKL361      0.0000 
     13 C26        14.4150   15.7330   25.5660 C.3       1 FKL361      0.0000 
     14 C28        26.8380    7.1560   32.1730 C.3       1 FKL361      0.0000 
     15 O22        17.7350   13.5830   26.4190 O.2       1 FKL361      0.0000 
     16 N23        15.9500   14.7390   27.1660 N.am      1 FKL361      0.0000 
     17 C25        15.4100   14.8690   24.8030 C.3       1 FKL361      0.0000 
     18 C16        16.9460   12.8870   28.4860 C.ar      1 FKL361      0.0000 
     19 C18        15.9430   11.7940   30.3860 C.ar      1 FKL361      0.0000 
     20 C19        17.1670   11.1990   30.7020 C.ar      1 FKL361      0.0000 
     21 C14        18.2910   11.4470   29.9100 C.ar      1 FKL361      0.0000 
     22 C9         19.6260   10.8360   30.2030 C.2       1 FKL361      0.0000 
     23 O13        20.4680   12.8380   30.9830 O.2       1 FKL361      0.0000 
     24 N7         21.9130   11.0510   31.0030 N.am      1 FKL361      0.0000 
     25 C12        23.0020   11.8560   31.5750 C.3       1 FKL361      0.0000 
     26 C2         23.5430    7.8100   30.7160 C.ar      1 FKL361      0.0000 
     27 N11        24.7620    7.2770   30.9890 N.pl3     1 FKL361      0.0000 
     28 C27        25.8310    8.1120   31.5230 C.3       1 FKL361      0.0000 
     29 C32        26.4710    8.7890   30.3120 C.3       1 FKL361      0.0000 
     30 C31        27.7880    9.4580   30.7100 C.3       1 FKL361      0.0000 
     31 O30        28.6530    8.5060   31.3310 O.3       1 FKL361      0.0000 
     32 C29        28.1080    7.9300   32.5240 C.3       1 FKL361      0.0000 
     33 H          20.5918    6.9836   29.5152 H         1 FKL361      0.0000 
     34 H          19.0943    8.9070   29.5330 H         1 FKL361      0.0000 
     35 H          18.9968   12.4839   28.2165 H         1 FKL361      0.0000 
     36 H          14.9275   13.0702   29.0543 H         1 FKL361      0.0000 
     37 H          16.3101   16.3783   25.7860 H         1 FKL361      0.0000 
     38 H          14.3069   16.5402   25.0849 H         1 FKL361      0.0000 
     39 H          13.9094   15.1628   26.1263 H         1 FKL361      0.0000 
     40 H          27.0786    6.3639   31.4779 H         1 FKL361      0.0000 
     41 H          26.4073    6.7418   33.0737 H         1 FKL361      0.0000 
     42 H          15.2150   14.8735   27.9012 H         1 FKL361      0.0000 
     43 H          15.2802   13.9724   25.0751 H         1 FKL361      0.0000 
     44 H          15.6777   15.3499   24.0337 H         1 FKL361      0.0000 
     45 H          15.1182   11.6078   30.9753 H         1 FKL361      0.0000 
     46 H          24.9757    6.2848   30.8336 H         1 FKL361      0.0000 
     47 H          25.4887    8.8081   32.2007 H         1 FKL361      0.0000 
     48 H          25.7917    9.5405   29.9191 H         1 FKL361      0.0000 
     49 H          26.6647    8.0448   29.5443 H         1 FKL361      0.0000 
     50 H          27.5487   10.2904   31.3836 H         1 FKL361      0.0000 
     51 H          28.2345    9.8815   29.8016 H         1 FKL361      0.0000 
     52 H          28.8072    7.2326   32.9929 H         1 FKL361      0.0000 
     53 H          27.8425    8.6951   33.2583 H         1 FKL361      0.0000 
     54 H          18.1644    9.9222   32.0374 H         1 FKL361      0.0000 
     55 H          16.9940   10.7650   32.7489 H         1 FKL361      0.0000 
     56 H          16.6266    9.5054   31.8191 H         1 FKL361      0.0000 
     57 H          23.3021   11.4996   32.4598 H         1 FKL361      0.0000 
     58 H          23.8044   11.8727   30.9784 H         1 FKL361      0.0000 
     59 H          22.7249   12.8058   31.7203 H         1 FKL361      0.0000 
@<TRIPOS>BOND
     1    3    1 ar   
     2   26    1 ar   
     3    5    2 ar   
     4   26    2 ar   
     5    4    3 ar   
     6   33    3 1    
     7    5    4 ar   
     8    7    4 1    
     9   24    5 1    
    10   22    6 1    
    11   23    6 2    
    12   24    6 am   
    13   22    7 2    
    14   34    7 1    
    15   18    8 ar   
    16   21    8 ar   
    17   35    8 1    
    18   18    9 ar   
    19   19    9 ar   
    20   36    9 1    
    21   20   10 1    
    22   54   10 1    
    23   55   10 1    
    24   56   10 1    
    25   15   11 2    
    26   16   11 am   
    27   18   11 1    
    28   13   12 1    
    29   16   12 1    
    30   17   12 1    
    31   37   12 1    
    32   17   13 1    
    33   38   13 1    
    34   39   13 1    
    35   28   14 1    
    36   32   14 1    
    37   40   14 1    
    38   41   14 1    
    39   42   16 1    
    40   43   17 1    
    41   44   17 1    
    42   20   19 ar   
    43   45   19 1    
    44   21   20 ar   
    45   22   21 1    
    46   25   24 1    
    47   57   25 1    
    48   58   25 1    
    49   59   25 1    
    50   27   26 1    
    51   28   27 1    
    52   46   27 1    
    53   29   28 1    
    54   47   28 1    
    55   30   29 1    
    56   48   29 1    
    57   49   29 1    
    58   31   30 1    
    59   50   30 1    
    60   51   30 1    
    61   32   31 1    
    62   52   32 1    
    63   53   32 1    
@<TRIPOS>SUBSTRUCTURE
     1 FKL361      1 GROUP   
@<TRIPOS>SET

