#    Name: 3oag_LPQ_1_INTS_M
#    Modification time : Tue Mar 25 03:35:07 2014

@<TRIPOS>MOLECULE
3oag_LPQ_1_INTS_M
  116     0     6     0     0
SMALL
NO_CHARGES


@<TRIPOS>ATOM
      1 CA         23.4640   -7.5445    1.9720 C.3       2 GLC5        0.0000 
      2 CA         24.5230   -6.0440    2.9490 C.3       6 GLL5        0.0000 
      3 CA         22.4050   -9.0450    0.9950 C.3       4 GLP5        0.0000 
      4 CA         22.7765   -7.5890    4.9655 C.3       2 GLC5        0.0000 
      5 CA         24.1430   -6.3550    4.4020 C.3       6 GLL5        0.0000 
      6 CA         21.4100   -8.8230    5.5290 C.3       4 GLP5        0.0000 
      7 OD1        24.8890   -8.5755    5.2250 O.co2     1 ASC3        0.0000 
      8 OD1        25.1640   -7.0420    5.1710 O.co2     5 ASL3        0.0000 
      9 OD1        24.6140  -10.1090    5.2790 O.co2     3 ASP3        0.0000 
     10 OD1        25.0560   -8.2030    4.2085 O.co2     1 ASC3        0.0000 
     11 OD1        24.9480   -9.3640    3.2460 O.co2     3 ASP3        0.0000 
     12 OD1        24.8020   -7.9135    6.3940 O.co2     1 ASC3        0.0000 
     13 OD1        24.4400   -8.7850    7.6170 O.co2     3 ASP3        0.0000 
     14 OD1        24.4040   -6.8990    6.3725 O.co2     1 ASC3        0.0000 
     15 OD1        23.6440   -6.7560    7.5740 O.co2     3 ASP3        0.0000 
     16 CA         26.9565   -8.4575    5.9655 C.3       2 GLC5        0.0000 
     17 CA         26.5340   -6.5420    5.0810 C.3       6 GLL5        0.0000 
     18 CA         27.3790  -10.3730    6.8500 C.3       4 GLP5        0.0000 
     19 CA         24.1445   -8.0045    0.7550 C.3       2 GLC5        0.0000 
     20 CA         25.8840   -6.9640    0.5150 C.3       6 GLL5        0.0000 
     21 CA         26.3470   -8.8425   -3.9320 C.3       2 GLC5        0.0000 
     22 CA         27.5980   -7.6750   -3.3600 C.3       6 GLL5        0.0000 
     23 CA         25.0960  -10.0100   -4.5040 C.3       4 GLP5        0.0000 
     24 CA         26.3775   -5.9060   -3.2465 C.3       2 GLC5        0.0000 
     25 CA         25.1570   -4.1370   -3.1330 C.3       4 GLP5        0.0000 
     26 CA         27.9840   -9.4390   -4.9565 C.3       2 GLC5        0.0000 
     27 CA         28.8810   -7.9000   -4.1510 C.3       6 GLL5        0.0000 
     28 CA         27.0870  -10.9780   -5.7620 C.3       4 GLP5        0.0000 
     29 CA         28.4225   -6.5025   -5.6250 C.3       2 GLC5        0.0000 
     30 CA         27.9640   -5.1050   -7.0990 C.3       4 GLP5        0.0000 
     31 CA         30.4295   -7.1670   -5.1065 C.3       2 GLC5        0.0000 
     32 CA         31.9780   -6.4340   -6.0620 C.3       4 GLP5        0.0000 
     33 CA         30.0385   -6.4865   -3.3175 C.3       2 GLC5        0.0000 
     34 CA         31.1960   -5.0730   -2.4840 C.3       4 GLP5        0.0000 
     35 CA         29.0310  -10.0895   -2.7415 C.3       2 GLC5        0.0000 
     36 CA         30.8190   -9.2030   -3.5710 C.3       6 GLL5        0.0000 
     37 CA         27.2430  -10.9760   -1.9120 C.3       4 GLP5        0.0000 
     38 CA         33.6895  -10.6420   -6.2295 C.3       2 GLC5        0.0000 
     39 CA         33.0180   -9.5310   -4.5060 C.3       6 GLL5        0.0000 
     40 CA         34.3610  -11.7530   -7.9530 C.3       4 GLP5        0.0000 
     41 CA         34.5280   -8.9465   -0.9130 C.3       2 GLC5        0.0000 
     42 CA         32.7690   -9.0080   -2.1660 C.3       6 GLL5        0.0000 
     43 CA         36.2870   -8.8850    0.3400 C.3       4 GLP5        0.0000 
     44 CA         28.9685  -10.3945   -5.9825 C.3       2 GLC5        0.0000 
     45 CA         30.8500   -9.8110   -6.2030 C.3       6 GLL5        0.0000 
     46 CA         30.5850  -11.6365   -6.8965 C.3       2 GLC5        0.0000 
     47 CA         30.3200  -13.4620   -7.5900 C.3       4 GLP5        0.0000 
     48 CA         32.0360  -11.2320   -6.9195 C.3       2 GLC5        0.0000 
     49 CA         33.2220  -12.6530   -7.6360 C.3       4 GLP5        0.0000 
     50 CA         29.9420   -9.1825   -7.5320 C.3       2 GLC5        0.0000 
     51 CA         29.0340   -8.5540   -8.8610 C.3       4 GLP5        0.0000 
     52 CA         31.4140   -8.1225   -6.1325 C.3       2 GLC5        0.0000 
     53 CA         31.1385  -11.4760   -4.7365 C.3       2 GLC5        0.0000 
     54 CA         31.4270  -13.1410   -3.2700 C.3       4 GLP5        0.0000 
     55 CA         30.7615   -6.8335   -1.7190 C.3       2 GLC5        0.0000 
     56 CA         30.3270   -8.5940   -0.9540 C.3       6 GLL5        0.0000 
     57 CA         31.6460   -9.7515   -0.0565 C.3       2 GLC5        0.0000 
     58 CA         32.9650  -10.9090    0.8410 C.3       4 GLP5        0.0000 
     59 CA         28.7850   -9.7850   -1.4330 C.3       2 GLC5        0.0000 
     60 CA         36.6525   -9.3060   -3.3635 C.3       2 GLC5        0.0000 
     61 CA         35.0700   -9.3470   -3.0830 C.3       6 GLL5        0.0000 
     62 CA         38.2350   -9.2650   -3.6440 C.3       4 GLP5        0.0000 
     63 CA         34.9690   -7.1100   -3.2415 C.3       2 GLC5        0.0000 
     64 CA         34.8680   -4.8730   -3.4000 C.3       4 GLP5        0.0000 
     65 CA         35.6785   -9.1160   -1.3715 C.3       2 GLC5        0.0000 
     66 CA         35.1335  -11.4635   -3.3370 C.3       2 GLC5        0.0000 
     67 CA         35.1970  -13.5800   -3.5910 C.3       4 GLP5        0.0000 
     68 CA         35.0865   -8.2415    5.3450 C.3       2 GLC5        0.0000 
     69 CA         34.0690   -6.6940    4.4470 C.3       6 GLL5        0.0000 
     70 CA         36.1040   -9.7890    6.2430 C.3       4 GLP5        0.0000 
     71 CA         34.4550   -4.4190    2.4010 C.3       2 GLC5        0.0000 
     72 CA         34.1610   -6.4870    3.0730 C.3       6 GLL5        0.0000 
     73 CA         34.7490   -2.3510    1.7290 C.3       4 GLP5        0.0000 
     74 CA         35.2240   -7.6860    1.7065 C.3       2 GLC5        0.0000 
     75 CA         32.8445   -5.8035   -1.0830 C.3       2 GLC5        0.0000 
     76 CA         33.1700   -6.1840    0.5440 C.3       6 GLL5        0.0000 
     77 CA         32.5190   -5.4230   -2.7100 C.3       4 GLP5        0.0000 
     78 CA         34.7285   -7.5345    0.4420 C.3       2 GLC5        0.0000 
     79 CA         33.2935   -8.2070    1.2520 C.3       2 GLC5        0.0000 
     80 CA         33.4170  -10.2300    1.9600 C.3       4 GLP5        0.0000 
     81 CA         34.4065   -8.4325    6.3795 C.3       2 GLC5        0.0000 
     82 CA         32.7090   -7.0760    6.5160 C.3       6 GLL5        0.0000 
     83 CA         32.7115   -6.9240    8.6265 C.3       2 GLC5        0.0000 
     84 CA         32.7140   -6.7720   10.7370 C.3       4 GLP5        0.0000 
     85 CA         28.8880  -10.9455    3.8460 C.3       2 GLC5        0.0000 
     86 CA         28.5070   -9.2610    3.0980 C.3       6 GLL5        0.0000 
     87 CA         29.2690  -12.6300    4.5940 C.3       4 GLP5        0.0000 
     88 CA         26.8845  -10.4935    3.3645 C.3       2 GLC5        0.0000 
     89 CA         25.2620  -11.7260    3.6310 C.3       4 GLP5        0.0000 
     90 CA         27.5470  -10.6060    1.6935 C.3       2 GLC5        0.0000 
     91 CA         26.5870  -11.9510    0.2890 C.3       4 GLP5        0.0000 
     92 CA         27.9430   -9.8170    4.9740 C.3       2 GLC5        0.0000 
     93 CA         30.0250  -11.1940    2.9125 C.3       2 GLC5        0.0000 
     94 CA         29.8030   -9.3240    2.3130 C.3       6 GLL5        0.0000 
     95 CA         30.2470  -13.0640    3.5120 C.3       4 GLP5        0.0000 
     96 CA         31.6100   -9.7770    2.1365 C.3       2 GLC5        0.0000 
     97 CA         28.7575  -10.5655    0.7890 C.3       2 GLC5        0.0000 
     98 CA         27.7120  -11.8070   -0.7350 C.3       4 GLP5        0.0000 
     99 CA         31.7055   -3.7235   10.2460 C.3       2 GLC5        0.0000 
    100 CA         30.9260   -4.4060    8.2910 C.3       6 GLL5        0.0000 
    101 CA         32.4850   -3.0410   12.2010 C.3       4 GLP5        0.0000 
    102 CA         26.3443   -4.9787   -2.0300 C.3       2 GLC5        0.0000 
    103 CA         27.8080   -5.3070   -0.5490 C.3       6 GLL5        0.0000 
    104 CA         27.7412   -9.3818   -2.8338 C.3       2 GLC5        0.0000 
    105 CA         31.6020   -7.8902   -5.0850 C.3       2 GLC5        0.0000 
    106 CA         31.3265  -11.2438   -3.6890 C.3       2 GLC5        0.0000 
    107 CA         31.6330   -9.4900   -4.6450 C.3       6 GLL5        0.0000 
    108 CA         32.6382   -7.9238   -4.9715 C.3       2 GLC5        0.0000 
    109 CA         32.3627  -11.2772   -3.5755 C.3       2 GLC5        0.0000 
    110 CA         31.7533  -11.0628   -2.7600 C.3       2 GLC5        0.0000 
    111 CA         33.2065   -4.2550    1.3533 C.3       2 GLC5        0.0000 
    112 CA         33.3280   -2.1920    1.2800 C.3       4 GLP5        0.0000 
    113 CA         29.4065   -6.1655    8.4675 C.3       2 GLC5        0.0000 
    114 CA         28.2370   -7.4690    9.1470 C.3       4 GLP5        0.0000 
    115 CA         31.7315   -5.8631    9.0985 C.3       2 GLC5        0.0000 
    116 CA         30.2260   -5.3180    7.2850 C.3       6 GLL5        0.0000 
@<TRIPOS>BOND
@<TRIPOS>SUBSTRUCTURE
     1 ASC3        7 GROUP        1 X    ASC  0     ROOT ASC X 3
     2 GLC5        1 GROUP        1 X    GLC  0     **** GLC X 6
     3 ASP3        9 GROUP        1 Y    ASP  0     ROOT ASP Y 10
     4 GLP5        3 GROUP        1 Y    GLP  0     **** GLP Y 13
     5 ASL3        8 GROUP        1 Z    ASL  0     ROOT ASL Z 17
     6 GLL5        2 GROUP        1 Z    GLL  0     **** GLL Z 20
@<TRIPOS>SET

