#    Name: 3oag_LPQ_1_ligand
#    Modification time : Tue Mar 25 03:35:07 2014

@<TRIPOS>MOLECULE
3oag_LPQ_1_ligand
   81    86     1     0     0
SMALL
NO_CHARGES


@<TRIPOS>ATOM
      1 C1         24.5230   -6.0440    2.9490 C.3       1 LPQ167      0.0000 
      2 C2         24.1430   -6.3550    4.4020 C.3       1 LPQ167      0.0000 
      3 N3         25.1640   -7.0420    5.1710 N.4       1 LPQ167      0.0000 
      4 C4         26.5340   -6.5420    5.0810 C.3       1 LPQ167      0.0000 
      5 C5         26.9580   -6.5630    3.6080 C.3       1 LPQ167      0.0000 
      6 C6         26.0030   -5.7140    2.7330 C.3       1 LPQ167      0.0000 
      7 C7         26.4060   -5.9330    1.3080 C.ar      1 LPQ167      0.0000 
      8 C8         25.8840   -6.9640    0.5150 C.ar      1 LPQ167      0.0000 
      9 N9         26.2980   -7.1330   -0.7570 N.ar      1 LPQ167      0.0000 
     10 C10        27.2550   -6.3340   -1.3050 C.ar      1 LPQ167      0.0000 
     11 C11        27.8080   -5.3070   -0.5490 C.ar      1 LPQ167      0.0000 
     12 C12        27.3860   -5.1070    0.7580 C.ar      1 LPQ167      0.0000 
     13 O13        27.7150   -6.4780   -2.5960 O.3       1 LPQ167      0.0000 
     14 C14        27.5980   -7.6750   -3.3600 C.3       1 LPQ167      0.0000 
     15 C15        28.3770   -6.1370    3.2840 C.2       1 LPQ167      0.0000 
     16 O16        28.7510   -5.0350    3.6700 O.2       1 LPQ167      0.0000 
     17 N17        29.1760   -6.9380    2.5360 N.am      1 LPQ167      0.0000 
     18 C18        28.8810   -7.9000   -4.1510 C.3       1 LPQ167      0.0000 
     19 O19        29.4640   -9.1500   -3.7520 O.3       1 LPQ167      0.0000 
     20 C20        30.8190   -9.2030   -3.5710 C.ar      1 LPQ167      0.0000 
     21 C21        31.6330   -9.4900   -4.6450 C.ar      1 LPQ167      0.0000 
     22 C22        33.0180   -9.5310   -4.5060 C.ar      1 LPQ167      0.0000 
     23 C23        33.5790   -9.2960   -3.2560 C.ar      1 LPQ167      0.0000 
     24 C24        32.7690   -9.0080   -2.1660 C.ar      1 LPQ167      0.0000 
     25 C25        31.3900   -8.9610   -2.3340 C.ar      1 LPQ167      0.0000 
     26 CL26       30.8500   -9.8110   -6.2030 Cl        1 LPQ167      0.0000 
     27 CL27       30.3270   -8.5940   -0.9540 Cl        1 LPQ167      0.0000 
     28 C28        35.0700   -9.3470   -3.0830 C.3       1 LPQ167      0.0000 
     29 C29        30.5130   -6.5740    2.0410 C.3       1 LPQ167      0.0000 
     30 C30        28.7560   -8.2480    1.9840 C.3       1 LPQ167      0.0000 
     31 C31        31.7500   -6.6210    2.9030 C.ar      1 LPQ167      0.0000 
     32 C32        31.6620   -6.8330    4.2670 C.ar      1 LPQ167      0.0000 
     33 C33        32.8200   -6.8680    5.0310 C.ar      1 LPQ167      0.0000 
     34 C34        34.0690   -6.6940    4.4470 C.ar      1 LPQ167      0.0000 
     35 C35        34.1610   -6.4870    3.0730 C.ar      1 LPQ167      0.0000 
     36 C36        33.0000   -6.4520    2.3090 C.ar      1 LPQ167      0.0000 
     37 CL37       33.1700   -6.1840    0.5440 Cl        1 LPQ167      0.0000 
     38 C38        32.7090   -7.0760    6.5160 C.3       1 LPQ167      0.0000 
     39 N39        32.6750   -5.7730    7.1880 N.4       1 LPQ167      0.0000 
     40 C40        28.5070   -9.2610    3.0980 C.3       1 LPQ167      0.0000 
     41 C41        29.8030   -9.3240    2.3130 C.3       1 LPQ167      0.0000 
     42 C42        31.6180   -4.7750    6.9790 C.3       1 LPQ167      0.0000 
     43 C43        30.9260   -4.4060    8.2910 C.3       1 LPQ167      0.0000 
     44 C44        30.2260   -5.3180    7.2850 C.3       1 LPQ167      0.0000 
     45 H          23.9129   -5.1938    2.5965 H         1 LPQ167      0.0000 
     46 H          24.2550   -6.9101    2.3186 H         1 LPQ167      0.0000 
     47 H          23.2001   -6.9506    4.3799 H         1 LPQ167      0.0000 
     48 H          23.8673   -5.3898    4.8884 H         1 LPQ167      0.0000 
     49 H          27.2189   -7.1701    5.6419 H         1 LPQ167      0.0000 
     50 H          26.6037   -5.5205    5.4413 H         1 LPQ167      0.0000 
     51 H          26.8335   -7.6090    3.2325 H         1 LPQ167      0.0000 
     52 H          26.1754   -4.6704    2.9815 H         1 LPQ167      0.0000 
     53 H          25.1707   -7.5930    0.9338 H         1 LPQ167      0.0000 
     54 H          28.5276   -4.6976   -0.9577 H         1 LPQ167      0.0000 
     55 H          27.7937   -4.3512    1.3229 H         1 LPQ167      0.0000 
     56 H          26.7685   -7.6231   -4.0741 H         1 LPQ167      0.0000 
     57 H          27.4392   -8.5516   -2.7220 H         1 LPQ167      0.0000 
     58 H          29.5525   -7.0613   -3.9525 H         1 LPQ167      0.0000 
     59 H          28.6286   -7.8949   -5.2140 H         1 LPQ167      0.0000 
     60 H          33.6127   -9.7311   -5.3123 H         1 LPQ167      0.0000 
     61 H          33.1831   -8.8315   -1.2456 H         1 LPQ167      0.0000 
     62 H          30.4581   -5.5165    1.5856 H         1 LPQ167      0.0000 
     63 H          30.7347   -7.1972    1.0969 H         1 LPQ167      0.0000 
     64 H          28.3072   -8.4838    1.2487 H         1 LPQ167      0.0000 
     65 H          30.7464   -6.9639    4.7136 H         1 LPQ167      0.0000 
     66 H          34.9168   -6.7176    5.0221 H         1 LPQ167      0.0000 
     67 H          35.0756   -6.3619    2.6305 H         1 LPQ167      0.0000 
     68 H          33.5656   -7.6608    6.8583 H         1 LPQ167      0.0000 
     69 H          31.7984   -7.6402    6.7291 H         1 LPQ167      0.0000 
     70 H          27.9252   -9.9260    2.7560 H         1 LPQ167      0.0000 
     71 H          28.6851   -8.8299    3.9226 H         1 LPQ167      0.0000 
     72 H          30.4770   -8.9088    2.8296 H         1 LPQ167      0.0000 
     73 H          29.7171  -10.0050    1.6630 H         1 LPQ167      0.0000 
     74 H          31.5444   -4.0731    6.4020 H         1 LPQ167      0.0000 
     75 H          30.5654   -3.5388    8.1879 H         1 LPQ167      0.0000 
     76 H          31.2896   -4.9554    8.9682 H         1 LPQ167      0.0000 
     77 H          30.3260   -6.2076    7.5892 H         1 LPQ167      0.0000 
     78 H          29.6019   -4.7910    6.8088 H         1 LPQ167      0.0000 
     79 H          35.4409  -10.2448   -3.3204 H         1 LPQ167      0.0000 
     80 H          35.5341   -8.6759   -3.6611 H         1 LPQ167      0.0000 
     81 H          35.3410   -9.1581   -2.1391 H         1 LPQ167      0.0000 
@<TRIPOS>BOND
     1    2    1 1    
     2    6    1 1    
     3   45    1 1    
     4   46    1 1    
     5    3    2 1    
     6   47    2 1    
     7   48    2 1    
     8    4    3 1    
     9    5    4 1    
    10   49    4 1    
    11   50    4 1    
    12    6    5 1    
    13   15    5 1    
    14   51    5 1    
    15    7    6 1    
    16   52    6 1    
    17    8    7 ar   
    18   12    7 ar   
    19    9    8 ar   
    20   53    8 1    
    21   10    9 ar   
    22   11   10 ar   
    23   13   10 1    
    24   12   11 ar   
    25   54   11 1    
    26   55   12 1    
    27   14   13 1    
    28   18   14 1    
    29   56   14 1    
    30   57   14 1    
    31   16   15 2    
    32   17   15 am   
    33   29   17 1    
    34   30   17 1    
    35   19   18 1    
    36   58   18 1    
    37   59   18 1    
    38   20   19 1    
    39   21   20 ar   
    40   25   20 ar   
    41   22   21 ar   
    42   26   21 1    
    43   23   22 ar   
    44   60   22 1    
    45   24   23 ar   
    46   28   23 1    
    47   25   24 ar   
    48   61   24 1    
    49   27   25 1    
    50   79   28 1    
    51   80   28 1    
    52   81   28 1    
    53   31   29 1    
    54   62   29 1    
    55   63   29 1    
    56   40   30 1    
    57   41   30 1    
    58   64   30 1    
    59   32   31 ar   
    60   36   31 ar   
    61   33   32 ar   
    62   65   32 1    
    63   34   33 ar   
    64   38   33 1    
    65   35   34 ar   
    66   66   34 1    
    67   36   35 ar   
    68   67   35 1    
    69   37   36 1    
    70   39   38 1    
    71   68   38 1    
    72   69   38 1    
    73   42   39 1    
    74   41   40 1    
    75   70   40 1    
    76   71   40 1    
    77   72   41 1    
    78   73   41 1    
    79   43   42 1    
    80   44   42 1    
    81   74   42 1    
    82   44   43 1    
    83   75   43 1    
    84   76   43 1    
    85   77   44 1    
    86   78   44 1    
@<TRIPOS>SUBSTRUCTURE
     1 LPQ167      1 GROUP   
@<TRIPOS>SET

