#    Name: 3ta1_ADP_3_INTS_M
#    Modification time : Mon Mar 24 19:25:55 2014

@<TRIPOS>MOLECULE
3ta1_ADP_3_INTS_M
   74     0    12     0     0
SMALL
NO_CHARGES


@<TRIPOS>ATOM
      1 N          18.1085    9.2280  -33.1560 N.am      2 SEC2        0.0000 
      2 N          19.2160    7.9000  -32.9480 N.am     10 SEL2        0.0000 
      3 N          17.0010   10.5560  -33.3640 N.am      6 SEP2        0.0000 
      4 NZ         22.3175    8.6060  -30.5380 N.4       3 LYC4        0.0000 
      5 NZ         21.3790    8.6960  -31.7250 N.4      11 LYL4        0.0000 
      6 NZ         23.0630    7.2330  -29.0730 N.4       7 LYP4        0.0000 
      7 N          22.3555    9.4850  -32.4920 N.am      2 SEC2        0.0000 
      8 N          21.3790    8.6960  -31.7250 N.am     10 SEL2        0.0000 
      9 N          23.3320   10.2740  -33.2590 N.am      6 SEP2        0.0000 
     10 N          21.6440    7.6725  -30.5490 N.am      2 SEC2        0.0000 
     11 N          21.9090    6.6490  -29.3730 N.am      6 SEP2        0.0000 
     12 N          22.3175    8.6060  -30.5380 N.am      2 SEC2        0.0000 
     13 N          23.2560    8.5160  -29.3510 N.am      6 SEP2        0.0000 
     14 N          18.4420   10.3620  -33.1995 N.am      2 SEC2        0.0000 
     15 N          19.8830   10.1680  -33.0350 N.am     10 SEL2        0.0000 
     16 NZ         22.1250    9.5335  -29.4905 N.4       3 LYC4        0.0000 
     17 NZ         20.9940   10.5510  -29.6300 N.4      11 LYL4        0.0000 
     18 N          21.1490   12.0420  -29.7135 N.am      2 SEC2        0.0000 
     19 N          20.9940   10.5510  -29.6300 N.am     10 SEL2        0.0000 
     20 N          21.3040   13.5330  -29.7970 N.am      6 SEP2        0.0000 
     21 N          22.1250    9.5335  -29.4905 N.am      2 SEC2        0.0000 
     22 N          18.0235   10.0090  -32.1680 N.am      2 SEC2        0.0000 
     23 N          19.0460    9.4620  -30.9720 N.am     10 SEL2        0.0000 
     24 CA         16.7720    9.7260  -30.4660 C.3       4 GLC5        0.0000 
     25 CA         17.5420    9.0820  -28.6140 C.3      12 GLL5        0.0000 
     26 CA         16.0020   10.3700  -32.3180 C.3       8 GLP5        0.0000 
     27 CA         16.0455    7.2110  -25.9560 C.3       4 GLC5        0.0000 
     28 CA         17.2240    8.6910  -27.1540 C.3      12 GLL5        0.0000 
     29 CA         14.8670    5.7310  -24.7580 C.3       8 GLP5        0.0000 
     30 CA         15.2425    9.5775  -27.6230 C.3       4 GLC5        0.0000 
     31 CA         13.2610   10.4640  -28.0920 C.3       8 GLP5        0.0000 
     32 CA         17.6720   11.8310  -25.6490 C.3       4 GLC5        0.0000 
     33 CA         17.3910    9.8440  -26.1650 C.3      12 GLL5        0.0000 
     34 CA         17.9530   13.8180  -25.1330 C.3       8 GLP5        0.0000 
     35 CA         17.5330    8.2670  -22.7930 C.3       4 GLC5        0.0000 
     36 CA         17.7050    9.1640  -24.8320 C.3      12 GLL5        0.0000 
     37 CA         17.3610    7.3700  -20.7540 C.3       8 GLP5        0.0000 
     38 O          17.1030    7.9555  -23.1680 O.2       1 ALC1        0.0000 
     39 O          16.5010    8.6700  -24.2040 O.2       9 ALL1        0.0000 
     40 O          17.7050    7.2410  -22.1320 O.2       5 ALP1        0.0000 
     41 CA         19.6690    6.5660  -26.5410 C.3       4 GLC5        0.0000 
     42 CA         18.5300    7.9770  -25.3030 C.3      12 GLL5        0.0000 
     43 CA         20.8080    5.1550  -27.7790 C.3       8 GLP5        0.0000 
     44 CA         24.0485    5.8670  -22.8720 C.3       4 GLC5        0.0000 
     45 CA         23.1300    7.6640  -23.6790 C.3      12 GLL5        0.0000 
     46 CA         24.9670    4.0700  -22.0650 C.3       8 GLP5        0.0000 
     47 O          25.6465    7.1490  -23.3100 O.2       1 ALC1        0.0000 
     48 O          24.4820    7.7950  -23.9350 O.2       9 ALL1        0.0000 
     49 O          26.8110    6.5030  -22.6850 O.2       5 ALP1        0.0000 
     50 N          23.8025    6.6465  -21.5580 N.am      2 SEC2        0.0000 
     51 N          22.7470    7.1520  -22.4520 N.am     10 SEL2        0.0000 
     52 N          24.8580    6.1410  -20.6640 N.am      6 SEP2        0.0000 
     53 CA         21.0940    8.8175  -21.7205 C.3       4 GLC5        0.0000 
     54 CA         21.4320    6.9670  -22.1410 C.3      12 GLL5        0.0000 
     55 CA         20.7560   10.6680  -21.3000 C.3       8 GLP5        0.0000 
     56 CA         19.3965    7.1685  -21.4475 C.3       4 GLC5        0.0000 
     57 CA         22.6920    7.3530  -20.6225 C.3       4 GLC5        0.0000 
     58 CA         23.9520    7.7390  -19.1040 C.3       8 GLP5        0.0000 
     59 CA         22.6300    5.1780  -21.7240 C.3       4 GLC5        0.0000 
     60 CA         23.8280    3.3890  -21.3070 C.3       8 GLP5        0.0000 
     61 N          19.0415    7.2255  -22.5565 N.am      2 SEC2        0.0000 
     62 N          20.3780    7.2100  -22.9810 N.am     10 SEL2        0.0000 
     63 N          17.7050    7.2410  -22.1320 N.am      6 SEP2        0.0000 
     64 CA         17.1690    7.3003  -28.8785 C.3       4 GLC5        0.0000 
     65 CA         16.9550    5.7140  -29.8730 C.3       8 GLP5        0.0000 
     66 CA         16.5380   10.6380  -24.2933 C.3       4 GLC5        0.0000 
     67 CA         15.5280   11.7720  -23.0880 C.3       8 GLP5        0.0000 
     68 CA         16.4923    7.1508  -24.9128 C.3       4 GLC5        0.0000 
     69 CA         21.1220    6.5075  -26.0925 C.3       4 GLC5        0.0000 
     70 CA         20.7720    7.7320  -24.1930 C.3      12 GLL5        0.0000 
     71 CA         21.0960    9.2640  -22.8530 C.3       4 GLC5        0.0000 
     72 CA         22.1000    7.9880  -24.6190 C.3      12 GLL5        0.0000 
     73 CA         22.2767    9.7445  -24.2510 C.3       4 GLC5        0.0000 
     74 CA         22.8600   11.7100  -24.3310 C.3       8 GLP5        0.0000 
@<TRIPOS>BOND
@<TRIPOS>SUBSTRUCTURE
     1 ALC1       38 GROUP        1 X    ALC  0     ROOT ALC X 1
     2 SEC2        1 GROUP        1 X    SEC  0     **** SEC X 2
     3 LYC4        4 GROUP        1 X    LYC  0     **** LYC X 4
     4 GLC5       24 GROUP        1 X    GLC  0     **** GLC X 6
     5 ALP1       40 GROUP        1 Y    ALP  0     ROOT ALP Y 8
     6 SEP2        3 GROUP        1 Y    SEP  0     **** SEP Y 9
     7 LYP4        6 GROUP        1 Y    LYP  0     **** LYP Y 11
     8 GLP5       26 GROUP        1 Y    GLP  0     **** GLP Y 13
     9 ALL1       39 GROUP        1 Z    ALL  0     ROOT ALL Z 15
    10 SEL2        2 GROUP        1 Z    SEL  0     **** SEL Z 16
    11 LYL4        5 GROUP        1 Z    LYL  0     **** LYL Z 18
    12 GLL5       25 GROUP        1 Z    GLL  0     **** GLL Z 20
@<TRIPOS>SET

