#    Name: 3ta1_ADP_3_ligand
#    Modification time : Mon Mar 24 19:25:55 2014

@<TRIPOS>MOLECULE
3ta1_ADP_3_ligand
   39    41     1     0     0
SMALL
NO_CHARGES


@<TRIPOS>ATOM
      1 PB         19.9020    8.9660  -32.0890 P.3       1 ADP119      0.0000 
      2 O1B        19.2160    7.9000  -32.9480 O.co2     1 ADP119      0.0000 
      3 O2B        21.3790    8.6960  -31.7250 O.co2     1 ADP119      0.0000 
      4 O3B        19.8830   10.1680  -33.0350 O.co2     1 ADP119      0.0000 
      5 PA         19.4720   10.3750  -29.8310 P.3       1 ADP119      0.0000 
      6 O1A        20.9940   10.5510  -29.6300 O.co2     1 ADP119      0.0000 
      7 O2A        18.8160   11.7880  -29.8880 O.co2     1 ADP119      0.0000 
      8 O3A        19.0460    9.4620  -30.9720 O.3       1 ADP119      0.0000 
      9 O5'        18.8870    9.4950  -28.6280 O.3       1 ADP119      0.0000 
     10 C5'        17.5420    9.0820  -28.6140 C.3       1 ADP119      0.0000 
     11 C4'        17.2240    8.6910  -27.1540 C.3       1 ADP119      0.0000 
     12 O4'        18.1000    7.6380  -26.6840 O.3       1 ADP119      0.0000 
     13 C3'        17.3910    9.8440  -26.1650 C.3       1 ADP119      0.0000 
     14 O3'        16.2370   10.6510  -26.1060 O.3       1 ADP119      0.0000 
     15 C2'        17.7050    9.1640  -24.8320 C.3       1 ADP119      0.0000 
     16 O2'        16.5010    8.6700  -24.2040 O.3       1 ADP119      0.0000 
     17 C1'        18.5300    7.9770  -25.3030 C.3       1 ADP119      0.0000 
     18 N9         19.9840    8.1050  -25.2560 N.pl3     1 ADP119      0.0000 
     19 C8         20.8170    8.5660  -26.2650 C.2       1 ADP119      0.0000 
     20 N7         22.0970    8.4950  -25.9010 N.2       1 ADP119      0.0000 
     21 C5         22.1000    7.9880  -24.6190 C.ar      1 ADP119      0.0000 
     22 C6         23.1300    7.6640  -23.6790 C.ar      1 ADP119      0.0000 
     23 N6         24.4820    7.7950  -23.9350 N.pl3     1 ADP119      0.0000 
     24 N1         22.7470    7.1520  -22.4520 N.ar      1 ADP119      0.0000 
     25 C2         21.4320    6.9670  -22.1410 C.ar      1 ADP119      0.0000 
     26 N3         20.3780    7.2100  -22.9810 N.ar      1 ADP119      0.0000 
     27 C4         20.7720    7.7320  -24.1930 C.ar      1 ADP119      0.0000 
     28 H          17.3626    8.2077  -29.2283 H         1 ADP119      0.0000 
     29 H          16.8550    9.8720  -28.8931 H         1 ADP119      0.0000 
     30 H          16.1928    8.3575  -27.1002 H         1 ADP119      0.0000 
     31 H          18.2761   10.3883  -26.4621 H         1 ADP119      0.0000 
     32 H          18.2880    9.7815  -24.2501 H         1 ADP119      0.0000 
     33 H          18.2239    7.1053  -24.6698 H         1 ADP119      0.0000 
     34 H          20.4788    8.8950  -27.1233 H         1 ADP119      0.0000 
     35 H          25.0987    7.4941  -23.2076 H         1 ADP119      0.0000 
     36 H          24.7260    8.1793  -24.8254 H         1 ADP119      0.0000 
     37 H          21.2021    6.6012  -21.1584 H         1 ADP119      0.0000 
     38 H          15.7393   10.3321  -25.2993 H         1 ADP119      0.0000 
     39 H          16.8194    8.1063  -23.4418 H         1 ADP119      0.0000 
@<TRIPOS>BOND
     1    2    1 ar   
     2    3    1 ar   
     3    4    1 ar   
     4    8    1 1    
     5    6    5 ar   
     6    7    5 ar   
     7    8    5 1    
     8    9    5 1    
     9   10    9 1    
    10   11   10 1    
    11   28   10 1    
    12   29   10 1    
    13   12   11 1    
    14   13   11 1    
    15   30   11 1    
    16   17   12 1    
    17   14   13 1    
    18   15   13 1    
    19   31   13 1    
    20   38   14 1    
    21   16   15 1    
    22   17   15 1    
    23   32   15 1    
    24   39   16 1    
    25   18   17 1    
    26   33   17 1    
    27   19   18 1    
    28   27   18 1    
    29   20   19 2    
    30   34   19 1    
    31   21   20 1    
    32   22   21 ar   
    33   27   21 ar   
    34   23   22 1    
    35   24   22 ar   
    36   35   23 1    
    37   36   23 1    
    38   25   24 ar   
    39   26   25 ar   
    40   37   25 1    
    41   27   26 ar   
@<TRIPOS>SUBSTRUCTURE
     1 ADP119      1 GROUP   
@<TRIPOS>SET

