#    Name: 3bhy_7CP_1_INTS_M
#    Modification time : Mon Mar 24 19:35:28 2014

@<TRIPOS>MOLECULE
3bhy_7CP_1_INTS_M
   52     0     6     0     0
SMALL
NO_CHARGES


@<TRIPOS>ATOM
      1 CA         16.2275   19.6615   30.1685 C.3       2 GLC5        0.0000 
      2 CA         14.7410   19.5280   31.1480 C.3       6 GLL5        0.0000 
      3 CA         17.7140   19.7950   29.1890 C.3       4 GLP5        0.0000 
      4 CA         14.4905   16.1200   31.7585 C.3       2 GLC5        0.0000 
      5 CA         14.2070   18.2000   31.6700 C.3       6 GLL5        0.0000 
      6 CA         14.7740   14.0400   31.8470 C.3       4 GLP5        0.0000 
      7 OD1        14.9550   19.8205   33.1940 O.co2     1 ASC3        0.0000 
      8 OD1        13.6640   18.3310   33.0280 O.co2     5 ASL3        0.0000 
      9 OD1        16.2460   21.3100   33.3600 O.co2     3 ASP3        0.0000 
     10 CA         15.5120   16.6515   34.9085 C.3       2 GLC5        0.0000 
     11 CA         14.7860   18.4880   33.9770 C.3       6 GLL5        0.0000 
     12 CA         16.2380   14.8150   35.8400 C.3       4 GLP5        0.0000 
     13 CA         11.8405   22.0545   24.9545 C.3       2 GLC5        0.0000 
     14 CA         13.1890   20.8480   26.0210 C.3       6 GLL5        0.0000 
     15 CA         10.4920   23.2610   23.8880 C.3       4 GLP5        0.0000 
     16 CA         14.6050   19.8055   25.0320 C.3       2 GLC5        0.0000 
     17 CA         16.0210   18.7630   24.0430 C.3       4 GLP5        0.0000 
     18 CA         13.8115   23.3365   23.4555 C.3       2 GLC5        0.0000 
     19 CA         15.4080   22.2130   24.4100 C.3       6 GLL5        0.0000 
     20 CA         12.2150   24.4600   22.5010 C.3       4 GLP5        0.0000 
     21 CA         15.6540   24.4195   24.2105 C.3       2 GLC5        0.0000 
     22 CA         15.9000   26.6260   24.0110 C.3       4 GLP5        0.0000 
     23 CA         18.6660   22.0355   27.0600 C.3       2 GLC5        0.0000 
     24 CA         16.9550   23.3410   26.4340 C.3       6 GLL5        0.0000 
     25 CA         20.3770   20.7300   27.6860 C.3       4 GLP5        0.0000 
     26 CA         20.0150   23.5915   24.9560 C.3       2 GLC5        0.0000 
     27 CA         18.1510   23.9910   25.3680 C.3       6 GLL5        0.0000 
     28 CA         21.8790   23.1920   24.5440 C.3       4 GLP5        0.0000 
     29 CA         18.8575   25.8840   25.8190 C.3       2 GLC5        0.0000 
     30 CA         19.5640   27.7770   26.2700 C.3       4 GLP5        0.0000 
     31 CA         17.9570   25.3705   28.1195 C.3       2 GLC5        0.0000 
     32 CA         17.2550   23.6190   27.7540 C.3       6 GLL5        0.0000 
     33 CA         18.6590   27.1220   28.4850 C.3       4 GLP5        0.0000 
     34 CA         14.6995   24.6495   32.2110 C.3       2 GLC5        0.0000 
     35 CA         13.5940   23.0760   31.2160 C.3       6 GLL5        0.0000 
     36 CA         15.8050   26.2230   33.2060 C.3       4 GLP5        0.0000 
     37 CA         13.4010   23.4080   28.9008 C.3       2 GLC5        0.0000 
     38 CA         14.4320   21.8970   29.2500 C.3       6 GLL5        0.0000 
     39 CA         12.8280   25.2530   28.9510 C.3       4 GLP5        0.0000 
     40 CA         14.2065   24.0040   26.5502 C.3       2 GLC5        0.0000 
     41 CA         15.0220   22.1130   27.1090 C.3       6 GLL5        0.0000 
     42 CA         13.0010   25.6510   26.5190 C.3       4 GLP5        0.0000 
     43 CA         16.4515   21.0368   28.4745 C.3       2 GLC5        0.0000 
     44 CA         15.8130   20.5850   24.6375 C.3       2 GLC5        0.0000 
     45 CA         15.8020   22.6010   26.0540 C.3       6 GLL5        0.0000 
     46 CA         16.7265   25.1460   24.9560 C.3       2 GLC5        0.0000 
     47 CA         17.2830   21.5983   28.7222 C.3       2 GLC5        0.0000 
     48 CA         14.3652   24.0335   28.7675 C.3       2 GLC5        0.0000 
     49 CA         16.4490   23.1840   28.7570 C.3       6 GLL5        0.0000 
     50 CA         13.4087   23.8785   29.9725 C.3       2 GLC5        0.0000 
     51 CA         15.9467   20.7713   29.5001 C.3       2 GLC5        0.0000 
     52 CA         14.3850   21.9320   30.7720 C.3       6 GLL5        0.0000 
@<TRIPOS>BOND
@<TRIPOS>SUBSTRUCTURE
     1 ASC3        7 GROUP        1 X    ASC  0     ROOT ASC X 3
     2 GLC5        1 GROUP        1 X    GLC  0     **** GLC X 6
     3 ASP3        9 GROUP        1 Y    ASP  0     ROOT ASP Y 10
     4 GLP5        3 GROUP        1 Y    GLP  0     **** GLP Y 13
     5 ASL3        8 GROUP        1 Z    ASL  0     ROOT ASL Z 17
     6 GLL5        2 GROUP        1 Z    GLL  0     **** GLL Z 20
@<TRIPOS>SET

