#    Name: 3bhy_7CP_1_ligand
#    Modification time : Mon Mar 24 19:35:28 2014

@<TRIPOS>MOLECULE
3bhy_7CP_1_ligand
   44    47     1     0     0
SMALL
NO_CHARGES


@<TRIPOS>ATOM
      1 C1L        14.7410   19.5280   31.1480 C.3       1 7CP600      0.0000 
      2 C1J        14.2070   18.2000   31.6700 C.3       1 7CP600      0.0000 
      3 N1W        13.6640   18.3310   33.0280 N.4       1 7CP600      0.0000 
      4 C1A        14.7860   18.4880   33.9770 C.3       1 7CP600      0.0000 
      5 C1K        12.6820   19.4280   33.1500 C.3       1 7CP600      0.0000 
      6 C1M        13.2650   20.7660   32.6980 C.3       1 7CP600      0.0000 
      7 C1Y        13.7230   20.6730   31.2500 C.3       1 7CP600      0.0000 
      8 N1N        12.5600   20.3020   30.4190 N.am      1 7CP600      0.0000 
      9 C1O        12.4540   20.5720   29.0730 C.2       1 7CP600      0.0000 
     10 O1D        11.4490   20.1760   28.4860 O.2       1 7CP600      0.0000 
     11 C1R        13.5160   21.2290   28.4510 C.2       1 7CP600      0.0000 
     12 N1X        13.8900   21.4110   27.1780 N.pl3     1 7CP600      0.0000 
     13 C1B        13.1890   20.8480   26.0210 C.3       1 7CP600      0.0000 
     14 C1U        15.0220   22.1130   27.1090 C.ar      1 7CP600      0.0000 
     15 C1Q        15.8020   22.6010   26.0540 C.ar      1 7CP600      0.0000 
     16 CL1F       15.4080   22.2130   24.4100 Cl        1 7CP600      0.0000 
     17 C1P        16.9550   23.3410   26.4340 C.ar      1 7CP600      0.0000 
     18 CL1E       18.1510   23.9910   25.3680 Cl        1 7CP600      0.0000 
     19 C1H        17.2550   23.6190   27.7540 C.ar      1 7CP600      0.0000 
     20 C1I        16.4490   23.1840   28.7570 C.ar      1 7CP600      0.0000 
     21 C1T        15.3560   22.4440   28.4110 C.ar      1 7CP600      0.0000 
     22 C1S        14.4320   21.8970   29.2500 C.2       1 7CP600      0.0000 
     23 C1V        14.3850   21.9320   30.7720 C.3       1 7CP600      0.0000 
     24 C1G        13.5940   23.0760   31.2160 C.1       1 7CP600      0.0000 
     25 N1C        12.9920   23.9620   31.6290 N.1       1 7CP600      0.0000 
     26 H          15.0366   19.4108   30.0961 H         1 7CP600      0.0000 
     27 H          15.6411   19.8040   31.7148 H         1 7CP600      0.0000 
     28 H          15.0261   17.4669   31.6515 H         1 7CP600      0.0000 
     29 H          13.4312   17.8433   30.9774 H         1 7CP600      0.0000 
     30 H          13.1527   17.3780   33.2801 H         1 7CP600      0.0000 
     31 H          12.3504   19.5299   34.1927 H         1 7CP600      0.0000 
     32 H          11.7929   19.2147   32.5404 H         1 7CP600      0.0000 
     33 H          14.1111   21.0195   33.3301 H         1 7CP600      0.0000 
     34 H          12.5049   21.5365   32.7889 H         1 7CP600      0.0000 
     35 H          11.7883   19.8037   30.9220 H         1 7CP600      0.0000 
     36 H          18.1113   24.1691   27.9714 H         1 7CP600      0.0000 
     37 H          16.6508   23.4009   29.7340 H         1 7CP600      0.0000 
     38 H          15.3776   21.9775   31.1498 H         1 7CP600      0.0000 
     39 H          15.4042   17.7023   33.9545 H         1 7CP600      0.0000 
     40 H          15.3347   19.2986   33.7725 H         1 7CP600      0.0000 
     41 H          14.4650   18.5815   34.9194 H         1 7CP600      0.0000 
     42 H          13.6292   21.1027   25.1600 H         1 7CP600      0.0000 
     43 H          13.1631   19.8488   26.0526 H         1 7CP600      0.0000 
     44 H          12.2417   21.1644   25.9707 H         1 7CP600      0.0000 
@<TRIPOS>BOND
     1    2    1 1    
     2    7    1 1    
     3   26    1 1    
     4   27    1 1    
     5    3    2 1    
     6   28    2 1    
     7   29    2 1    
     8    4    3 1    
     9    5    3 1    
    10   30    3 1    
    11   39    4 1    
    12   40    4 1    
    13   41    4 1    
    14    6    5 1    
    15   31    5 1    
    16   32    5 1    
    17    7    6 1    
    18   33    6 1    
    19   34    6 1    
    20    8    7 1    
    21   23    7 1    
    22    9    8 am   
    23   35    8 1    
    24   10    9 2    
    25   11    9 1    
    26   12   11 1    
    27   22   11 2    
    28   13   12 1    
    29   14   12 1    
    30   42   13 1    
    31   43   13 1    
    32   44   13 1    
    33   15   14 ar   
    34   21   14 ar   
    35   16   15 1    
    36   17   15 ar   
    37   18   17 1    
    38   19   17 ar   
    39   20   19 ar   
    40   36   19 1    
    41   21   20 ar   
    42   37   20 1    
    43   22   21 1    
    44   23   22 1    
    45   24   23 1    
    46   38   23 1    
    47   25   24 3    
@<TRIPOS>SUBSTRUCTURE
     1 7CP600      1 GROUP   
@<TRIPOS>SET

