#    Name: 1q24_ATP_1_INTS_M
#    Modification time : Mon Mar 24 22:48:38 2014

@<TRIPOS>MOLECULE
1q24_ATP_1_INTS_M
   87     0    15     0     0
SMALL
NO_CHARGES


@<TRIPOS>ATOM
      1 NZ         15.9650    5.7255    0.2370 N.4       3 LYC4        0.0000 
      2 NZ         15.2570    7.0170    0.1550 N.4      13 LYL4        0.0000 
      3 NZ         16.6730    4.4340    0.3190 N.4       8 LYP4        0.0000 
      4 N          15.9650    5.7255    0.2370 N.am      2 SEC2        0.0000 
      5 N          15.2570    7.0170    0.1550 N.am     12 SEL2        0.0000 
      6 N          16.6730    4.4340    0.3190 N.am      7 SEP2        0.0000 
      7 N          17.8260    9.8825    0.4815 N.am      2 SEC2        0.0000 
      8 N          17.3200    8.4330    0.2930 N.am     12 SEL2        0.0000 
      9 N          18.3320   11.3320    0.6700 N.am      7 SEP2        0.0000 
     10 N          18.5660    7.4325    0.0620 N.am      2 SEC2        0.0000 
     11 N          19.8120    6.4320   -0.1690 N.am      7 SEP2        0.0000 
     12 Zn         15.3700    7.8805   -2.7975 Zn        4 ZIC7        0.0000 
     13 Zn         16.1650    8.0810   -1.9020 Zn       14 ZIL7        0.0000 
     14 Zn         14.5750    7.6800   -3.6930 Zn        9 ZIP7        0.0000 
     15 N          16.4625   12.3685   -1.2730 N.am      2 SEC2        0.0000 
     16 N          14.9670   11.6790   -1.1620 N.am     12 SEL2        0.0000 
     17 N          17.9580   13.0580   -1.3840 N.am      7 SEP2        0.0000 
     18 N          15.2745   13.1685   -1.1520 N.am      2 SEC2        0.0000 
     19 N          15.5820   14.6580   -1.1420 N.am      7 SEP2        0.0000 
     20 NZ         12.6490   10.3085   -2.8155 N.4       3 LYC4        0.0000 
     21 NZ         14.0130    9.6740   -2.3370 N.4      13 LYL4        0.0000 
     22 NZ         11.2850   10.9430   -3.2940 N.4       8 LYP4        0.0000 
     23 Zn         14.2940    8.6770   -3.0150 Zn        4 ZIC7        0.0000 
     24 Zn         14.0130    9.6740   -2.3370 Zn       14 ZIL7        0.0000 
     25 N          12.6490   10.3085   -2.8155 N.am      2 SEC2        0.0000 
     26 N          14.0130    9.6740   -2.3370 N.am     12 SEL2        0.0000 
     27 N          11.2850   10.9430   -3.2940 N.am      7 SEP2        0.0000 
     28 NZ         10.9680   10.1955   -2.0460 N.4       3 LYC4        0.0000 
     29 NZ         10.6510    9.4480   -0.7980 N.4      13 LYL4        0.0000 
     30 N          10.9680   10.1955   -2.0460 N.am      2 SEC2        0.0000 
     31 N          10.6510    9.4480   -0.7980 N.am     12 SEL2        0.0000 
     32 CA         13.1405   11.6305    3.8560 C.3       5 GLC5        0.0000 
     33 CA         11.8880   10.2240    2.7390 C.3      15 GLL5        0.0000 
     34 CA         14.3930   13.0370    4.9730 C.3      10 GLP5        0.0000 
     35 CA         11.1025   10.9655    5.3335 C.3       5 GLC5        0.0000 
     36 CA         10.9770    9.7190    3.8490 C.3      15 GLL5        0.0000 
     37 CA         11.2280   12.2120    6.8180 C.3      10 GLP5        0.0000 
     38 N          12.5795    7.8965    5.0325 N.am      2 SEC2        0.0000 
     39 N          11.5180    7.3420    3.9910 N.am     12 SEL2        0.0000 
     40 N          13.6410    8.4510    6.0740 N.am      7 SEP2        0.0000 
     41 O          11.2745    6.0910    3.9380 O.2       1 ALC1        0.0000 
     42 O          11.5180    7.3420    3.9910 O.2      11 ALL1        0.0000 
     43 O          11.0310    4.8400    3.8850 O.2       6 ALP1        0.0000 
     44 CA          9.4010    6.8575    6.2200 C.3       5 GLC5        0.0000 
     45 CA          9.3100    8.2810    4.5700 C.3      15 GLL5        0.0000 
     46 CA          9.4920    5.4340    7.8700 C.3      10 GLP5        0.0000 
     47 N          10.2925    8.6560    7.3340 N.am      2 SEC2        0.0000 
     48 N           9.6760    8.1450    5.9210 N.am     12 SEL2        0.0000 
     49 N          10.9090    9.1670    8.7470 N.am      7 SEP2        0.0000 
     50 O          10.4720    7.5410    6.6575 O.2       1 ALC1        0.0000 
     51 O           9.6760    8.1450    5.9210 O.2      11 ALL1        0.0000 
     52 O          11.2680    6.9370    7.3940 O.2       6 ALP1        0.0000 
     53 CA          9.9670   10.9355    5.6025 C.3       5 GLC5        0.0000 
     54 CA          8.7060    9.6590    4.3870 C.3      15 GLL5        0.0000 
     55 CA          8.9910   11.2920    3.2610 C.3       5 GLC5        0.0000 
     56 CA          9.2760   12.9250    2.1350 C.3      10 GLP5        0.0000 
     57 N           6.5250    8.6670    0.4725 N.am      2 SEC2        0.0000 
     58 N           6.4300    9.5740    1.5100 N.am     12 SEL2        0.0000 
     59 N           6.6200    7.7600   -0.5650 N.am      7 SEP2        0.0000 
     60 CA          6.0090    7.9815    1.1415 C.3       5 GLC5        0.0000 
     61 CA          5.5350    9.5910    2.5210 C.3      15 GLL5        0.0000 
     62 CA          6.4830    6.3720   -0.2380 C.3      10 GLP5        0.0000 
     63 O           1.9760    9.6985    1.5510 O.2       1 ALC1        0.0000 
     64 O           3.4460    9.5930    1.4020 O.2      11 ALL1        0.0000 
     65 O           0.5060    9.8040    1.7000 O.2       6 ALP1        0.0000 
     66 N           2.0020    9.2560    4.4125 N.am      2 SEC2        0.0000 
     67 N           3.4750    9.6080    3.7590 N.am     12 SEL2        0.0000 
     68 N           0.5290    8.9040    5.0660 N.am      7 SEP2        0.0000 
     69 CA          4.4475   11.4980    5.7660 C.3       5 GLC5        0.0000 
     70 CA          4.1940    9.6290    4.9400 C.3      15 GLL5        0.0000 
     71 CA          4.7010   13.3670    6.5920 C.3      10 GLP5        0.0000 
     72 CA          3.7975   11.2910    3.8140 C.3       5 GLC5        0.0000 
     73 CA          3.4010   12.9530    2.6880 C.3      10 GLP5        0.0000 
     74 CA          2.7285    8.1090    4.9245 C.3       5 GLC5        0.0000 
     75 CA          1.2630    6.5890    4.9090 C.3      10 GLP5        0.0000 
     76 CA          5.3225    7.8250    5.0145 C.3       5 GLC5        0.0000 
     77 CA          6.4510    6.0210    5.0890 C.3      10 GLP5        0.0000 
     78 CA          6.3475    7.8230    4.4065 C.3       5 GLC5        0.0000 
     79 CA          6.2440    9.6250    3.7240 C.3      15 GLL5        0.0000 
     80 CA         10.3543   11.4482    2.7145 C.3       5 GLC5        0.0000 
     81 CA          7.7295    7.4955    4.7837 C.3       5 GLC5        0.0000 
     82 CA          6.4487   11.6175    2.9962 C.3       5 GLC5        0.0000 
     83 CA          7.0080   13.6270    2.8700 C.3      10 GLP5        0.0000 
     84 CA          5.0645    7.5635    3.1660 C.3       5 GLC5        0.0000 
     85 CA          4.1390    9.5850    2.5410 C.3      15 GLL5        0.0000 
     86 CA          5.2920    5.5390    3.8010 C.3      10 GLP5        0.0000 
     87 CA          4.4707   11.2797    2.9078 C.3       5 GLC5        0.0000 
@<TRIPOS>BOND
@<TRIPOS>SUBSTRUCTURE
     1 ALC1       41 GROUP        1 X    ALC  0     ROOT ALC X 1
     2 SEC2        4 GROUP        1 X    SEC  0     **** SEC X 2
     3 LYC4        1 GROUP        1 X    LYC  0     **** LYC X 4
     4 ZIC7       12 GROUP        1 X    ZIC  0     **** ZIC X 5
     5 GLC5       32 GROUP        1 X    GLC  0     **** GLC X 6
     6 ALP1       43 GROUP        1 Y    ALP  0     ROOT ALP Y 8
     7 SEP2        6 GROUP        1 Y    SEP  0     **** SEP Y 9
     8 LYP4        3 GROUP        1 Y    LYP  0     **** LYP Y 11
     9 ZIP7       14 GROUP        1 Y    ZIP  0     **** ZIP Y 12
    10 GLP5       34 GROUP        1 Y    GLP  0     **** GLP Y 13
    11 ALL1       42 GROUP        1 Z    ALL  0     ROOT ALL Z 15
    12 SEL2        5 GROUP        1 Z    SEL  0     **** SEL Z 16
    13 LYL4        2 GROUP        1 Z    LYL  0     **** LYL Z 18
    14 ZIL7       13 GROUP        1 Z    ZIL  0     **** ZIL Z 19
    15 GLL5       33 GROUP        1 Z    GLL  0     **** GLL Z 20
@<TRIPOS>SET

