#    Name: 1q24_ATP_1_ligand
#    Modification time : Mon Mar 24 22:48:38 2014

@<TRIPOS>MOLECULE
1q24_ATP_1_ligand
   43    45     1     0     0
SMALL
NO_CHARGES


@<TRIPOS>ATOM
      1 PG         15.9430    8.2310   -0.3810 P.3       1 ATP400      0.0000 
      2 O1G        15.2570    7.0170    0.1550 O.co2     1 ATP400      0.0000 
      3 O2G        17.3200    8.4330    0.2930 O.co2     1 ATP400      0.0000 
      4 O3G        16.1650    8.0810   -1.9020 O.co2     1 ATP400      0.0000 
      5 PB         14.2180   10.4140   -0.9960 P.3       1 ATP400      0.0000 
      6 O1B        14.9670   11.6790   -1.1620 O.co2     1 ATP400      0.0000 
      7 O2B        14.0130    9.6740   -2.3370 O.co2     1 ATP400      0.0000 
      8 O3B        15.0150    9.4920    0.0400 O.3       1 ATP400      0.0000 
      9 PA         11.7530    9.5830    0.1840 P.3       1 ATP400      0.0000 
     10 O1A        10.6510    9.4480   -0.7980 O.co2     1 ATP400      0.0000 
     11 O2A        12.4400    8.2380    0.4830 O.co2     1 ATP400      0.0000 
     12 O3A        12.8080   10.7280   -0.2750 O.3       1 ATP400      0.0000 
     13 O5'        11.1700   10.2550    1.5240 O.3       1 ATP400      0.0000 
     14 C5'        11.8880   10.2240    2.7390 C.3       1 ATP400      0.0000 
     15 C4'        10.9770    9.7190    3.8490 C.3       1 ATP400      0.0000 
     16 O4'         9.7730   10.4700    3.9350 O.3       1 ATP400      0.0000 
     17 C3'        10.5200    8.2840    3.6570 C.3       1 ATP400      0.0000 
     18 O3'        11.5180    7.3420    3.9910 O.3       1 ATP400      0.0000 
     19 C2'         9.3100    8.2810    4.5700 C.3       1 ATP400      0.0000 
     20 O2'         9.6760    8.1450    5.9210 O.3       1 ATP400      0.0000 
     21 C1'         8.7060    9.6590    4.3870 C.3       1 ATP400      0.0000 
     22 N9          7.5870    9.6290    3.4170 N.pl3     1 ATP400      0.0000 
     23 C8          7.6800    9.5950    2.0430 C.2       1 ATP400      0.0000 
     24 N7          6.4300    9.5740    1.5100 N.2       1 ATP400      0.0000 
     25 C5          5.5350    9.5910    2.5210 C.ar      1 ATP400      0.0000 
     26 C6          4.1390    9.5850    2.5410 C.ar      1 ATP400      0.0000 
     27 N6          3.4460    9.5930    1.4020 N.pl3     1 ATP400      0.0000 
     28 N1          3.4750    9.6080    3.7590 N.ar      1 ATP400      0.0000 
     29 C2          4.1940    9.6290    4.9400 C.ar      1 ATP400      0.0000 
     30 N3          5.5780    9.6430    4.9090 N.ar      1 ATP400      0.0000 
     31 C4          6.2440    9.6250    3.7240 C.ar      1 ATP400      0.0000 
     32 H          12.2493   11.2177    3.0311 H         1 ATP400      0.0000 
     33 H          12.7554    9.5542    2.6896 H         1 ATP400      0.0000 
     34 H          11.5095    9.7652    4.7962 H         1 ATP400      0.0000 
     35 H          10.1559    8.2104    2.6483 H         1 ATP400      0.0000 
     36 H           8.6170    7.5656    4.2313 H         1 ATP400      0.0000 
     37 H           8.3564    9.9890    5.3518 H         1 ATP400      0.0000 
     38 H           8.5065    9.5876    1.5476 H         1 ATP400      0.0000 
     39 H           3.9839    9.5652    0.5595 H         1 ATP400      0.0000 
     40 H           2.4507    9.6261    1.4928 H         1 ATP400      0.0000 
     41 H           3.6997    9.6342    5.8447 H         1 ATP400      0.0000 
     42 H          11.0177    6.5382    4.3129 H         1 ATP400      0.0000 
     43 H          10.3969    7.4520    5.9252 H         1 ATP400      0.0000 
@<TRIPOS>BOND
     1    2    1 ar   
     2    3    1 ar   
     3    4    1 ar   
     4    8    1 1    
     5    6    5 ar   
     6    7    5 ar   
     7    8    5 1    
     8   12    5 1    
     9   10    9 ar   
    10   11    9 ar   
    11   12    9 1    
    12   13    9 1    
    13   14   13 1    
    14   15   14 1    
    15   32   14 1    
    16   33   14 1    
    17   16   15 1    
    18   17   15 1    
    19   34   15 1    
    20   21   16 1    
    21   18   17 1    
    22   19   17 1    
    23   35   17 1    
    24   42   18 1    
    25   20   19 1    
    26   21   19 1    
    27   36   19 1    
    28   43   20 1    
    29   22   21 1    
    30   37   21 1    
    31   23   22 1    
    32   31   22 1    
    33   24   23 2    
    34   38   23 1    
    35   25   24 1    
    36   26   25 ar   
    37   31   25 ar   
    38   27   26 1    
    39   28   26 ar   
    40   39   27 1    
    41   40   27 1    
    42   29   28 ar   
    43   30   29 ar   
    44   41   29 1    
    45   31   30 ar   
@<TRIPOS>SUBSTRUCTURE
     1 ATP400      1 GROUP   
@<TRIPOS>SET

