#    Name: 2j7y_E3O_1_INTS_M
#    Modification time : Tue Mar 25 19:28:11 2014

@<TRIPOS>MOLECULE
2j7y_E3O_1_INTS_M
   73     0     9     0     0
SMALL
NO_CHARGES


@<TRIPOS>ATOM
      1 CA         50.7040   27.4810   75.8280 C.3       3 GLC5        0.0000 
      2 CA         50.3860   28.9680   74.3150 C.3       9 GLL5        0.0000 
      3 CA         51.0220   25.9940   77.3410 C.3       6 GLP5        0.0000 
      4 CA         52.3715   29.2885   75.3055 C.3       3 GLC5        0.0000 
      5 CA         54.3570   29.6090   76.2960 C.3       6 GLP5        0.0000 
      6 CA         50.5070   27.0210   74.0335 C.3       3 GLC5        0.0000 
      7 CA         50.6280   25.0740   73.7520 C.3       6 GLP5        0.0000 
      8 CA         52.0535   28.0155   73.8790 C.3       3 GLC5        0.0000 
      9 CA         53.7210   27.0630   73.4430 C.3       6 GLP5        0.0000 
     10 CA         48.1030   28.9360   71.3295 C.3       3 GLC5        0.0000 
     11 CA         48.0930   29.1700   73.4030 C.3       9 GLL5        0.0000 
     12 CA         48.1130   28.7020   69.2560 C.3       6 GLP5        0.0000 
     13 CA         47.0710   30.5835   72.1715 C.3       3 GLC5        0.0000 
     14 CA         46.0490   31.9970   70.9400 C.3       6 GLP5        0.0000 
     15 CA         49.0805   26.5765   74.0450 C.3       3 GLC5        0.0000 
     16 CA         47.5330   28.0790   74.3380 C.3       9 GLL5        0.0000 
     17 O          46.0240   27.1055   73.0570 O.2       1 ALC1        0.0000 
     18 O          46.1110   27.9650   74.2300 O.2       7 ALL1        0.0000 
     19 O          45.9370   26.2460   71.8840 O.2       4 ALP1        0.0000 
     20 CA         49.4595   27.2435   76.5530 C.3       3 GLC5        0.0000 
     21 CA         47.8970   28.4930   75.7650 C.3       9 GLL5        0.0000 
     22 CA         47.1980   31.7365   75.5945 C.3       3 GLC5        0.0000 
     23 CA         48.4480   29.9240   75.6110 C.3       9 GLL5        0.0000 
     24 CA         45.9480   33.5490   75.5780 C.3       6 GLP5        0.0000 
     25 CA         52.1170   31.7475   81.1610 C.3       3 GLC5        0.0000 
     26 CA         51.2310   32.8500   79.7450 C.3       9 GLL5        0.0000 
     27 CA         53.0030   30.6450   82.5770 C.3       6 GLP5        0.0000 
     28 N          54.1355   34.8285   80.5750 N.am      2 SEC2        0.0000 
     29 N          52.6850   34.6570   80.3410 N.am      8 SEL2        0.0000 
     30 N          55.5860   35.0000   80.8090 N.am      5 SEP2        0.0000 
     31 N          52.9860   36.0565   80.6435 N.am      2 SEC2        0.0000 
     32 N          53.2870   37.4560   80.9460 N.am      5 SEP2        0.0000 
     33 O          52.1095   34.5230   81.4780 O.2       1 ALC1        0.0000 
     34 O          52.6850   34.6570   80.3410 O.2       7 ALL1        0.0000 
     35 O          51.5340   34.3890   82.6150 O.2       4 ALP1        0.0000 
     36 CA         52.2065   35.9670   76.7270 C.3       3 GLC5        0.0000 
     37 CA         52.0590   34.3770   78.0560 C.3       9 GLL5        0.0000 
     38 CA         52.3540   37.5570   75.3980 C.3       6 GLP5        0.0000 
     39 CA         51.0795   34.9905   75.4515 C.3       3 GLC5        0.0000 
     40 CA         51.3660   33.7260   77.0470 C.3       9 GLL5        0.0000 
     41 CA         50.7930   36.2550   73.8560 C.3       6 GLP5        0.0000 
     42 CA         53.2515   33.5580   76.2935 C.3       3 GLC5        0.0000 
     43 CA         55.1370   33.3900   75.5400 C.3       6 GLP5        0.0000 
     44 CA         49.6690   33.0812   73.2978 C.3       3 GLC5        0.0000 
     45 CA         50.4290   31.8970   74.8960 C.3       9 GLL5        0.0000 
     46 CA         49.3480   34.5760   72.2430 C.3       6 GLP5        0.0000 
     47 CA         51.7610   31.9073   73.3398 C.3       3 GLC5        0.0000 
     48 CA         49.5510   31.2760   73.8090 C.3       9 GLL5        0.0000 
     49 CA         53.5320   32.2280   72.3270 C.3       6 GLP5        0.0000 
     50 CA         50.2220   30.1440   72.1404 C.3       3 GLC5        0.0000 
     51 CA         50.5770   30.5180   70.1050 C.3       6 GLP5        0.0000 
     52 CA         46.7310   26.6245   75.7078 C.3       3 GLC5        0.0000 
     53 CA         45.7470   24.9630   76.3640 C.3       6 GLP5        0.0000 
     54 CA         51.7155   30.8176   76.6723 C.3       3 GLC5        0.0000 
     55 CA         49.3460   30.4820   76.7230 C.3       9 GLL5        0.0000 
     56 CA         53.7050   30.4450   77.1900 C.3       6 GLP5        0.0000 
     57 CA         49.4785   28.7948   79.0065 C.3       3 GLC5        0.0000 
     58 CA         49.6690   30.9490   79.1890 C.3       9 GLL5        0.0000 
     59 CA         49.7790   26.8380   79.3780 C.3       6 GLP5        0.0000 
     60 CA         47.9510   31.4593   80.0990 C.3       3 GLC5        0.0000 
     61 CA         48.6870   30.5540   78.0810 C.3       9 GLL5        0.0000 
     62 CA         46.7240   32.1670   81.5630 C.3       6 GLP5        0.0000 
     63 CA         49.3530   34.0448   79.5495 C.3       3 GLC5        0.0000 
     64 CA         50.5210   32.1570   78.7970 C.3       9 GLL5        0.0000 
     65 CA         47.8300   35.5860   79.8280 C.3       6 GLP5        0.0000 
     66 CA         53.8175   34.7488   77.8850 C.3       3 GLC5        0.0000 
     67 CA         55.6000   35.3250   77.0490 C.3       6 GLP5        0.0000 
     68 CA         50.6532   35.4661   78.3335 C.3       3 GLC5        0.0000 
     69 CA         52.0110   33.9680   79.3860 C.3       9 GLL5        0.0000 
     70 CA         49.6060   36.9830   78.7830 C.3       6 GLP5        0.0000 
     71 CA         48.8023   33.5186   75.9933 C.3       3 GLC5        0.0000 
     72 CA         50.6010   32.6040   77.3390 C.3       9 GLL5        0.0000 
     73 CA         47.2510   34.7860   75.5240 C.3       6 GLP5        0.0000 
@<TRIPOS>BOND
@<TRIPOS>SUBSTRUCTURE
     1 ALC1       17 GROUP        1 X    ALC  0     ROOT ALC X 1
     2 SEC2       28 GROUP        1 X    SEC  0     **** SEC X 2
     3 GLC5        1 GROUP        1 X    GLC  0     **** GLC X 6
     4 ALP1       19 GROUP        1 Y    ALP  0     ROOT ALP Y 8
     5 SEP2       30 GROUP        1 Y    SEP  0     **** SEP Y 9
     6 GLP5        3 GROUP        1 Y    GLP  0     **** GLP Y 13
     7 ALL1       18 GROUP        1 Z    ALL  0     ROOT ALL Z 15
     8 SEL2       29 GROUP        1 Z    SEL  0     **** SEL Z 16
     9 GLL5        2 GROUP        1 Z    GLL  0     **** GLL Z 20
@<TRIPOS>SET

