#    Name: 2j7y_E3O_1_ligand
#    Modification time : Tue Mar 25 19:28:11 2014

@<TRIPOS>MOLECULE
2j7y_E3O_1_ligand
   45    48     1     0     0
SMALL
NO_CHARGES


@<TRIPOS>ATOM
      1 C2         49.7830   31.9000   76.2760 C.3       1 E3O1454     0.0000 
      2 C3         50.4290   31.8970   74.8960 C.3       1 E3O1454     0.0000 
      3 C4         49.5510   31.2760   73.8090 C.3       1 E3O1454     0.0000 
      4 C5         49.1450   29.8680   74.2640 C.3       1 E3O1454     0.0000 
      5 C6         50.3860   28.9680   74.3150 C.3       1 E3O1454     0.0000 
      6 C7         48.0930   29.1700   73.4030 C.3       1 E3O1454     0.0000 
      7 O1         47.0650   30.0820   73.0190 O.3       1 E3O1454     0.0000 
      8 C8         47.5330   28.0790   74.3380 C.3       1 E3O1454     0.0000 
      9 O2         46.1110   27.9650   74.2300 O.3       1 E3O1454     0.0000 
     10 C9         47.8970   28.4930   75.7650 C.3       1 E3O1454     0.0000 
     11 C10        48.4480   29.9240   75.6110 C.3       1 E3O1454     0.0000 
     12 C12        49.3460   30.4820   76.7230 C.3       1 E3O1454     0.0000 
     13 C14        48.6870   30.5540   78.0810 C.3       1 E3O1454     0.0000 
     14 C15        49.6690   30.9490   79.1890 C.3       1 E3O1454     0.0000 
     15 C16        50.5210   32.1570   78.7970 C.ar      1 E3O1454     0.0000 
     16 C17        51.2310   32.8500   79.7450 C.ar      1 E3O1454     0.0000 
     17 C18        52.0110   33.9680   79.3860 C.ar      1 E3O1454     0.0000 
     18 O3         52.6850   34.6570   80.3410 O.3       1 E3O1454     0.0000 
     19 C19        52.0590   34.3770   78.0560 C.ar      1 E3O1454     0.0000 
     20 C20        51.3660   33.7260   77.0470 C.ar      1 E3O1454     0.0000 
     21 C21        50.6010   32.6040   77.3390 C.ar      1 E3O1454     0.0000 
     22 H          48.8194   32.4853   76.1734 H         1 E3O1454     0.0000 
     23 H          51.3798   31.3435   74.9450 H         1 E3O1454     0.0000 
     24 H          50.6710   32.9325   74.6097 H         1 E3O1454     0.0000 
     25 H          50.1089   31.2072   72.8900 H         1 E3O1454     0.0000 
     26 H          48.6667   31.8760   73.6728 H         1 E3O1454     0.0000 
     27 H          48.5777   28.6954   72.5967 H         1 E3O1454     0.0000 
     28 H          48.0376   27.1622   74.1223 H         1 E3O1454     0.0000 
     29 H          48.6583   27.8598   76.1422 H         1 E3O1454     0.0000 
     30 H          47.0266   28.5125   76.3690 H         1 E3O1454     0.0000 
     31 H          47.5766   30.5836   75.4718 H         1 E3O1454     0.0000 
     32 H          50.2426   29.8800   76.7753 H         1 E3O1454     0.0000 
     33 H          48.2499   29.5786   78.3293 H         1 E3O1454     0.0000 
     34 H          47.8717   31.2879   78.0551 H         1 E3O1454     0.0000 
     35 H          50.3252   30.1012   79.4033 H         1 E3O1454     0.0000 
     36 H          49.1070   31.1853   80.0965 H         1 E3O1454     0.0000 
     37 H          51.2044   32.5623   80.7371 H         1 E3O1454     0.0000 
     38 H          52.6433   35.2110   77.8101 H         1 E3O1454     0.0000 
     39 H          51.4177   34.0740   76.0790 H         1 E3O1454     0.0000 
     40 H          50.8268   28.8921   73.4206 H         1 E3O1454     0.0000 
     41 H          51.0730   29.3184   74.9515 H         1 E3O1454     0.0000 
     42 H          50.1597   28.0397   74.6099 H         1 E3O1454     0.0000 
     43 H          46.2301   29.7201   73.4335 H         1 E3O1454     0.0000 
     44 H          45.9582   27.3800   73.4334 H         1 E3O1454     0.0000 
     45 H          52.5185   34.1539   81.1890 H         1 E3O1454     0.0000 
@<TRIPOS>BOND
     1    2    1 1    
     2   12    1 1    
     3   21    1 1    
     4   22    1 1    
     5    3    2 1    
     6   23    2 1    
     7   24    2 1    
     8    4    3 1    
     9   25    3 1    
    10   26    3 1    
    11    5    4 1    
    12    6    4 1    
    13   11    4 1    
    14   40    5 1    
    15   41    5 1    
    16   42    5 1    
    17    7    6 1    
    18    8    6 1    
    19   27    6 1    
    20   43    7 1    
    21    9    8 1    
    22   10    8 1    
    23   28    8 1    
    24   44    9 1    
    25   11   10 1    
    26   29   10 1    
    27   30   10 1    
    28   12   11 1    
    29   31   11 1    
    30   13   12 1    
    31   32   12 1    
    32   14   13 1    
    33   33   13 1    
    34   34   13 1    
    35   15   14 1    
    36   35   14 1    
    37   36   14 1    
    38   16   15 ar   
    39   21   15 ar   
    40   17   16 ar   
    41   37   16 1    
    42   18   17 1    
    43   19   17 ar   
    44   45   18 1    
    45   20   19 ar   
    46   38   19 1    
    47   21   20 ar   
    48   39   20 1    
@<TRIPOS>SUBSTRUCTURE
     1 E3O1454     1 GROUP   
@<TRIPOS>SET

