#    Name: 3ozs_OZS_1_INTS_M
#    Modification time : Tue Mar 25 05:43:16 2014

@<TRIPOS>MOLECULE
3ozs_OZS_1_INTS_M
   90     0    15     0     0
SMALL
NO_CHARGES


@<TRIPOS>ATOM
      1 CA        -18.1110   33.1675   12.6270 C.3       5 GLC5        0.0000 
      2 CA        -18.6110   31.4540   13.4010 C.3      15 GLL5        0.0000 
      3 CA        -17.6110   34.8810   11.8530 C.3      10 GLP5        0.0000 
      4 CA        -17.4495   28.2240   13.2960 C.3       5 GLC5        0.0000 
      5 CA        -17.7330   30.1670   13.5090 C.3      15 GLL5        0.0000 
      6 CA        -17.1660   26.2810   13.0830 C.3      10 GLP5        0.0000 
      7 CA        -16.8225   29.2210   11.7885 C.3       5 GLC5        0.0000 
      8 CA        -15.9120   28.2750   10.0680 C.3      10 GLP5        0.0000 
      9 CA        -18.4160   28.0165   12.6180 C.3       5 GLC5        0.0000 
     10 CA        -19.6660   29.7520   12.1530 C.3      15 GLL5        0.0000 
     11 O         -19.6890   29.5405   15.2840 O.2       1 ALC1        0.0000 
     12 O         -20.5670   30.2580   14.3450 O.2      11 ALL1        0.0000 
     13 O         -18.8110   28.8230   16.2230 O.2       6 ALP1        0.0000 
     14 O         -19.2955   30.5510   15.4785 O.2       1 ALC1        0.0000 
     15 O         -18.0240   30.8440   16.6120 O.2       6 ALP1        0.0000 
     16 O         -18.2835   31.5505   15.5990 O.2       1 ALC1        0.0000 
     17 O         -18.5430   32.2570   14.5860 O.2      11 ALL1        0.0000 
     18 CA        -16.2545   27.9175   13.4085 C.3       5 GLC5        0.0000 
     19 CA        -15.3430   29.5540   13.7340 C.3      15 GLL5        0.0000 
     20 CA        -15.4400   29.1920   15.6170 C.3       5 GLC5        0.0000 
     21 CA        -15.5370   28.8300   17.5000 C.3      10 GLP5        0.0000 
     22 CA        -20.5675   29.0955    6.6555 C.3       5 GLC5        0.0000 
     23 CA        -20.8200   30.1560    8.4790 C.3      15 GLL5        0.0000 
     24 CA        -20.3150   28.0350    4.8320 C.3      10 GLP5        0.0000 
     25 CA        -23.9260   29.3945    8.1290 C.3       5 GLC5        0.0000 
     26 CA        -23.6450   28.8760    6.2250 C.3      15 GLL5        0.0000 
     27 CA        -24.2070   29.9130   10.0330 C.3      10 GLP5        0.0000 
     28 CA        -21.9800   28.4555    5.5285 C.3       5 GLC5        0.0000 
     29 CA        -23.6915   28.5440    4.0310 C.3       5 GLC5        0.0000 
     30 CA        -23.7380   28.2120    1.8370 C.3      10 GLP5        0.0000 
     31 CA        -26.6420   26.1930    3.7500 C.3       5 GLC5        0.0000 
     32 CA        -25.7110   27.3220    5.1350 C.3      15 GLL5        0.0000 
     33 CA        -27.5730   25.0640    2.3650 C.3      10 GLP5        0.0000 
     34 CA        -24.1755   29.6270    3.6695 C.3       5 GLC5        0.0000 
     35 CA        -24.6070   29.5200    5.4730 C.3      15 GLL5        0.0000 
     36 CA        -23.7440   29.7340    1.8660 C.3      10 GLP5        0.0000 
     37 NZ        -21.4085   26.9510    6.5515 N.4       3 LYC4        0.0000 
     38 NZ        -22.7190   26.8280    7.1590 N.4      13 LYL4        0.0000 
     39 NZ        -20.0980   27.0740    5.9440 N.4       8 LYP4        0.0000 
     40 Zn        -22.8025   25.7680    7.0105 Zn        4 ZIC7        0.0000 
     41 Zn        -22.7190   26.8280    7.1590 Zn       14 ZIL7        0.0000 
     42 Zn        -22.8860   24.7080    6.8620 Zn        9 ZIP7        0.0000 
     43 N         -21.4085   26.9510    6.5515 N.am      2 SEC2        0.0000 
     44 N         -22.7190   26.8280    7.1590 N.am     12 SEL2        0.0000 
     45 N         -20.0980   27.0740    5.9440 N.am      7 SEP2        0.0000 
     46 Zn        -23.8435   25.0515    6.4945 Zn        4 ZIC7        0.0000 
     47 Zn        -24.8010   25.3950    6.1270 Zn       14 ZIL7        0.0000 
     48 N         -24.3195   25.1100    4.8385 N.am      2 SEC2        0.0000 
     49 N         -24.8010   25.3950    6.1270 N.am     12 SEL2        0.0000 
     50 N         -23.8380   24.8250    3.5500 N.am      7 SEP2        0.0000 
     51 O         -25.9365   25.1970    6.5180 O.2       1 ALC1        0.0000 
     52 O         -24.8010   25.3950    6.1270 O.2      11 ALL1        0.0000 
     53 O         -27.0720   24.9990    6.9090 O.2       6 ALP1        0.0000 
     54 CA        -10.7665   28.6750   14.9025 C.3       5 GLC5        0.0000 
     55 CA        -12.0910   30.1300   14.2860 C.3      15 GLL5        0.0000 
     56 CA         -9.4420   27.2200   15.5190 C.3      10 GLP5        0.0000 
     57 CA        -13.0165   31.6490   15.1060 C.3       5 GLC5        0.0000 
     58 CA        -13.9420   33.1680   15.9260 C.3      10 GLP5        0.0000 
     59 CA        -10.7645   31.4650   15.0290 C.3       5 GLC5        0.0000 
     60 CA         -9.4380   32.8000   15.7720 C.3      10 GLP5        0.0000 
     61 CA        -11.8380   26.5435   13.0275 C.3       5 GLC5        0.0000 
     62 CA        -12.7590   28.1620   13.5920 C.3      15 GLL5        0.0000 
     63 CA        -10.9170   24.9250   12.4630 C.3      10 GLP5        0.0000 
     64 CA        -16.6585   32.1608   14.2400 C.3       5 GLC5        0.0000 
     65 CA        -15.1450   33.5110   15.0250 C.3      10 GLP5        0.0000 
     66 CA        -18.4480   29.0408   10.3495 C.3       5 GLC5        0.0000 
     67 CA        -17.1520   28.0700    9.2400 C.3      10 GLP5        0.0000 
     68 CA        -18.9383   28.9890    9.2185 C.3       5 GLC5        0.0000 
     69 CA        -14.9560   31.6580   14.2317 C.3       5 GLC5        0.0000 
     70 CA        -15.3395   29.0400   11.7532 C.3       5 GLC5        0.0000 
     71 CA        -14.1910   30.0560   13.1430 C.3      15 GLL5        0.0000 
     72 CA        -12.4393   27.5355   14.6895 C.3       5 GLC5        0.0000 
     73 CA        -12.8400   29.4920   13.3760 C.3      15 GLL5        0.0000 
     74 CA        -12.0790   26.2440   15.8950 C.3      10 GLP5        0.0000 
     75 CA        -22.3649   29.9869    9.7213 C.3       5 GLC5        0.0000 
     76 CA        -19.8220   30.2710   10.7650 C.3      15 GLL5        0.0000 
     77 CA        -19.5379   31.6634    9.0948 C.3       5 GLC5        0.0000 
     78 CA        -20.6290   29.6600    9.9150 C.3      15 GLL5        0.0000 
     79 CA        -18.5530   33.2660    8.7800 C.3      10 GLP5        0.0000 
     80 CA        -25.7200   27.6062    7.3918 C.3       5 GLC5        0.0000 
     81 CA        -24.7550   26.7570    5.9300 C.3      15 GLL5        0.0000 
     82 CA        -26.2070   28.1730    9.2510 C.3      10 GLP5        0.0000 
     83 CA        -25.6705   28.6512    7.2300 C.3       5 GLC5        0.0000 
     84 CA        -25.6610   28.7390    4.9450 C.3      15 GLL5        0.0000 
     85 CA        -24.5925   28.0506    3.5379 C.3       5 GLC5        0.0000 
     86 CA        -10.3780   29.6651   12.9674 C.3       5 GLC5        0.0000 
     87 CA         -8.4930   29.5240   12.3700 C.3      10 GLP5        0.0000 
     88 CA        -13.0025   28.7046   11.3674 C.3       5 GLC5        0.0000 
     89 CA        -12.0300   29.4730   12.3110 C.3      15 GLL5        0.0000 
     90 CA        -13.4080   28.5870    9.5170 C.3      10 GLP5        0.0000 
@<TRIPOS>BOND
@<TRIPOS>SUBSTRUCTURE
     1 ALC1       11 GROUP        1 X    ALC  0     ROOT ALC X 1
     2 SEC2       43 GROUP        1 X    SEC  0     **** SEC X 2
     3 LYC4       37 GROUP        1 X    LYC  0     **** LYC X 4
     4 ZIC7       40 GROUP        1 X    ZIC  0     **** ZIC X 5
     5 GLC5        1 GROUP        1 X    GLC  0     **** GLC X 6
     6 ALP1       13 GROUP        1 Y    ALP  0     ROOT ALP Y 8
     7 SEP2       45 GROUP        1 Y    SEP  0     **** SEP Y 9
     8 LYP4       39 GROUP        1 Y    LYP  0     **** LYP Y 11
     9 ZIP7       42 GROUP        1 Y    ZIP  0     **** ZIP Y 12
    10 GLP5        3 GROUP        1 Y    GLP  0     **** GLP Y 13
    11 ALL1       12 GROUP        1 Z    ALL  0     ROOT ALL Z 15
    12 SEL2       44 GROUP        1 Z    SEL  0     **** SEL Z 16
    13 LYL4       38 GROUP        1 Z    LYL  0     **** LYL Z 18
    14 ZIL7       41 GROUP        1 Z    ZIL  0     **** ZIL Z 19
    15 GLL5        2 GROUP        1 Z    GLL  0     **** GLL Z 20
@<TRIPOS>SET

