#    Name: 3ozs_OZS_1_ligand
#    Modification time : Tue Mar 25 05:43:16 2014

@<TRIPOS>MOLECULE
3ozs_OZS_1_ligand
   49    51     1     0     0
SMALL
NO_CHARGES


@<TRIPOS>ATOM
      1 C1        -20.0310   30.8770   13.1890 C.3       1 OZS223      0.0000 
      2 C2        -18.6110   31.4540   13.4010 C.3       1 OZS223      0.0000 
      3 C3        -17.7330   30.1670   13.5090 C.3       1 OZS223      0.0000 
      4 O4        -18.2840   29.3890   12.4280 O.3       1 OZS223      0.0000 
      5 C5        -19.6660   29.7520   12.1530 C.3       1 OZS223      0.0000 
      6 C6        -19.8220   30.2710   10.7650 C.2       1 OZS223      0.0000 
      7 N7        -16.3340   30.3350   13.2220 N.pl3     1 OZS223      0.0000 
      8 O8        -20.5670   30.2580   14.3450 O.3       1 OZS223      0.0000 
      9 O9        -18.5430   32.2570   14.5860 O.3       1 OZS223      0.0000 
     10 C10       -20.6290   29.6600    9.9150 C.2       1 OZS223      0.0000 
     11 C11       -15.7260   31.2980   12.3440 C.2       1 OZS223      0.0000 
     12 C12       -15.3430   29.5540   13.7340 C.2       1 OZS223      0.0000 
     13 C13       -14.1910   30.0560   13.1430 C.2       1 OZS223      0.0000 
     14 N14       -14.4220   31.1230   12.2990 N.2       1 OZS223      0.0000 
     15 C15       -12.8400   29.4920   13.3760 C.3       1 OZS223      0.0000 
     16 C16       -20.8200   30.1560    8.4790 C.3       1 OZS223      0.0000 
     17 N17       -21.7610   29.2760    7.7910 N.am      1 OZS223      0.0000 
     18 C18       -22.5620   29.7310    6.8260 C.2       1 OZS223      0.0000 
     19 C19       -23.6450   28.8760    6.2250 C.ar      1 OZS223      0.0000 
     20 C20       -23.6700   27.4750    6.4970 C.ar      1 OZS223      0.0000 
     21 C21       -24.7550   26.7570    5.9300 C.ar      1 OZS223      0.0000 
     22 C22       -25.7110   27.3220    5.1350 C.ar      1 OZS223      0.0000 
     23 C23       -25.6610   28.7390    4.9450 C.ar      1 OZS223      0.0000 
     24 C24       -24.6070   29.5200    5.4730 C.ar      1 OZS223      0.0000 
     25 N25       -26.6670   29.3780    4.1410 N.pl3     1 OZS223      0.0000 
     26 O26       -22.7190   26.8280    7.1590 O.co2     1 OZS223      0.0000 
     27 O27       -24.8010   25.3950    6.1270 O.3       1 OZS223      0.0000 
     28 O28       -22.3960   30.9300    6.4020 O.2       1 OZS223      0.0000 
     29 F29       -12.0300   29.4730   12.3110 F         1 OZS223      0.0000 
     30 F30       -12.0910   30.1300   14.2860 F         1 OZS223      0.0000 
     31 F31       -12.7590   28.1620   13.5920 F         1 OZS223      0.0000 
     32 O32       -27.5020   28.7550    3.5290 O.2       1 OZS223      0.0000 
     33 O33       -26.6240   30.5930    4.0930 O.2       1 OZS223      0.0000 
     34 H         -20.6137   31.5673   12.7004 H         1 OZS223      0.0000 
     35 H         -18.3310   31.9566   12.5121 H         1 OZS223      0.0000 
     36 H         -17.9395   29.7013   14.4243 H         1 OZS223      0.0000 
     37 H         -20.3218   28.9352   12.3345 H         1 OZS223      0.0000 
     38 H         -19.2704   31.1077   10.5413 H         1 OZS223      0.0000 
     39 H         -21.1856   28.8175   10.1404 H         1 OZS223      0.0000 
     40 H         -16.2620   31.9596   11.8787 H         1 OZS223      0.0000 
     41 H         -15.4047   28.8519   14.3337 H         1 OZS223      0.0000 
     42 H         -19.8493   30.1549    7.9855 H         1 OZS223      0.0000 
     43 H         -21.1949   31.1777    8.5178 H         1 OZS223      0.0000 
     44 H         -21.7653   28.2848    8.0989 H         1 OZS223      0.0000 
     45 H         -26.4382   26.7865    4.6848 H         1 OZS223      0.0000 
     46 H         -24.5733   30.5142    5.2969 H         1 OZS223      0.0000 
     47 H         -19.7837   29.8302   14.7961 H         1 OZS223      0.0000 
     48 H         -17.8919   31.7856   15.1808 H         1 OZS223      0.0000 
     49 H         -25.4569   25.2631    6.8702 H         1 OZS223      0.0000 
@<TRIPOS>BOND
     1    2    1 1    
     2    5    1 1    
     3    8    1 1    
     4   34    1 1    
     5    3    2 1    
     6    9    2 1    
     7   35    2 1    
     8    4    3 1    
     9    7    3 1    
    10   36    3 1    
    11    5    4 1    
    12    6    5 1    
    13   37    5 1    
    14   10    6 2    
    15   38    6 1    
    16   11    7 1    
    17   12    7 1    
    18   47    8 1    
    19   48    9 1    
    20   16   10 1    
    21   39   10 1    
    22   14   11 2    
    23   40   11 1    
    24   13   12 2    
    25   41   12 1    
    26   14   13 1    
    27   15   13 1    
    28   29   15 1    
    29   30   15 1    
    30   31   15 1    
    31   17   16 1    
    32   42   16 1    
    33   43   16 1    
    34   18   17 am   
    35   44   17 1    
    36   19   18 1    
    37   28   18 2    
    38   20   19 ar   
    39   24   19 ar   
    40   21   20 ar   
    41   26   20 ar   
    42   22   21 ar   
    43   27   21 1    
    44   23   22 ar   
    45   45   22 1    
    46   24   23 ar   
    47   25   23 1    
    48   46   24 1    
    49   32   25 2    
    50   33   25 2    
    51   49   27 1    
@<TRIPOS>SUBSTRUCTURE
     1 OZS223      1 GROUP   
@<TRIPOS>SET

