#    Name: 3f8r_NAP_3_INTS_M
#    Modification time : Tue Mar 25 03:25:12 2014

@<TRIPOS>MOLECULE
3f8r_NAP_3_INTS_M
   88     0    12     0     0
SMALL
NO_CHARGES


@<TRIPOS>ATOM
      1 N          39.1230   69.0380  -33.5810 N.am      2 SEC2        0.0000 
      2 N          38.6900   67.7350  -32.7420 N.am     10 SEL2        0.0000 
      3 N          39.5560   70.3410  -34.4200 N.am      6 SEP2        0.0000 
      4 CA         34.5530   66.3130  -32.3540 C.3       4 GLC5        0.0000 
      5 CA         35.6390   67.8960  -33.4240 C.3      12 GLL5        0.0000 
      6 CA         33.4670   64.7300  -31.2840 C.3       8 GLP5        0.0000 
      7 CA         36.3295   69.7975  -32.7985 C.3       4 GLC5        0.0000 
      8 CA         37.0200   71.6990  -32.1730 C.3       8 GLP5        0.0000 
      9 N          34.0995   66.5820  -35.4250 N.am      2 SEC2        0.0000 
     10 N          34.3430   68.2650  -35.4990 N.am     10 SEL2        0.0000 
     11 N          33.8560   64.8990  -35.3510 N.am      6 SEP2        0.0000 
     12 N          34.5445   65.2550  -36.3585 N.am      2 SEC2        0.0000 
     13 N          35.2330   65.6110  -37.3660 N.am     10 SEL2        0.0000 
     14 CA         34.1160   69.8965  -36.3100 C.3       4 GLC5        0.0000 
     15 CA         34.4760   67.9250  -36.8900 C.3      12 GLL5        0.0000 
     16 CA         33.7560   71.8680  -35.7300 C.3       8 GLP5        0.0000 
     17 CA         34.1945   71.2960  -37.4630 C.3       4 GLC5        0.0000 
     18 CA         34.6330   70.7240  -39.1960 C.3      12 GLL5        0.0000 
     19 CA         32.5155   72.6925  -39.7355 C.3       4 GLC5        0.0000 
     20 CA         33.9870   71.4680  -40.1920 C.3      12 GLL5        0.0000 
     21 CA         31.0440   73.9170  -39.2790 C.3       8 GLP5        0.0000 
     22 CA         34.0095   72.7075  -38.6805 C.3       4 GLC5        0.0000 
     23 CA         34.0320   73.9470  -37.1690 C.3       8 GLP5        0.0000 
     24 CA         31.5845   71.9920  -39.5985 C.3       4 GLC5        0.0000 
     25 CA         32.1250   70.0670  -39.9180 C.3      12 GLL5        0.0000 
     26 CA         32.5245   68.5660  -40.9085 C.3       4 GLC5        0.0000 
     27 CA         32.9240   67.0650  -41.8990 C.3       8 GLP5        0.0000 
     28 CA         32.2440   70.7730  -38.1035 C.3       4 GLC5        0.0000 
     29 CA         32.3630   71.4790  -36.2890 C.3       8 GLP5        0.0000 
     30 CA         33.4170   68.3715  -40.2750 C.3       4 GLC5        0.0000 
     31 CA         33.9100   69.6780  -38.6510 C.3      12 GLL5        0.0000 
     32 CA         33.1365   70.5785  -37.4700 C.3       4 GLC5        0.0000 
     33 N          34.4510   69.9015  -29.1405 N.am      2 SEC2        0.0000 
     34 N          35.6440   69.8870  -29.6180 N.am     10 SEL2        0.0000 
     35 N          33.2580   69.9160  -28.6630 N.am      6 SEP2        0.0000 
     36 N          34.0660   67.2570  -28.6705 N.am      2 SEC2        0.0000 
     37 N          35.2650   67.3630  -29.6930 N.am     10 SEL2        0.0000 
     38 N          32.8670   67.1510  -27.6480 N.am      6 SEP2        0.0000 
     39 N          34.0425   67.5205  -30.4170 N.am      2 SEC2        0.0000 
     40 N          32.8200   67.6780  -31.1410 N.am      6 SEP2        0.0000 
     41 CA         38.3940   70.9595  -28.5710 C.3       4 GLC5        0.0000 
     42 CA         38.5280   68.7440  -28.2700 C.3      12 GLL5        0.0000 
     43 CA         38.2600   73.1750  -28.8720 C.3       8 GLP5        0.0000 
     44 CA         40.4950   68.8820  -25.9945 C.3       4 GLC5        0.0000 
     45 CA         39.2770   67.9680  -27.2170 C.3      12 GLL5        0.0000 
     46 CA         41.7130   69.7960  -24.7720 C.3       8 GLP5        0.0000 
     47 CA         36.3765   65.1675  -26.5085 C.3       4 GLC5        0.0000 
     48 CA         38.4080   65.8040  -26.5400 C.3      12 GLL5        0.0000 
     49 CA         34.3450   64.5310  -26.4770 C.3       8 GLP5        0.0000 
     50 O          37.4560   63.7305  -26.0735 O.2       1 ALC1        0.0000 
     51 O          38.8820   64.5300  -26.0780 O.2       9 ALL1        0.0000 
     52 O          36.0300   62.9310  -26.0690 O.2       5 ALP1        0.0000 
     53 CA         38.1620   68.3325  -24.2990 C.3       4 GLC5        0.0000 
     54 CA         38.2800   66.8150  -25.4070 C.3      12 GLL5        0.0000 
     55 CA         38.0440   69.8500  -23.1910 C.3       8 GLP5        0.0000 
     56 CA         37.3560   67.8370  -23.4825 C.3       4 GLC5        0.0000 
     57 CA         36.6680   65.8240  -23.7740 C.3      12 GLL5        0.0000 
     58 CA         33.3565   67.9160  -25.8885 C.3       4 GLC5        0.0000 
     59 CA         34.6020   67.5140  -24.5610 C.3      12 GLL5        0.0000 
     60 CA         32.1110   68.3180  -27.2160 C.3       8 GLP5        0.0000 
     61 CA         34.4100   68.6210  -26.2485 C.3       4 GLC5        0.0000 
     62 CA         35.8530   67.6450  -25.1650 C.3      12 GLL5        0.0000 
     63 CA         32.9670   69.5970  -27.3320 C.3       8 GLP5        0.0000 
     64 N          36.8280   66.5270  -39.7035 N.am      2 SEC2        0.0000 
     65 N          37.2870   65.4060  -38.6250 N.am     10 SEL2        0.0000 
     66 N          36.3690   67.6480  -40.7820 N.am      6 SEP2        0.0000 
     67 NZ         35.7400   66.3010  -40.2540 N.4       3 LYC4        0.0000 
     68 NZ         35.1110   64.9540  -39.7260 N.4      11 LYL4        0.0000 
     69 NZ         35.1980   67.8460  -41.3670 N.4       7 LYP4        0.0000 
     70 NZ         35.1360   64.4815  -41.2820 N.4       3 LYC4        0.0000 
     71 NZ         35.1610   64.0090  -42.8380 N.4       7 LYP4        0.0000 
     72 N          34.6705   65.9505  -40.4865 N.am      2 SEC2        0.0000 
     73 N          35.1110   64.9540  -39.7260 N.am     10 SEL2        0.0000 
     74 N          34.2300   66.9470  -41.2470 N.am      6 SEP2        0.0000 
     75 N          35.7400   66.3010  -40.2540 N.am      2 SEC2        0.0000 
     76 NZ         34.9090   64.1620  -36.6675 N.4       3 LYC4        0.0000 
     77 NZ         35.9620   63.4250  -37.9840 N.4      11 LYL4        0.0000 
     78 NZ         33.8560   64.8990  -35.3510 N.4       7 LYP4        0.0000 
     79 CA         35.0343   66.0298  -34.1360 C.3       4 GLC5        0.0000 
     80 CA         35.2020   67.3770  -34.7820 C.3      12 GLL5        0.0000 
     81 CA         34.6480   64.4230  -34.1690 C.3       8 GLP5        0.0000 
     82 CA         34.6623   69.4982  -34.1900 C.3       4 GLC5        0.0000 
     83 CA         33.9040   71.3600  -34.2770 C.3       8 GLP5        0.0000 
     84 CA         34.9395   65.9510  -35.4080 C.3       4 GLC5        0.0000 
     85 CA         36.3570   67.1220  -35.7560 C.3      12 GLL5        0.0000 
     86 CA         35.1995   65.1403  -24.9858 C.3       4 GLC5        0.0000 
     87 CA         36.6357   68.7147  -24.0270 C.3       4 GLC5        0.0000 
     88 CA         34.7631   65.9304  -25.5500 C.3       4 GLC5        0.0000 
@<TRIPOS>BOND
@<TRIPOS>SUBSTRUCTURE
     1 ALC1       50 GROUP        1 X    ALC  0     ROOT ALC X 1
     2 SEC2        1 GROUP        1 X    SEC  0     **** SEC X 2
     3 LYC4       67 GROUP        1 X    LYC  0     **** LYC X 4
     4 GLC5        4 GROUP        1 X    GLC  0     **** GLC X 6
     5 ALP1       52 GROUP        1 Y    ALP  0     ROOT ALP Y 8
     6 SEP2        3 GROUP        1 Y    SEP  0     **** SEP Y 9
     7 LYP4       69 GROUP        1 Y    LYP  0     **** LYP Y 11
     8 GLP5        6 GROUP        1 Y    GLP  0     **** GLP Y 13
     9 ALL1       51 GROUP        1 Z    ALL  0     ROOT ALL Z 15
    10 SEL2        2 GROUP        1 Z    SEL  0     **** SEL Z 16
    11 LYL4       68 GROUP        1 Z    LYL  0     **** LYL Z 18
    12 GLL5        5 GROUP        1 Z    GLL  0     **** GLL Z 20
@<TRIPOS>SET

