#    Name: 3f8r_NAP_3_ligand
#    Modification time : Tue Mar 25 03:25:12 2014

@<TRIPOS>MOLECULE
3f8r_NAP_3_ligand
   73    77     1     0     0
SMALL
NO_CHARGES


@<TRIPOS>ATOM
      1 PA         37.6500   67.2160  -31.8160 P.3       1 NAP4002     0.0000 
      2 O1A        37.9520   66.0220  -30.9840 O.co2     1 NAP4002     0.0000 
      3 O2A        38.6900   67.7350  -32.7420 O.co2     1 NAP4002     0.0000 
      4 O5B        36.2970   66.8950  -32.6490 O.3       1 NAP4002     0.0000 
      5 C5B        35.6390   67.8960  -33.4240 C.3       1 NAP4002     0.0000 
      6 C4B        35.2020   67.3770  -34.7820 C.3       1 NAP4002     0.0000 
      7 O4B        34.3430   68.2650  -35.4990 O.3       1 NAP4002     0.0000 
      8 C3B        36.3570   67.1220  -35.7560 C.3       1 NAP4002     0.0000 
      9 O3B        37.2900   66.0800  -35.4240 O.3       1 NAP4002     0.0000 
     10 C2B        35.6150   66.9440  -37.0520 C.3       1 NAP4002     0.0000 
     11 O2B        35.2330   65.6110  -37.3660 O.3       1 NAP4002     0.0000 
     12 C1B        34.4760   67.9250  -36.8900 C.3       1 NAP4002     0.0000 
     13 N9A        34.7330   69.1110  -37.7290 N.pl3     1 NAP4002     0.0000 
     14 C8A        35.8920   69.8660  -37.7700 C.2       1 NAP4002     0.0000 
     15 N7A        35.9010   70.8300  -38.6180 N.2       1 NAP4002     0.0000 
     16 C5A        34.6330   70.7240  -39.1960 C.ar      1 NAP4002     0.0000 
     17 C6A        33.9870   71.4680  -40.1920 C.ar      1 NAP4002     0.0000 
     18 N6A        34.5630   72.4880  -40.7950 N.pl3     1 NAP4002     0.0000 
     19 N1A        32.7120   71.1090  -40.5250 N.ar      1 NAP4002     0.0000 
     20 C2A        32.1250   70.0670  -39.9180 C.ar      1 NAP4002     0.0000 
     21 N3A        32.6240   69.2790  -38.9710 N.ar      1 NAP4002     0.0000 
     22 C4A        33.9100   69.6780  -38.6510 C.ar      1 NAP4002     0.0000 
     23 O3         37.2730   68.4610  -30.8230 O.3       1 NAP4002     0.0000 
     24 PN         36.2130   68.5280  -29.5790 P.3       1 NAP4002     0.0000 
     25 O1N        35.6440   69.8870  -29.6180 O.co2     1 NAP4002     0.0000 
     26 O2N        35.2650   67.3630  -29.6930 O.co2     1 NAP4002     0.0000 
     27 O5D        37.1330   68.4010  -28.2730 O.3       1 NAP4002     0.0000 
     28 C5D        38.5280   68.7440  -28.2700 C.3       1 NAP4002     0.0000 
     29 C4D        39.2770   67.9680  -27.2170 C.3       1 NAP4002     0.0000 
     30 O4D        38.6340   68.1100  -25.9320 O.3       1 NAP4002     0.0000 
     31 C3D        39.3210   66.4770  -27.5630 C.3       1 NAP4002     0.0000 
     32 O3D        40.6500   65.9550  -27.6070 O.3       1 NAP4002     0.0000 
     33 C2D        38.4080   65.8040  -26.5400 C.3       1 NAP4002     0.0000 
     34 O2D        38.8820   64.5300  -26.0780 O.3       1 NAP4002     0.0000 
     35 C1D        38.2800   66.8150  -25.4070 C.3       1 NAP4002     0.0000 
     36 N1N        36.9100   66.7770  -24.7710 N.pl3     1 NAP4002     0.0000 
     37 C2N        36.6680   65.8240  -23.7740 C.ar      1 NAP4002     0.0000 
     38 C3N        35.4400   65.6750  -23.2150 C.ar      1 NAP4002     0.0000 
     39 C7N        35.2330   64.5230  -22.1450 C.2       1 NAP4002     0.0000 
     40 O7N        34.1030   64.3900  -21.6950 O.2       1 NAP4002     0.0000 
     41 N7N        36.2400   63.7160  -21.7450 N.am      1 NAP4002     0.0000 
     42 C4N        34.4170   66.5150  -23.6010 C.ar      1 NAP4002     0.0000 
     43 C5N        34.6020   67.5140  -24.5610 C.ar      1 NAP4002     0.0000 
     44 C6N        35.8530   67.6450  -25.1650 C.ar      1 NAP4002     0.0000 
     45 P2B        35.9710   64.7750  -38.5330 P.3       1 NAP4002     0.0000 
     46 O1X        37.2870   65.4060  -38.6250 O.co2     1 NAP4002     0.0000 
     47 O2X        35.1110   64.9540  -39.7260 O.co2     1 NAP4002     0.0000 
     48 O3X        35.9620   63.4250  -37.9840 O.co2     1 NAP4002     0.0000 
     49 H          36.2964   68.7714  -33.5937 H         1 NAP4002     0.0000 
     50 H          34.7391   68.2808  -32.9051 H         1 NAP4002     0.0000 
     51 H          34.6948   66.4119  -34.6532 H         1 NAP4002     0.0000 
     52 H          36.8687   68.1120  -35.8512 H         1 NAP4002     0.0000 
     53 H          36.2699   67.3821  -37.8329 H         1 NAP4002     0.0000 
     54 H          33.5720   67.4285  -37.2439 H         1 NAP4002     0.0000 
     55 H          36.6634   69.6311  -37.1449 H         1 NAP4002     0.0000 
     56 H          34.0326   72.9273  -41.5200 H         1 NAP4002     0.0000 
     57 H          35.4782   72.7300  -40.4727 H         1 NAP4002     0.0000 
     58 H          31.0980   69.8385  -40.2498 H         1 NAP4002     0.0000 
     59 H          38.6715   69.8198  -28.0734 H         1 NAP4002     0.0000 
     60 H          38.9905   68.5327  -29.2488 H         1 NAP4002     0.0000 
     61 H          40.2948   68.3255  -27.1700 H         1 NAP4002     0.0000 
     62 H          38.8159   66.3810  -28.5377 H         1 NAP4002     0.0000 
     63 H          37.4201   65.7277  -26.9996 H         1 NAP4002     0.0000 
     64 H          39.0208   66.5194  -24.6439 H         1 NAP4002     0.0000 
     65 H          37.4632   65.2225  -23.4658 H         1 NAP4002     0.0000 
     66 H          37.1361   63.8965  -22.1505 H         1 NAP4002     0.0000 
     67 H          35.9998   63.0098  -21.0789 H         1 NAP4002     0.0000 
     68 H          33.4740   66.4083  -23.1685 H         1 NAP4002     0.0000 
     69 H          33.8359   68.1353  -24.8146 H         1 NAP4002     0.0000 
     70 H          36.0204   68.3486  -25.8798 H         1 NAP4002     0.0000 
     71 H          37.6456   65.7616  -36.3027 H         1 NAP4002     0.0000 
     72 H          40.6425   65.1751  -26.9812 H         1 NAP4002     0.0000 
     73 H          38.0716   63.9445  -26.0573 H         1 NAP4002     0.0000 
@<TRIPOS>BOND
     1    2    1 ar   
     2    3    1 ar   
     3    4    1 1    
     4   23    1 1    
     5    5    4 1    
     6    6    5 1    
     7   49    5 1    
     8   50    5 1    
     9    7    6 1    
    10    8    6 1    
    11   51    6 1    
    12   12    7 1    
    13    9    8 1    
    14   10    8 1    
    15   52    8 1    
    16   71    9 1    
    17   11   10 1    
    18   12   10 1    
    19   53   10 1    
    20   45   11 1    
    21   13   12 1    
    22   54   12 1    
    23   14   13 1    
    24   22   13 1    
    25   15   14 2    
    26   55   14 1    
    27   16   15 1    
    28   17   16 ar   
    29   22   16 ar   
    30   18   17 1    
    31   19   17 ar   
    32   56   18 1    
    33   57   18 1    
    34   20   19 ar   
    35   21   20 ar   
    36   58   20 1    
    37   22   21 ar   
    38   24   23 1    
    39   25   24 ar   
    40   26   24 ar   
    41   27   24 1    
    42   28   27 1    
    43   29   28 1    
    44   59   28 1    
    45   60   28 1    
    46   30   29 1    
    47   31   29 1    
    48   61   29 1    
    49   35   30 1    
    50   32   31 1    
    51   33   31 1    
    52   62   31 1    
    53   72   32 1    
    54   34   33 1    
    55   35   33 1    
    56   63   33 1    
    57   73   34 1    
    58   36   35 1    
    59   64   35 1    
    60   37   36 ar   
    61   44   36 ar   
    62   38   37 ar   
    63   65   37 1    
    64   39   38 1    
    65   42   38 ar   
    66   40   39 2    
    67   41   39 am   
    68   66   41 1    
    69   67   41 1    
    70   43   42 ar   
    71   68   42 1    
    72   44   43 ar   
    73   69   43 1    
    74   70   44 1    
    75   46   45 ar   
    76   47   45 ar   
    77   48   45 ar   
@<TRIPOS>SUBSTRUCTURE
     1 NAP4002     1 GROUP   
@<TRIPOS>SET

