#    Name: 2puu_G2G_1_INTS_M
#    Modification time : Mon Mar 24 19:24:23 2014

@<TRIPOS>MOLECULE
2puu_G2G_1_INTS_M
  100     0     9     0     0
SMALL
NO_CHARGES


@<TRIPOS>ATOM
      1 O          35.0305   32.3330   14.4530 O.2       1 ALC1        0.0000 
      2 O          33.5540   33.1470   14.5410 O.2       7 ALL1        0.0000 
      3 O          36.5070   31.5190   14.3650 O.2       4 ALP1        0.0000 
      4 CA         33.6045   32.5315   19.0855 C.3       3 GLC5        0.0000 
      5 CA         34.7110   34.1510   18.3220 C.3       9 GLL5        0.0000 
      6 CA         32.4980   30.9120   19.8490 C.3       6 GLP5        0.0000 
      7 CA         32.0330   36.1545   13.8745 C.3       3 GLC5        0.0000 
      8 CA         31.5250   34.3570   13.5760 C.3       9 GLL5        0.0000 
      9 CA         32.5410   37.9520   14.1730 C.3       6 GLP5        0.0000 
     10 CA         30.7095   35.2975   15.0975 C.3       3 GLC5        0.0000 
     11 CA         29.8940   36.2380   16.6190 C.3       6 GLP5        0.0000 
     12 CA         38.8555   34.2695   14.6340 C.3       3 GLC5        0.0000 
     13 CA         37.5820   35.2960   16.1010 C.3       9 GLL5        0.0000 
     14 CA         40.1290   33.2430   13.1670 C.3       6 GLP5        0.0000 
     15 CA         27.3270   36.3305   14.4520 C.3       3 GLC5        0.0000 
     16 CA         28.6880   35.4760   13.3820 C.3       9 GLL5        0.0000 
     17 CA         25.9660   37.1850   15.5220 C.3       6 GLP5        0.0000 
     18 CA         29.2910   35.8570   15.0005 C.3       3 GLC5        0.0000 
     19 CA         30.5410   36.9380    9.9230 C.3       3 GLC5        0.0000 
     20 CA         29.7660   35.7730   11.1190 C.3       9 GLL5        0.0000 
     21 CA         31.3160   38.1030    8.7270 C.3       6 GLP5        0.0000 
     22 CA         29.5020   37.7400   11.3435 C.3       3 GLC5        0.0000 
     23 CA         29.2380   39.7070   11.5680 C.3       6 GLP5        0.0000 
     24 CA         34.2160   30.3960   10.5400 C.3       3 GLC5        0.0000 
     25 CA         32.4490   30.2620   11.4490 C.3       9 GLL5        0.0000 
     26 CA         35.9830   30.5300    9.6310 C.3       6 GLP5        0.0000 
     27 CA         32.5930   27.8295    9.6735 C.3       3 GLC5        0.0000 
     28 CA         32.9450   28.9390   11.2290 C.3       9 GLL5        0.0000 
     29 CA         32.2410   26.7200    8.1180 C.3       6 GLP5        0.0000 
     30 CA         35.0150   25.4715   12.1165 C.3       3 GLC5        0.0000 
     31 CA         33.9750   26.8330   12.0840 C.3       9 GLL5        0.0000 
     32 CA         36.0550   24.1100   12.1490 C.3       6 GLP5        0.0000 
     33 CA         33.1080   26.7765   10.1010 C.3       3 GLC5        0.0000 
     34 N          32.0480   34.5215   16.1870 N.am      2 SEC2        0.0000 
     35 N          33.4980   35.1390   15.5480 N.am      8 SEL2        0.0000 
     36 N          30.5980   33.9040   16.8260 N.am      5 SEP2        0.0000 
     37 O          35.8300   32.6160   15.1745 O.2       1 ALC1        0.0000 
     38 O          35.1530   33.7130   15.9840 O.2       7 ALL1        0.0000 
     39 CA         38.1145   33.9130   18.0960 C.3       3 GLC5        0.0000 
     40 CA         37.1250   35.7520   18.5370 C.3       9 GLL5        0.0000 
     41 CA         39.1040   32.0740   17.6550 C.3       6 GLP5        0.0000 
     42 CA         39.5635   35.9970   20.2820 C.3       3 GLC5        0.0000 
     43 CA         38.3380   36.5380   18.5870 C.3       9 GLL5        0.0000 
     44 CA         40.7890   35.4560   21.9770 C.3       6 GLP5        0.0000 
     45 CA         39.0455   38.0580   19.8445 C.3       3 GLC5        0.0000 
     46 CA         39.7530   39.5780   21.1020 C.3       6 GLP5        0.0000 
     47 CA         38.1060   38.5625   21.1515 C.3       3 GLC5        0.0000 
     48 CA         36.4590   37.5470   21.2010 C.3       9 GLL5        0.0000 
     49 CA         38.2720   38.4365   22.3240 C.3       3 GLC5        0.0000 
     50 CA         36.7910   37.2950   23.5460 C.3       9 GLL5        0.0000 
     51 CA         38.1650   39.7735   24.6485 C.3       3 GLC5        0.0000 
     52 CA         36.9320   38.0100   24.8790 C.3       9 GLL5        0.0000 
     53 CA         39.3980   41.5370   24.4180 C.3       6 GLP5        0.0000 
     54 CA         32.0690   39.4925   26.6265 C.3       3 GLC5        0.0000 
     55 CA         33.1310   38.4090   25.4820 C.3       9 GLL5        0.0000 
     56 CA         31.0070   40.5760   27.7710 C.3       6 GLP5        0.0000 
     57 CA         32.6875   40.0475   27.5145 C.3       3 GLC5        0.0000 
     58 CA         34.3680   39.5190   27.2580 C.3       9 GLL5        0.0000 
     59 CA         33.3545   34.3407   12.5173 C.3       3 GLC5        0.0000 
     60 CA         32.3570   33.2080   13.6810 C.3       9 GLL5        0.0000 
     61 CA         34.7680   34.8990   11.4060 C.3       6 GLP5        0.0000 
     62 CA         34.9603   36.0828   16.9393 C.3       3 GLC5        0.0000 
     63 CA         34.7960   37.9300   16.1370 C.3       6 GLP5        0.0000 
     64 CA         32.8822   35.1702   19.3087 C.3       3 GLC5        0.0000 
     65 CA         30.8810   35.8880   19.6820 C.3       6 GLP5        0.0000 
     66 CA         37.9821   33.5405   17.1543 C.3       3 GLC5        0.0000 
     67 CA         35.5380   34.3200   17.1610 C.3       9 GLL5        0.0000 
     68 CA         37.5922   35.3878   14.2535 C.3       3 GLC5        0.0000 
     69 CA         37.0070   35.0870   12.3610 C.3       6 GLP5        0.0000 
     70 CA         36.4868   36.8092   16.1415 C.3       3 GLC5        0.0000 
     71 CA         40.2470   35.7383   15.4285 C.3       3 GLC5        0.0000 
     72 CA         39.1510   36.6960   17.4250 C.3       9 GLL5        0.0000 
     73 CA         41.5320   35.0880   14.0490 C.3       6 GLP5        0.0000 
     74 CA         38.5115   38.1247   16.0665 C.3       3 GLC5        0.0000 
     75 CA         38.7730   36.0810   16.1910 C.3       9 GLL5        0.0000 
     76 CA         38.0610   39.8610   15.3250 C.3       6 GLP5        0.0000 
     77 CA         30.6703   32.7856   14.4869 C.3       3 GLC5        0.0000 
     78 CA         30.1050   31.7140   15.8240 C.3       6 GLP5        0.0000 
     79 CA         31.4247   31.0907   14.5720 C.3       3 GLC5        0.0000 
     80 CA         32.4730   30.8520   12.7660 C.3       9 GLL5        0.0000 
     81 CA         32.0240   30.7250   10.1221 C.3       3 GLC5        0.0000 
     82 CA         31.3450   31.7020    8.5760 C.3       6 GLP5        0.0000 
     83 CA         34.7669   30.4109   12.7590 C.3       3 GLC5        0.0000 
     84 CA         36.4020   31.2120   12.0250 C.3       6 GLP5        0.0000 
     85 CA         35.0300   28.8990   11.4709 C.3       3 GLC5        0.0000 
     86 CA         33.4730   28.1950   12.3340 C.3       9 GLL5        0.0000 
     87 CA         36.4680   30.0980   11.0090 C.3       6 GLP5        0.0000 
     88 CA         35.8640   36.6820   17.0155 C.3       3 GLC5        0.0000 
     89 CA         36.7390   35.1160   17.2510 C.3       9 GLL5        0.0000 
     90 CA         39.7935   35.0196   18.0573 C.3       3 GLC5        0.0000 
     91 CA         40.9370   33.5760   18.4170 C.3       6 GLP5        0.0000 
     92 CA         38.0951   34.5727   21.9414 C.3       3 GLC5        0.0000 
     93 CA         36.4580   36.1320   21.0370 C.3       9 GLL5        0.0000 
     94 CA         39.5990   33.2890   21.9480 C.3       6 GLP5        0.0000 
     95 CA         38.4316   36.4739   25.1902 C.3       3 GLC5        0.0000 
     96 CA         36.8100   35.8680   23.4780 C.3       9 GLL5        0.0000 
     97 CA         39.9970   35.6520   26.1850 C.3       6 GLP5        0.0000 
     98 CA         33.1552   36.5590   24.1608 C.3       3 GLC5        0.0000 
     99 CA         34.4360   38.2770   24.6790 C.3       9 GLL5        0.0000 
    100 CA         32.5270   34.7750   23.2410 C.3       6 GLP5        0.0000 
@<TRIPOS>BOND
@<TRIPOS>SUBSTRUCTURE
     1 ALC1        1 GROUP        1 X    ALC  0     ROOT ALC X 1
     2 SEC2       34 GROUP        1 X    SEC  0     **** SEC X 2
     3 GLC5        4 GROUP        1 X    GLC  0     **** GLC X 6
     4 ALP1        3 GROUP        1 Y    ALP  0     ROOT ALP Y 8
     5 SEP2       36 GROUP        1 Y    SEP  0     **** SEP Y 9
     6 GLP5        6 GROUP        1 Y    GLP  0     **** GLP Y 13
     7 ALL1        2 GROUP        1 Z    ALL  0     ROOT ALL Z 15
     8 SEL2       35 GROUP        1 Z    SEL  0     **** SEL Z 16
     9 GLL5        5 GROUP        1 Z    GLL  0     **** GLL Z 20
@<TRIPOS>SET

