#    Name: 2puu_G2G_1_ligand
#    Modification time : Mon Mar 24 19:24:23 2014

@<TRIPOS>MOLECULE
2puu_G2G_1_ligand
   83    88     1     0     0
SMALL
NO_CHARGES


@<TRIPOS>ATOM
      1 C3         36.6390   35.2940   22.1870 C.ar      1 G2G391      0.0000 
      2 C2         32.3570   33.2080   13.6810 C.2       1 G2G391      0.0000 
      3 N1         33.5540   33.1470   14.5410 N.am      1 G2G391      0.0000 
      4 C7         36.8100   35.8680   23.4780 C.ar      1 G2G391      0.0000 
      5 C8         34.7110   34.1510   18.3220 C.ar      1 G2G391      0.0000 
      6 C10        31.5250   34.3570   13.5760 C.2       1 G2G391      0.0000 
      7 C25        35.5380   34.3200   17.1610 C.ar      1 G2G391      0.0000 
      8 C26        37.5820   35.2960   16.1010 C.ar      1 G2G391      0.0000 
      9 C27        38.7730   36.0810   16.1910 C.ar      1 G2G391      0.0000 
     10 C9         35.7060   39.3620   26.4900 C.3       1 G2G391      0.0000 
     11 C12        30.5300   33.9320   12.6710 C.2       1 G2G391      0.0000 
     12 C13        32.4730   30.8520   12.7660 C.ar      1 G2G391      0.0000 
     13 C14        29.3170   34.7460   12.1700 C.3       1 G2G391      0.0000 
     14 C15        28.6880   35.4760   13.3820 C.3       1 G2G391      0.0000 
     15 C16        28.2750   33.8010   11.5540 C.3       1 G2G391      0.0000 
     16 C17        29.7660   35.7730   11.1190 C.3       1 G2G391      0.0000 
     17 C18        33.0160   30.0830   13.8740 C.ar      1 G2G391      0.0000 
     18 C19        32.4490   30.2620   11.4490 C.ar      1 G2G391      0.0000 
     19 C20        32.9450   28.9390   11.2290 C.ar      1 G2G391      0.0000 
     20 C21        33.5190   28.7520   13.6660 C.ar      1 G2G391      0.0000 
     21 C22        33.9750   26.8330   12.0840 C.3       1 G2G391      0.0000 
     22 N7         31.9450   32.1630   12.9290 N.pl3     1 G2G391      0.0000 
     23 N8         30.7880   32.6380   12.2980 N.pl3     1 G2G391      0.0000 
     24 C24        34.0260   34.0690   15.3540 C.2       1 G2G391      0.0000 
     25 O1         33.4980   35.1390   15.5480 O.2       1 G2G391      0.0000 
     26 N4         35.1530   33.7130   15.9840 N.am      1 G2G391      0.0000 
     27 C4         36.7390   35.1160   17.2510 C.ar      1 G2G391      0.0000 
     28 C5         37.1250   35.7520   18.5370 C.ar      1 G2G391      0.0000 
     29 C6         36.2420   35.5520   19.6790 C.ar      1 G2G391      0.0000 
     30 C28        39.1510   36.6960   17.4250 C.ar      1 G2G391      0.0000 
     31 C29        38.3380   36.5380   18.5870 C.ar      1 G2G391      0.0000 
     32 C30        35.0560   34.7540   19.5490 C.ar      1 G2G391      0.0000 
     33 C37        36.4590   37.5470   21.2010 C.ar      1 G2G391      0.0000 
     34 C1         36.4580   36.1320   21.0370 C.ar      1 G2G391      0.0000 
     35 C36        36.7910   37.2950   23.5460 C.ar      1 G2G391      0.0000 
     36 N2         36.6240   38.0540   22.4250 N.ar      1 G2G391      0.0000 
     37 C23        36.9320   38.0100   24.8790 C.3       1 G2G391      0.0000 
     38 N3         35.6250   38.1490   25.6170 N.4       1 G2G391      0.0000 
     39 C31        34.4360   38.2770   24.6790 C.3       1 G2G391      0.0000 
     40 C32        33.1310   38.4090   25.4820 C.3       1 G2G391      0.0000 
     41 C33        34.3680   39.5190   27.2580 C.3       1 G2G391      0.0000 
     42 O2         33.2460   39.5750   26.3050 O.3       1 G2G391      0.0000 
     43 C34        33.4730   28.1950   12.3340 C.ar      1 G2G391      0.0000 
     44 H          36.6444   34.2815   22.0737 H         1 G2G391      0.0000 
     45 H          34.0747   32.1945   14.4513 H         1 G2G391      0.0000 
     46 H          36.9356   35.3106   24.2874 H         1 G2G391      0.0000 
     47 H          33.8624   33.5835   18.2470 H         1 G2G391      0.0000 
     48 H          31.6170   35.1530   13.9875 H         1 G2G391      0.0000 
     49 H          37.3261   34.8600   15.2180 H         1 G2G391      0.0000 
     50 H          39.3602   36.2040   15.3654 H         1 G2G391      0.0000 
     51 H          35.8629   40.2503   25.8927 H         1 G2G391      0.0000 
     52 H          36.5041   39.2574   27.2129 H         1 G2G391      0.0000 
     53 H          33.0372   30.4957   14.8007 H         1 G2G391      0.0000 
     54 H          32.0725   30.7999   10.6696 H         1 G2G391      0.0000 
     55 H          32.9240   28.5321   10.3052 H         1 G2G391      0.0000 
     56 H          33.8940   28.2198   14.4269 H         1 G2G391      0.0000 
     57 H          30.2557   32.1126   11.6861 H         1 G2G391      0.0000 
     58 H          35.7659   32.9606   15.5890 H         1 G2G391      0.0000 
     59 H          40.0042   37.2489   17.4737 H         1 G2G391      0.0000 
     60 H          38.6072   36.9794   19.4636 H         1 G2G391      0.0000 
     61 H          34.4547   34.6264   20.3713 H         1 G2G391      0.0000 
     62 H          36.3322   38.1306   20.3681 H         1 G2G391      0.0000 
     63 H          37.3606   39.0098   24.7039 H         1 G2G391      0.0000 
     64 H          37.6487   37.4565   25.5066 H         1 G2G391      0.0000 
     65 H          35.4829   37.2816   26.2476 H         1 G2G391      0.0000 
     66 H          34.3730   37.3957   24.0462 H         1 G2G391      0.0000 
     67 H          34.5563   39.1582   24.0544 H         1 G2G391      0.0000 
     68 H          33.0109   37.5043   26.0704 H         1 G2G391      0.0000 
     69 H          32.3123   38.4888   24.7732 H         1 G2G391      0.0000 
     70 H          34.4255   40.4323   27.8481 H         1 G2G391      0.0000 
     71 H          34.2666   38.6695   27.9316 H         1 G2G391      0.0000 
     72 H          29.3372   36.0993   13.8180 H         1 G2G391      0.0000 
     73 H          27.8926   36.0205   13.1157 H         1 G2G391      0.0000 
     74 H          28.3816   34.8335   14.0844 H         1 G2G391      0.0000 
     75 H          28.6483   33.2911   10.7790 H         1 G2G391      0.0000 
     76 H          27.9462   33.1281   12.2166 H         1 G2G391      0.0000 
     77 H          27.4745   34.2982   11.2194 H         1 G2G391      0.0000 
     78 H          30.4329   36.4184   11.4916 H         1 G2G391      0.0000 
     79 H          30.1933   35.3334   10.3290 H         1 G2G391      0.0000 
     80 H          28.9974   36.3120   10.7744 H         1 G2G391      0.0000 
     81 H          34.7216   26.8287   11.4188 H         1 G2G391      0.0000 
     82 H          34.3236   26.4066   12.9187 H         1 G2G391      0.0000 
     83 H          33.2595   26.2335   11.7254 H         1 G2G391      0.0000 
@<TRIPOS>BOND
     1    4    1 ar   
     2   34    1 ar   
     3   44    1 1    
     4    3    2 1    
     5    6    2 1    
     6   22    2 2    
     7   24    3 am   
     8   45    3 1    
     9   35    4 ar   
    10   46    4 1    
    11    7    5 ar   
    12   32    5 ar   
    13   47    5 1    
    14   11    6 2    
    15   48    6 1    
    16   26    7 1    
    17   27    7 ar   
    18    9    8 ar   
    19   27    8 ar   
    20   49    8 1    
    21   30    9 ar   
    22   50    9 1    
    23   38   10 1    
    24   41   10 1    
    25   51   10 1    
    26   52   10 1    
    27   13   11 1    
    28   23   11 1    
    29   17   12 ar   
    30   18   12 ar   
    31   22   12 1    
    32   14   13 1    
    33   15   13 1    
    34   16   13 1    
    35   72   14 1    
    36   73   14 1    
    37   74   14 1    
    38   75   15 1    
    39   76   15 1    
    40   77   15 1    
    41   78   16 1    
    42   79   16 1    
    43   80   16 1    
    44   20   17 ar   
    45   53   17 1    
    46   19   18 ar   
    47   54   18 1    
    48   43   19 ar   
    49   55   19 1    
    50   43   20 ar   
    51   56   20 1    
    52   43   21 1    
    53   81   21 1    
    54   82   21 1    
    55   83   21 1    
    56   23   22 1    
    57   57   23 1    
    58   25   24 2    
    59   26   24 am   
    60   58   26 1    
    61   28   27 ar   
    62   29   28 ar   
    63   31   28 ar   
    64   32   29 ar   
    65   34   29 1    
    66   31   30 ar   
    67   59   30 1    
    68   60   31 1    
    69   61   32 1    
    70   34   33 ar   
    71   36   33 ar   
    72   62   33 1    
    73   36   35 ar   
    74   37   35 1    
    75   38   37 1    
    76   63   37 1    
    77   64   37 1    
    78   39   38 1    
    79   65   38 1    
    80   40   39 1    
    81   66   39 1    
    82   67   39 1    
    83   42   40 1    
    84   68   40 1    
    85   69   40 1    
    86   42   41 1    
    87   70   41 1    
    88   71   41 1    
@<TRIPOS>SUBSTRUCTURE
     1 G2G391      1 GROUP   
@<TRIPOS>SET

