#    Name: 1dht_DHT_1_INTS_M
#    Modification time : Mon Mar 24 21:58:19 2014

@<TRIPOS>MOLECULE
1dht_DHT_1_INTS_M
   64     0     9     0     0
SMALL
NO_CHARGES


@<TRIPOS>ATOM
      1 CA         12.0160   11.3740  -13.2910 C.3       3 GLC5        0.0000 
      2 CA         10.1350   11.2960  -12.4940 C.3       9 GLL5        0.0000 
      3 CA         13.8970   11.4520  -14.0880 C.3       6 GLP5        0.0000 
      4 CA          7.0600   12.6665  -12.8800 C.3       3 GLC5        0.0000 
      5 CA          9.1160   12.2510  -13.2330 C.3       9 GLL5        0.0000 
      6 CA          5.0040   13.0820  -12.5270 C.3       6 GLP5        0.0000 
      7 N           8.4895   12.1625  -16.2090 N.am      2 SEC2        0.0000 
      8 N           7.5640   12.3170  -15.1650 N.am      8 SEL2        0.0000 
      9 N           9.4150   12.0080  -17.2530 N.am      5 SEP2        0.0000 
     10 CA          7.0855   10.4985  -15.8795 C.3       3 GLC5        0.0000 
     11 CA          8.4600   10.0270  -14.7830 C.3       9 GLL5        0.0000 
     12 CA          5.7110   10.9700  -16.9760 C.3       6 GLP5        0.0000 
     13 CA          9.3365    6.0800  -14.6775 C.3       3 GLC5        0.0000 
     14 CA         10.6530    6.9070  -13.5170 C.3       9 GLL5        0.0000 
     15 CA          8.0200    5.2530  -15.8380 C.3       6 GLP5        0.0000 
     16 CA          8.8615    7.1445  -10.9510 C.3       3 GLC5        0.0000 
     17 CA         10.7000    7.3050  -12.0170 C.3       9 GLL5        0.0000 
     18 CA          7.0230    6.9840   -9.8850 C.3       6 GLP5        0.0000 
     19 CA         12.5045   10.1580  -13.0160 C.3       3 GLC5        0.0000 
     20 CA         11.1120    8.8640  -11.9440 C.3       9 GLL5        0.0000 
     21 CA         12.3725   11.2215  -10.3535 C.3       3 GLC5        0.0000 
     22 CA         11.6130    9.3220  -10.5050 C.3       9 GLL5        0.0000 
     23 CA         13.1320   13.1210  -10.2020 C.3       6 GLP5        0.0000 
     24 CA         13.3650    9.2830   -8.0705 C.3       3 GLC5        0.0000 
     25 CA         12.3050    8.2560   -9.5820 C.3       9 GLL5        0.0000 
     26 CA         14.4250   10.3100   -6.5590 C.3       6 GLP5        0.0000 
     27 CA         13.6370    6.2575  -11.8425 C.3       3 GLC5        0.0000 
     28 CA         11.6940    6.3910  -11.1590 C.3       9 GLL5        0.0000 
     29 CA         15.5800    6.1240  -12.5260 C.3       6 GLP5        0.0000 
     30 CA         10.5100    3.7230   -8.4440 C.3       3 GLC5        0.0000 
     31 CA         12.1430    4.4090   -9.7980 C.3       9 GLL5        0.0000 
     32 CA          8.8770    3.0370   -7.0900 C.3       6 GLP5        0.0000 
     33 CA         14.3545    6.9480   -9.1635 C.3       3 GLC5        0.0000 
     34 CA         12.5720    5.7000   -9.0560 C.3       9 GLL5        0.0000 
     35 CA         16.1370    8.1960   -9.2710 C.3       6 GLP5        0.0000 
     36 O          11.2540    5.8360   -6.4405 O.2       1 ALC1        0.0000 
     37 O          12.4190    5.5380   -7.6280 O.2       7 ALL1        0.0000 
     38 O          10.0890    6.1340   -5.2530 O.2       4 ALP1        0.0000 
     39 CA          8.5890    7.0390   -7.5985 C.3       3 GLC5        0.0000 
     40 CA         10.2340    6.8750   -8.9200 C.3       9 GLL5        0.0000 
     41 CA          6.9440    7.2030   -6.2770 C.3       6 GLP5        0.0000 
     42 CA          8.6285    6.9295   -9.4025 C.3       3 GLC5        0.0000 
     43 CA          9.5555    4.9560   -8.0050 C.3       3 GLC5        0.0000 
     44 CA         10.8272   12.8068  -11.7473 C.3       3 GLC5        0.0000 
     45 CA         12.0290   13.8400  -10.6310 C.3       6 GLP5        0.0000 
     46 CA          9.1525   10.2293  -16.1352 C.3       3 GLC5        0.0000 
     47 CA          9.2280   10.7920  -17.8310 C.3       6 GLP5        0.0000 
     48 CA          8.3345    7.5669  -15.2691 C.3       3 GLC5        0.0000 
     49 CA          9.6940    9.3060  -14.0960 C.3       9 GLL5        0.0000 
     50 CA          7.3390    6.4300  -16.1690 C.3       6 GLP5        0.0000 
     51 CA         11.0605    6.8285  -15.4250 C.3       3 GLC5        0.0000 
     52 CA          9.5830    7.7410  -14.2990 C.3       9 GLL5        0.0000 
     53 CA         12.0030    6.3330  -16.9420 C.3       6 GLP5        0.0000 
     54 CA          7.6498    9.4075  -11.3130 C.3       3 GLC5        0.0000 
     55 CA          9.8770    9.7120  -12.5250 C.3       9 GLL5        0.0000 
     56 CA          6.0690    9.2480  -10.5260 C.3       6 GLP5        0.0000 
     57 CA         10.9930    9.2680   -8.6893 C.3       3 GLC5        0.0000 
     58 CA         10.0270    9.7470   -7.3350 C.3       6 GLP5        0.0000 
     59 CA         13.4305    9.5585   -9.7967 C.3       3 GLC5        0.0000 
     60 CA         14.9020   10.3280   -9.5500 C.3       6 GLP5        0.0000 
     61 CA         10.4875    8.3005   -8.3077 C.3       3 GLC5        0.0000 
     62 CA         11.6620    6.8330   -9.6410 C.3       9 GLL5        0.0000 
     63 CA         12.8987    3.8420  -11.8655 C.3       3 GLC5        0.0000 
     64 CA         14.0170    3.0450  -13.2870 C.3       6 GLP5        0.0000 
@<TRIPOS>BOND
@<TRIPOS>SUBSTRUCTURE
     1 ALC1       36 GROUP        1 X    ALC  0     ROOT ALC X 1
     2 SEC2        7 GROUP        1 X    SEC  0     **** SEC X 2
     3 GLC5        1 GROUP        1 X    GLC  0     **** GLC X 6
     4 ALP1       38 GROUP        1 Y    ALP  0     ROOT ALP Y 8
     5 SEP2        9 GROUP        1 Y    SEP  0     **** SEP Y 9
     6 GLP5        3 GROUP        1 Y    GLP  0     **** GLP Y 13
     7 ALL1       37 GROUP        1 Z    ALL  0     ROOT ALL Z 15
     8 SEL2        8 GROUP        1 Z    SEL  0     **** SEL Z 16
     9 GLL5        2 GROUP        1 Z    GLL  0     **** GLL Z 20
@<TRIPOS>SET

