#    Name: 1dht_DHT_1_ligand
#    Modification time : Mon Mar 24 21:58:19 2014

@<TRIPOS>MOLECULE
1dht_DHT_1_ligand
   51    54     1     0     0
SMALL
NO_CHARGES


@<TRIPOS>ATOM
      1 C1         10.1350   11.2960  -12.4940 C.3       1 DHT400      0.0000 
      2 C2          9.1160   12.2510  -13.2330 C.3       1 DHT400      0.0000 
      3 C3          8.3890   11.5340  -14.3960 C.2       1 DHT400      0.0000 
      4 O3          7.5640   12.3170  -15.1650 O.2       1 DHT400      0.0000 
      5 C4          8.4600   10.0270  -14.7830 C.3       1 DHT400      0.0000 
      6 C5          9.6940    9.3060  -14.0960 C.3       1 DHT400      0.0000 
      7 C6          9.5830    7.7410  -14.2990 C.3       1 DHT400      0.0000 
      8 C7         10.6530    6.9070  -13.5170 C.3       1 DHT400      0.0000 
      9 C8         10.7000    7.3050  -12.0170 C.3       1 DHT400      0.0000 
     10 C9         11.1120    8.8640  -11.9440 C.3       1 DHT400      0.0000 
     11 C10         9.8770    9.7120  -12.5250 C.3       1 DHT400      0.0000 
     12 C11        11.6130    9.3220  -10.5050 C.3       1 DHT400      0.0000 
     13 C12        12.3050    8.2560   -9.5820 C.3       1 DHT400      0.0000 
     14 C13        11.6620    6.8330   -9.6410 C.3       1 DHT400      0.0000 
     15 C14        11.6940    6.3910  -11.1590 C.3       1 DHT400      0.0000 
     16 C15        11.4180    4.8690  -11.0900 C.3       1 DHT400      0.0000 
     17 C16        12.1430    4.4090   -9.7980 C.3       1 DHT400      0.0000 
     18 C17        12.5720    5.7000   -9.0560 C.3       1 DHT400      0.0000 
     19 O17        12.4190    5.5380   -7.6280 O.3       1 DHT400      0.0000 
     20 C18        10.2340    6.8750   -8.9200 C.3       1 DHT400      0.0000 
     21 C19         8.5840    9.4220  -11.6750 C.3       1 DHT400      0.0000 
     22 H          10.1913   11.6026  -11.4268 H         1 DHT400      0.0000 
     23 H          11.1494   11.4756  -12.9121 H         1 DHT400      0.0000 
     24 H           9.6680   13.1022  -13.6203 H         1 DHT400      0.0000 
     25 H           8.3860   12.5959  -12.5068 H         1 DHT400      0.0000 
     26 H           8.5680    9.9360  -15.8562 H         1 DHT400      0.0000 
     27 H           7.5539    9.5299  -14.4610 H         1 DHT400      0.0000 
     28 H          10.5969    9.6376  -14.6137 H         1 DHT400      0.0000 
     29 H           9.6800    7.5268  -15.3684 H         1 DHT400      0.0000 
     30 H           8.5848    7.4243  -13.9792 H         1 DHT400      0.0000 
     31 H          11.6257    7.0835  -13.9638 H         1 DHT400      0.0000 
     32 H          10.4018    5.8549  -13.5994 H         1 DHT400      0.0000 
     33 H           9.7121    7.2257  -11.6030 H         1 DHT400      0.0000 
     34 H          11.9343    8.9892  -12.6573 H         1 DHT400      0.0000 
     35 H          10.7388    9.7417   -9.9621 H         1 DHT400      0.0000 
     36 H          12.3153   10.1714  -10.6477 H         1 DHT400      0.0000 
     37 H          12.2675    8.6169   -8.5474 H         1 DHT400      0.0000 
     38 H          13.3594    8.1784   -9.8723 H         1 DHT400      0.0000 
     39 H          12.7058    6.5509  -11.4897 H         1 DHT400      0.0000 
     40 H          11.8516    4.3913  -11.9271 H         1 DHT400      0.0000 
     41 H          10.3793    4.7007  -10.9908 H         1 DHT400      0.0000 
     42 H          13.0083    3.8455  -10.0593 H         1 DHT400      0.0000 
     43 H          11.4649    3.8580   -9.1888 H         1 DHT400      0.0000 
     44 H          13.5791    5.9154   -9.3470 H         1 DHT400      0.0000 
     45 H          10.3097    7.1512   -7.9619 H         1 DHT400      0.0000 
     46 H           9.6130    7.5215   -9.3632 H         1 DHT400      0.0000 
     47 H           9.7850    5.9816   -8.9329 H         1 DHT400      0.0000 
     48 H           8.3634    8.4468  -11.6555 H         1 DHT400      0.0000 
     49 H           8.6896    9.7177  -10.7256 H         1 DHT400      0.0000 
     50 H           7.7839    9.8962  -12.0424 H         1 DHT400      0.0000 
     51 H          11.5116    5.9043   -7.4219 H         1 DHT400      0.0000 
@<TRIPOS>BOND
     1    2    1 1    
     2   11    1 1    
     3   22    1 1    
     4   23    1 1    
     5    3    2 1    
     6   24    2 1    
     7   25    2 1    
     8    4    3 2    
     9    5    3 1    
    10    6    5 1    
    11   26    5 1    
    12   27    5 1    
    13    7    6 1    
    14   11    6 1    
    15   28    6 1    
    16    8    7 1    
    17   29    7 1    
    18   30    7 1    
    19    9    8 1    
    20   31    8 1    
    21   32    8 1    
    22   10    9 1    
    23   15    9 1    
    24   33    9 1    
    25   11   10 1    
    26   12   10 1    
    27   34   10 1    
    28   21   11 1    
    29   13   12 1    
    30   35   12 1    
    31   36   12 1    
    32   14   13 1    
    33   37   13 1    
    34   38   13 1    
    35   15   14 1    
    36   18   14 1    
    37   20   14 1    
    38   16   15 1    
    39   39   15 1    
    40   17   16 1    
    41   40   16 1    
    42   41   16 1    
    43   18   17 1    
    44   42   17 1    
    45   43   17 1    
    46   19   18 1    
    47   44   18 1    
    48   51   19 1    
    49   45   20 1    
    50   46   20 1    
    51   47   20 1    
    52   48   21 1    
    53   49   21 1    
    54   50   21 1    
@<TRIPOS>SUBSTRUCTURE
     1 DHT400      1 GROUP   
@<TRIPOS>SET

