#    Name: 3s2p_PMU_1_INTS_M
#    Modification time : Tue Mar 25 12:07:20 2014

@<TRIPOS>MOLECULE
3s2p_PMU_1_INTS_M
   56     0     9     0     0
SMALL
NO_CHARGES


@<TRIPOS>ATOM
      1 CA         29.2530   26.5740   27.0175 C.3       3 GLC5        0.0000 
      2 CA         28.1550   27.2940   25.7680 C.3       9 GLL5        0.0000 
      3 CA         30.3510   25.8540   28.2670 C.3       6 GLP5        0.0000 
      4 O          22.8335   30.2820   30.4185 O.2       1 ALC1        0.0000 
      5 O          24.1860   29.9110   30.2760 O.2       7 ALL1        0.0000 
      6 O          21.4810   30.6530   30.5610 O.2       4 ALP1        0.0000 
      7 O          28.7960   27.9725   22.0015 O.2       1 ALC1        0.0000 
      8 O          27.2950   27.6400   22.2250 O.2       7 ALL1        0.0000 
      9 O          30.2970   28.3050   21.7780 O.2       4 ALP1        0.0000 
     10 N          30.9870   27.3000   24.5805 N.am      2 SEC2        0.0000 
     11 N          29.8170   27.2000   23.9610 N.am      8 SEL2        0.0000 
     12 N          32.1570   27.4000   25.2000 N.am      5 SEP2        0.0000 
     13 O          30.2445   28.6320   23.5065 O.2       1 ALC1        0.0000 
     14 O          29.8170   27.2000   23.9610 O.2       7 ALL1        0.0000 
     15 O          30.6720   30.0640   23.0520 O.2       4 ALP1        0.0000 
     16 O          30.0570   27.7525   22.8695 O.2       1 ALC1        0.0000 
     17 CA         25.6160   28.5430   22.5810 C.3       3 GLC5        0.0000 
     18 CA         26.3760   28.3090   24.3870 C.3       9 GLL5        0.0000 
     19 CA         24.8560   28.7770   20.7750 C.3       6 GLP5        0.0000 
     20 CA         24.5085   29.0305   25.0025 C.3       3 GLC5        0.0000 
     21 CA         22.6410   29.7520   25.6180 C.3       6 GLP5        0.0000 
     22 CA         26.8955   28.5685   21.7775 C.3       3 GLC5        0.0000 
     23 CA         27.6130   28.1200   23.5210 C.3       9 GLL5        0.0000 
     24 CA         26.1780   29.0170   20.0340 C.3       6 GLP5        0.0000 
     25 CA         22.8920   26.1005   30.9030 C.3       3 GLC5        0.0000 
     26 CA         21.2040   27.2700   30.4450 C.3       9 GLL5        0.0000 
     27 CA         24.5800   24.9310   31.3610 C.3       6 GLP5        0.0000 
     28 CA         20.0640   28.7130   30.8880 C.3       3 GLC5        0.0000 
     29 CA         18.9240   30.1560   31.3310 C.3       6 GLP5        0.0000 
     30 CA         19.7665   27.8340   29.2180 C.3       3 GLC5        0.0000 
     31 CA         18.3290   28.3980   27.9910 C.3       6 GLP5        0.0000 
     32 CA         17.8475   25.9130   27.3880 C.3       3 GLC5        0.0000 
     33 CA         19.3550   24.8320   27.5650 C.3       9 GLL5        0.0000 
     34 CA         16.3400   26.9940   27.2110 C.3       6 GLP5        0.0000 
     35 CA         17.9745   24.0645   26.6095 C.3       3 GLC5        0.0000 
     36 CA         16.5940   23.2970   25.6540 C.3       6 GLP5        0.0000 
     37 CA         19.8515   27.0805   28.3570 C.3       3 GLC5        0.0000 
     38 CA         21.3740   25.7630   28.7230 C.3       9 GLL5        0.0000 
     39 CA         27.0977   30.4224   29.7821 C.3       3 GLC5        0.0000 
     40 CA         24.8130   29.3990   29.1590 C.3       9 GLL5        0.0000 
     41 CA         28.1360   31.1630   31.3020 C.3       6 GLP5        0.0000 
     42 CA         24.9802   30.7259   27.3441 C.3       3 GLC5        0.0000 
     43 CA         25.9950   30.0720   28.7280 C.3       9 GLL5        0.0000 
     44 CA         23.9010   31.7700   26.4260 C.3       6 GLP5        0.0000 
     45 CA         24.1462   28.9592   26.3537 C.3       3 GLC5        0.0000 
     46 CA         26.2390   28.4970   26.8680 C.3       9 GLL5        0.0000 
     47 CA         24.1305   26.4142   30.0260 C.3       3 GLC5        0.0000 
     48 CA         24.3120   28.2590   28.4620 C.3       9 GLL5        0.0000 
     49 CA         26.7563   30.0433   23.5015 C.3       3 GLC5        0.0000 
     50 CA         26.5180   31.8720   23.0490 C.3       6 GLP5        0.0000 
     51 CA         20.3814   25.4937   25.8291 C.3       3 GLC5        0.0000 
     52 CA         21.6720   24.0380   26.9030 C.3       9 GLL5        0.0000 
     53 CA         20.4720   26.4290   24.1350 C.3       6 GLP5        0.0000 
     54 CA         23.2715   25.5083   29.9213 C.3       3 GLC5        0.0000 
     55 CA         22.8788   28.4524   27.0418 C.3       3 GLC5        0.0000 
     56 CA         22.5520   26.4080   28.2400 C.3       9 GLL5        0.0000 
@<TRIPOS>BOND
@<TRIPOS>SUBSTRUCTURE
     1 ALC1        4 GROUP        1 X    ALC  0     ROOT ALC X 1
     2 SEC2       10 GROUP        1 X    SEC  0     **** SEC X 2
     3 GLC5        1 GROUP        1 X    GLC  0     **** GLC X 6
     4 ALP1        6 GROUP        1 Y    ALP  0     ROOT ALP Y 8
     5 SEP2       12 GROUP        1 Y    SEP  0     **** SEP Y 9
     6 GLP5        3 GROUP        1 Y    GLP  0     **** GLP Y 13
     7 ALL1        5 GROUP        1 Z    ALL  0     ROOT ALL Z 15
     8 SEL2       11 GROUP        1 Z    SEL  0     **** SEL Z 16
     9 GLL5        2 GROUP        1 Z    GLL  0     **** GLL Z 20
@<TRIPOS>SET

