#    Name: 3s2p_PMU_1_ligand
#    Modification time : Tue Mar 25 12:07:20 2014

@<TRIPOS>MOLECULE
3s2p_PMU_1_ligand
   46    48     1     0     0
SMALL
NO_CHARGES


@<TRIPOS>ATOM
      1 C1         28.1550   27.2940   25.7680 C.3       1 PMU500      0.0000 
      2 N1         26.8950   28.0530   25.7380 N.3       1 PMU500      0.0000 
      3 O1         24.1860   29.9110   30.2760 O.3       1 PMU500      0.0000 
      4 C2         24.8130   29.3990   29.1590 C.ar      1 PMU500      0.0000 
      5 O2         27.2950   27.6400   22.2250 O.3       1 PMU500      0.0000 
      6 C3         25.9950   30.0720   28.7280 C.ar      1 PMU500      0.0000 
      7 O3         29.8170   27.2000   23.9610 O.3       1 PMU500      0.0000 
      8 C4         26.7150   29.6280   27.5810 C.ar      1 PMU500      0.0000 
      9 C5         26.2390   28.4970   26.8680 C.ar      1 PMU500      0.0000 
     10 C6         25.0640   27.8360   27.3110 C.ar      1 PMU500      0.0000 
     11 C7         24.3120   28.2590   28.4620 C.ar      1 PMU500      0.0000 
     12 C8         26.3760   28.3090   24.3870 C.3       1 PMU500      0.0000 
     13 C9         28.4370   27.0560   24.2720 C.3       1 PMU500      0.0000 
     14 C10        27.6130   28.1200   23.5210 C.3       1 PMU500      0.0000 
     15 C11        20.7810   24.5320   28.0600 C.3       1 PMU500      0.0000 
     16 C12        21.6720   24.0380   26.9030 C.3       1 PMU500      0.0000 
     17 C15        23.0500   27.5360   28.9200 C.ar      1 PMU500      0.0000 
     18 N16        22.3120   27.9370   30.0520 N.ar      1 PMU500      0.0000 
     19 C17        21.2040   27.2700   30.4450 C.ar      1 PMU500      0.0000 
     20 C18        19.3550   24.8320   27.5650 C.3       1 PMU500      0.0000 
     21 N18        20.7080   26.1960   29.8210 N.ar      1 PMU500      0.0000 
     22 C19        21.3740   25.7630   28.7230 C.ar      1 PMU500      0.0000 
     23 C20        22.5520   26.4080   28.2400 C.ar      1 PMU500      0.0000 
     24 N21        20.5300   27.6530   31.5160 N.pl3     1 PMU500      0.0000 
     25 H          28.0322   26.3541   26.2442 H         1 PMU500      0.0000 
     26 H          28.9471   27.8701   26.1755 H         1 PMU500      0.0000 
     27 H          26.3302   30.8856   29.2507 H         1 PMU500      0.0000 
     28 H          27.5496   30.1119   27.2828 H         1 PMU500      0.0000 
     29 H          24.7248   27.0079   26.7854 H         1 PMU500      0.0000 
     30 H          26.0315   29.3093   24.2891 H         1 PMU500      0.0000 
     31 H          25.6446   27.5892   24.1118 H         1 PMU500      0.0000 
     32 H          28.0416   26.0987   24.0093 H         1 PMU500      0.0000 
     33 H          28.1745   29.0190   23.5237 H         1 PMU500      0.0000 
     34 H          20.7170   23.7370   28.7999 H         1 PMU500      0.0000 
     35 H          23.0200   26.0504   27.4136 H         1 PMU500      0.0000 
     36 H          20.9068   28.4316   32.0179 H         1 PMU500      0.0000 
     37 H          19.7046   27.1294   31.7270 H         1 PMU500      0.0000 
     38 H          22.6037   23.8423   27.2092 H         1 PMU500      0.0000 
     39 H          21.3160   23.1985   26.4924 H         1 PMU500      0.0000 
     40 H          21.7403   24.7161   26.1712 H         1 PMU500      0.0000 
     41 H          19.3483   25.5400   26.8588 H         1 PMU500      0.0000 
     42 H          18.9202   24.0218   27.1720 H         1 PMU500      0.0000 
     43 H          18.7642   25.1514   28.3059 H         1 PMU500      0.0000 
     44 H          23.2195   29.6831   30.1574 H         1 PMU500      0.0000 
     45 H          28.1441   27.7223   21.7031 H         1 PMU500      0.0000 
     46 H          29.8774   28.0518   23.4407 H         1 PMU500      0.0000 
@<TRIPOS>BOND
     1    2    1 1    
     2   13    1 1    
     3   25    1 1    
     4   26    1 1    
     5    9    2 1    
     6   12    2 1    
     7    4    3 1    
     8   44    3 1    
     9    6    4 ar   
    10   11    4 ar   
    11   14    5 1    
    12   45    5 1    
    13    8    6 ar   
    14   27    6 1    
    15   13    7 1    
    16   46    7 1    
    17    9    8 ar   
    18   28    8 1    
    19   10    9 ar   
    20   11   10 ar   
    21   29   10 1    
    22   17   11 1    
    23   14   12 1    
    24   30   12 1    
    25   31   12 1    
    26   14   13 1    
    27   32   13 1    
    28   33   14 1    
    29   16   15 1    
    30   20   15 1    
    31   22   15 1    
    32   34   15 1    
    33   38   16 1    
    34   39   16 1    
    35   40   16 1    
    36   18   17 ar   
    37   23   17 ar   
    38   19   18 ar   
    39   21   19 ar   
    40   24   19 1    
    41   41   20 1    
    42   42   20 1    
    43   43   20 1    
    44   22   21 ar   
    45   23   22 ar   
    46   35   23 1    
    47   36   24 1    
    48   37   24 1    
@<TRIPOS>SUBSTRUCTURE
     1 PMU500      1 GROUP   
@<TRIPOS>SET

