#    Name: 3p7b_P7B_1_INTS_M
#    Modification time : Tue Mar 25 06:02:03 2014

@<TRIPOS>MOLECULE
3p7b_P7B_1_INTS_M
   93     0     9     0     0
SMALL
NO_CHARGES


@<TRIPOS>ATOM
      1 CA         50.4935   28.1450  -20.8535 C.3       3 GLC5        0.0000 
      2 CA         50.0950   28.2640  -19.0980 C.3       9 GLL5        0.0000 
      3 CA         50.8920   28.0260  -22.6090 C.3       6 GLP5        0.0000 
      4 CA         49.2080   29.5815  -20.3435 C.3       3 GLC5        0.0000 
      5 CA         48.3210   30.8990  -21.5890 C.3       6 GLP5        0.0000 
      6 CA         49.1260   24.0860  -20.5745 C.3       3 GLC5        0.0000 
      7 CA         48.2680   25.5020  -19.5860 C.3       9 GLL5        0.0000 
      8 CA         49.9840   22.6700  -21.5630 C.3       6 GLP5        0.0000 
      9 CA         47.9415   25.3855  -21.4785 C.3       3 GLC5        0.0000 
     10 CA         47.6150   25.2690  -23.3710 C.3       6 GLP5        0.0000 
     11 CA         46.2315   25.3475  -20.4395 C.3       3 GLC5        0.0000 
     12 CA         44.1950   25.1930  -21.2930 C.3       6 GLP5        0.0000 
     13 CA         46.2390   24.5580  -16.7235 C.3       3 GLC5        0.0000 
     14 CA         46.8060   26.4070  -17.6760 C.3       9 GLL5        0.0000 
     15 CA         45.6720   22.7090  -15.7710 C.3       6 GLP5        0.0000 
     16 CA         44.9870   26.8700  -16.5910 C.3       3 GLC5        0.0000 
     17 CA         43.1680   27.3330  -15.5060 C.3       6 GLP5        0.0000 
     18 CA         47.4700   26.4565  -21.5680 C.3       3 GLC5        0.0000 
     19 CA         47.3250   27.6440  -19.7650 C.3       9 GLL5        0.0000 
     20 CA         45.7600   26.4185  -20.5290 C.3       3 GLC5        0.0000 
     21 CA         45.8425   28.4425  -20.8005 C.3       3 GLC5        0.0000 
     22 CA         44.3600   29.2410  -21.8360 C.3       6 GLP5        0.0000 
     23 CA         47.8230   29.2715  -20.6770 C.3       3 GLC5        0.0000 
     24 O          53.9025   29.5160  -17.4245 O.2       1 ALC1        0.0000 
     25 O          52.4090   29.3140  -17.9280 O.2       7 ALL1        0.0000 
     26 O          55.3960   29.7180  -16.9210 O.2       4 ALP1        0.0000 
     27 N          50.3320   31.0915  -19.5680 N.am      2 SEC2        0.0000 
     28 N          51.6930   30.5480  -19.7680 N.am      8 SEL2        0.0000 
     29 N          48.9710   31.6350  -19.3680 N.am      5 SEP2        0.0000 
     30 O          54.5855   30.2720  -17.9625 O.2       1 ALC1        0.0000 
     31 O          53.7750   30.8260  -19.0040 O.2       7 ALL1        0.0000 
     32 CA         52.2095   33.8905  -21.9315 C.3       3 GLC5        0.0000 
     33 CA         53.7510   34.1610  -20.4770 C.3       9 GLL5        0.0000 
     34 CA         50.6680   33.6200  -23.3860 C.3       6 GLP5        0.0000 
     35 CA         57.1490   35.0625  -22.5010 C.3       3 GLC5        0.0000 
     36 CA         56.5850   32.8870  -22.5200 C.3       9 GLL5        0.0000 
     37 CA         57.7130   37.2380  -22.4820 C.3       6 GLP5        0.0000 
     38 CA         56.8700   33.9600  -24.2130 C.3       3 GLC5        0.0000 
     39 CA         57.1550   35.0330  -25.9060 C.3       6 GLP5        0.0000 
     40 CA         58.9855   30.7290  -23.8590 C.3       3 GLC5        0.0000 
     41 CA         57.3540   31.7460  -22.7020 C.3       9 GLL5        0.0000 
     42 CA         60.6170   29.7120  -25.0160 C.3       6 GLP5        0.0000 
     43 CA         50.1895   26.0680  -14.4785 C.3       3 GLC5        0.0000 
     44 CA         49.7170   28.1170  -13.9080 C.3       9 GLL5        0.0000 
     45 CA         50.6620   24.0190  -15.0490 C.3       6 GLP5        0.0000 
     46 CA         49.0995   29.5980  -15.4480 C.3       3 GLC5        0.0000 
     47 CA         48.4820   31.0790  -16.9880 C.3       6 GLP5        0.0000 
     48 CA         50.2355   26.0510  -11.5270 C.3       3 GLC5        0.0000 
     49 CA         49.0580   27.5390  -12.6520 C.3       9 GLL5        0.0000 
     50 CA         51.4130   24.5630  -10.4020 C.3       6 GLP5        0.0000 
     51 CA         53.2820   28.6080  -10.6075 C.3       3 GLC5        0.0000 
     52 CA         52.0240   28.4860  -12.0210 C.3       9 GLL5        0.0000 
     53 CA         54.5400   28.7300   -9.1940 C.3       6 GLP5        0.0000 
     54 CA         53.8440   27.1390  -13.8605 C.3       3 GLC5        0.0000 
     55 CA         52.0460   27.4110  -13.1220 C.3       9 GLL5        0.0000 
     56 CA         55.6420   26.8670  -14.5990 C.3       6 GLP5        0.0000 
     57 CA         51.3540   25.7150  -14.0855 C.3       3 GLC5        0.0000 
     58 N          51.7520   26.6680   -8.8890 N.am      2 SEC2        0.0000 
     59 N          51.2080   27.6750   -9.8820 N.am      8 SEL2        0.0000 
     60 N          52.2960   25.6610   -7.8960 N.am      5 SEP2        0.0000 
     61 CA         51.9535   27.2967  -19.2995 C.3       3 GLC5        0.0000 
     62 CA         53.2190   26.1860  -20.1270 C.3       6 GLP5        0.0000 
     63 CA         50.4190   25.7863  -15.9017 C.3       3 GLC5        0.0000 
     64 CA         50.7630   27.9170  -16.6990 C.3       9 GLL5        0.0000 
     65 CA         55.5510   32.6505  -18.7387 C.3       3 GLC5        0.0000 
     66 CA         54.1420   31.8480  -19.8410 C.3       9 GLL5        0.0000 
     67 CA         57.3200   32.8470  -17.7240 C.3       6 GLP5        0.0000 
     68 CA         52.2338   34.4768  -18.7643 C.3       3 GLC5        0.0000 
     69 CA         53.4220   33.0600  -19.6660 C.3       9 GLL5        0.0000 
     70 CA         50.8810   35.3430  -17.4570 C.3       6 GLP5        0.0000 
     71 CA         55.6807   35.5330  -20.4632 C.3       3 GLC5        0.0000 
     72 CA         57.0740   36.9560  -20.0110 C.3       6 GLP5        0.0000 
     73 CA         57.0515   33.3923  -20.5613 C.3       3 GLC5        0.0000 
     74 CA         54.8240   34.0590  -21.3540 C.3       9 GLL5        0.0000 
     75 CA         58.9190   33.3180  -19.6710 C.3       6 GLP5        0.0000 
     76 CA         54.1206   31.1919  -21.9967 C.3       3 GLC5        0.0000 
     77 CA         55.5440   32.8740  -21.5490 C.3       9 GLL5        0.0000 
     78 CA         53.1280   30.0490  -23.0660 C.3       6 GLP5        0.0000 
     79 CA         56.4678   32.0067  -19.2958 C.3       3 GLC5        0.0000 
     80 CA         55.2230   31.7430  -20.7710 C.3       9 GLL5        0.0000 
     81 CA         57.9579   32.3954  -20.9725 C.3       3 GLC5        0.0000 
     82 CA         56.0155   28.8283  -20.6777 C.3       3 GLC5        0.0000 
     83 CA         57.0240   30.6290  -21.9370 C.3       9 GLL5        0.0000 
     84 CA         55.5150   27.0470  -19.9050 C.3       6 GLP5        0.0000 
     85 CA         54.8220   30.3292  -22.2583 C.3       3 GLC5        0.0000 
     86 CA         56.0080   30.5900  -20.9640 C.3       9 GLL5        0.0000 
     87 CA         58.2315   29.6547  -21.0162 C.3       3 GLC5        0.0000 
     88 CA         59.9470   28.7000  -20.5820 C.3       6 GLP5        0.0000 
     89 CA         56.3344   31.4259  -24.1055 C.3       3 GLC5        0.0000 
     90 CA         55.6720   31.3790  -25.9370 C.3       6 GLP5        0.0000 
     91 CA         51.7240   26.2557  -11.4868 C.3       3 GLC5        0.0000 
     92 CA         49.3954   29.4666  -17.2394 C.3       3 GLC5        0.0000 
     93 CA         49.5890   27.1900  -16.8100 C.3       9 GLL5        0.0000 
@<TRIPOS>BOND
@<TRIPOS>SUBSTRUCTURE
     1 ALC1       24 GROUP        1 X    ALC  0     ROOT ALC X 1
     2 SEC2       27 GROUP        1 X    SEC  0     **** SEC X 2
     3 GLC5        1 GROUP        1 X    GLC  0     **** GLC X 6
     4 ALP1       26 GROUP        1 Y    ALP  0     ROOT ALP Y 8
     5 SEP2       29 GROUP        1 Y    SEP  0     **** SEP Y 9
     6 GLP5        3 GROUP        1 Y    GLP  0     **** GLP Y 13
     7 ALL1       25 GROUP        1 Z    ALL  0     ROOT ALL Z 15
     8 SEL2       28 GROUP        1 Z    SEL  0     **** SEL Z 16
     9 GLL5        2 GROUP        1 Z    GLL  0     **** GLL Z 20
@<TRIPOS>SET

