#    Name: 3p7b_P7B_1_ligand
#    Modification time : Tue Mar 25 06:02:03 2014

@<TRIPOS>MOLECULE
3p7b_P7B_1_ligand
   61    64     1     0     0
SMALL
NO_CHARGES


@<TRIPOS>ATOM
      1 C1         49.1100   27.2540  -18.1190 C.2       1 P7B362      0.0000 
      2 S2         50.0950   28.2640  -19.0980 S.3       1 P7B362      0.0000 
      3 C3         51.2810   28.5510  -17.8460 C.2       1 P7B362      0.0000 
      4 C4         50.7630   27.9170  -16.6990 C.2       1 P7B362      0.0000 
      5 C5         49.5890   27.1900  -16.8100 C.2       1 P7B362      0.0000 
      6 C6         47.8610   26.6740  -18.7300 C.3       1 P7B362      0.0000 
      7 C7         48.2680   25.5020  -19.5860 C.3       1 P7B362      0.0000 
      8 C8         46.8060   26.4070  -17.6760 C.3       1 P7B362      0.0000 
      9 C9         47.3250   27.6440  -19.7650 C.3       1 P7B362      0.0000 
     10 C10        51.5340   28.0180  -15.4340 C.2       1 P7B362      0.0000 
     11 O11        52.6450   28.5010  -15.5110 O.2       1 P7B362      0.0000 
     12 N12        52.4090   29.3140  -17.9280 N.am      1 P7B362      0.0000 
     13 C13        52.6360   30.2320  -18.9030 C.2       1 P7B362      0.0000 
     14 O14        51.6930   30.5480  -19.7680 O.2       1 P7B362      0.0000 
     15 N15        53.7750   30.8260  -19.0040 N.am      1 P7B362      0.0000 
     16 C16        54.1420   31.8480  -19.8410 C.ar      1 P7B362      0.0000 
     17 C17        53.4220   33.0600  -19.6660 C.ar      1 P7B362      0.0000 
     18 C18        53.7510   34.1610  -20.4770 C.ar      1 P7B362      0.0000 
     19 C19        54.8240   34.0590  -21.3540 C.ar      1 P7B362      0.0000 
     20 C20        55.5440   32.8740  -21.5490 C.ar      1 P7B362      0.0000 
     21 C21        55.2230   31.7430  -20.7710 C.ar      1 P7B362      0.0000 
     22 C22        56.5850   32.8870  -22.5200 C.ar      1 P7B362      0.0000 
     23 C23        57.3540   31.7460  -22.7020 C.ar      1 P7B362      0.0000 
     24 C24        57.0240   30.6290  -21.9370 C.ar      1 P7B362      0.0000 
     25 C25        56.0080   30.5900  -20.9640 C.ar      1 P7B362      0.0000 
     26 N26        51.0750   27.6290  -14.2290 N.am      1 P7B362      0.0000 
     27 C27        49.7170   28.1170  -13.9080 C.3       1 P7B362      0.0000 
     28 C28        49.0580   27.5390  -12.6520 C.3       1 P7B362      0.0000 
     29 N29        49.6540   28.1480  -11.4350 N.am      1 P7B362      0.0000 
     30 C30        50.9380   28.2350  -10.9650 C.2       1 P7B362      0.0000 
     31 C31        52.0240   28.4860  -12.0210 C.3       1 P7B362      0.0000 
     32 C32        52.0460   27.4110  -13.1220 C.3       1 P7B362      0.0000 
     33 O33        51.2080   27.6750   -9.8820 O.2       1 P7B362      0.0000 
     34 H          49.1633   26.7109  -16.0951 H         1 P7B362      0.0000 
     35 H          53.1564   29.1797  -17.1801 H         1 P7B362      0.0000 
     36 H          54.5913   30.4848  -18.3336 H         1 P7B362      0.0000 
     37 H          52.6903   33.1233  -18.9719 H         1 P7B362      0.0000 
     38 H          53.2043   35.0198  -20.4165 H         1 P7B362      0.0000 
     39 H          55.1120   34.9085  -21.8984 H         1 P7B362      0.0000 
     40 H          56.7503   33.7298  -23.0653 H         1 P7B362      0.0000 
     41 H          58.1187   31.7236  -23.3585 H         1 P7B362      0.0000 
     42 H          57.5770   29.7384  -22.0959 H         1 P7B362      0.0000 
     43 H          55.8455   29.7555  -20.4173 H         1 P7B362      0.0000 
     44 H          49.0312   27.9231  -14.7715 H         1 P7B362      0.0000 
     45 H          49.7305   29.2316  -13.8025 H         1 P7B362      0.0000 
     46 H          49.2062   26.4588  -12.6481 H         1 P7B362      0.0000 
     47 H          47.9882   27.7450  -12.6953 H         1 P7B362      0.0000 
     48 H          48.8693   28.6195  -10.8005 H         1 P7B362      0.0000 
     49 H          53.0023   28.5103  -11.5290 H         1 P7B362      0.0000 
     50 H          51.8538   29.4643  -12.4834 H         1 P7B362      0.0000 
     51 H          53.0771   27.3602  -13.5287 H         1 P7B362      0.0000 
     52 H          51.8579   26.4280  -12.6429 H         1 P7B362      0.0000 
     53 H          48.8950   25.7750  -20.3156 H         1 P7B362      0.0000 
     54 H          48.7305   24.7946  -19.0515 H         1 P7B362      0.0000 
     55 H          47.4793   25.0701  -20.0236 H         1 P7B362      0.0000 
     56 H          47.1287   25.7630  -16.9823 H         1 P7B362      0.0000 
     57 H          46.5388   27.2436  -17.1977 H         1 P7B362      0.0000 
     58 H          45.9746   26.0181  -18.0729 H         1 P7B362      0.0000 
     59 H          47.9871   27.8108  -20.4957 H         1 P7B362      0.0000 
     60 H          46.4909   27.3019  -20.1977 H         1 P7B362      0.0000 
     61 H          47.1032   28.5320  -19.3621 H         1 P7B362      0.0000 
@<TRIPOS>BOND
     1    2    1 1    
     2    5    1 2    
     3    6    1 1    
     4    3    2 1    
     5    4    3 2    
     6   12    3 1    
     7    5    4 1    
     8   10    4 1    
     9   34    5 1    
    10    7    6 1    
    11    8    6 1    
    12    9    6 1    
    13   53    7 1    
    14   54    7 1    
    15   55    7 1    
    16   56    8 1    
    17   57    8 1    
    18   58    8 1    
    19   59    9 1    
    20   60    9 1    
    21   61    9 1    
    22   11   10 2    
    23   26   10 am   
    24   13   12 am   
    25   35   12 1    
    26   14   13 2    
    27   15   13 am   
    28   16   15 1    
    29   36   15 1    
    30   17   16 ar   
    31   21   16 ar   
    32   18   17 ar   
    33   37   17 1    
    34   19   18 ar   
    35   38   18 1    
    36   20   19 ar   
    37   39   19 1    
    38   21   20 ar   
    39   22   20 ar   
    40   25   21 ar   
    41   23   22 ar   
    42   40   22 1    
    43   24   23 ar   
    44   41   23 1    
    45   25   24 ar   
    46   42   24 1    
    47   43   25 1    
    48   27   26 1    
    49   32   26 1    
    50   28   27 1    
    51   44   27 1    
    52   45   27 1    
    53   29   28 1    
    54   46   28 1    
    55   47   28 1    
    56   30   29 am   
    57   48   29 1    
    58   31   30 1    
    59   33   30 2    
    60   32   31 1    
    61   49   31 1    
    62   50   31 1    
    63   51   32 1    
    64   52   32 1    
@<TRIPOS>SUBSTRUCTURE
     1 P7B362      1 GROUP   
@<TRIPOS>SET

