#    Name: 2gpj_FAD_1_INTS_M
#    Modification time : Tue Mar 25 14:52:40 2014

@<TRIPOS>MOLECULE
2gpj_FAD_1_INTS_M
  102     0    12     0     0
SMALL
NO_CHARGES


@<TRIPOS>ATOM
      1 NZ          9.1030   36.6015   15.7595 N.4       3 LYC4        0.0000 
      2 NZ          9.7530   35.3080   15.5700 N.4      11 LYL4        0.0000 
      3 NZ          7.2880   37.7130   15.3490 N.4       7 LYP4        0.0000 
      4 N           8.2535   35.9030   15.4295 N.am      2 SEC2        0.0000 
      5 N           9.7530   35.3080   15.5700 N.am     10 SEL2        0.0000 
      6 N           6.7540   36.4980   15.2890 N.am      6 SEP2        0.0000 
      7 N           9.1030   36.6015   15.7595 N.am      2 SEC2        0.0000 
      8 N           8.4530   37.8950   15.9490 N.am      6 SEP2        0.0000 
      9 NZ          8.1335   36.4735   14.3015 N.4       3 LYC4        0.0000 
     10 NZ          8.9790   35.2340   13.2540 N.4      11 LYL4        0.0000 
     11 N           9.1135   36.4150   12.4970 N.am      2 SEC2        0.0000 
     12 N           8.9790   35.2340   13.2540 N.am     10 SEL2        0.0000 
     13 N           9.2480   37.5960   11.7400 N.am      6 SEP2        0.0000 
     14 CA         10.9000   33.0810   16.3940 C.3       4 GLC5        0.0000 
     15 CA         12.0110   33.3700   14.6910 C.3      12 GLL5        0.0000 
     16 CA          9.7890   32.7920   18.0970 C.3       8 GLP5        0.0000 
     17 CA         11.8575   35.5230   14.1630 C.3       4 GLC5        0.0000 
     18 CA         11.7040   37.6760   13.6350 C.3       8 GLP5        0.0000 
     19 CA         14.4920   31.8555   14.9260 C.3       4 GLC5        0.0000 
     20 CA         13.0190   32.5770   13.8780 C.3      12 GLL5        0.0000 
     21 CA         15.9650   31.1340   15.9740 C.3       8 GLP5        0.0000 
     22 CA         12.5835   35.2325   12.4460 C.3       4 GLC5        0.0000 
     23 CA         13.5580   33.3520   12.6890 C.3      12 GLL5        0.0000 
     24 CA         11.6090   37.1130   12.2030 C.3       8 GLP5        0.0000 
     25 N          15.0485   33.1460    9.4860 N.am      2 SEC2        0.0000 
     26 N          13.5690   32.8340   10.3290 N.am     10 SEL2        0.0000 
     27 N          16.5280   33.4580    8.6430 N.am      6 SEP2        0.0000 
     28 O          13.4770   33.3435    8.9960 O.2       1 ALC1        0.0000 
     29 O          13.5690   32.8340   10.3290 O.2       9 ALL1        0.0000 
     30 O          13.3850   33.8530    7.6630 O.2       5 ALP1        0.0000 
     31 O          13.0845   34.0870   10.3395 O.2       1 ALC1        0.0000 
     32 O          12.6000   35.3400   10.3500 O.2       5 ALP1        0.0000 
     33 CA         12.1050   30.9300    9.8540 C.3       4 GLC5        0.0000 
     34 CA         12.5750   31.3530   11.9540 C.3      12 GLL5        0.0000 
     35 CA         11.6350   30.5070    7.7540 C.3       8 GLP5        0.0000 
     36 CA          9.9695   27.2000   11.4680 C.3       4 GLC5        0.0000 
     37 CA          9.6900   27.9810   10.0090 C.3      12 GLL5        0.0000 
     38 CA         10.2490   26.4190   12.9270 C.3       8 GLP5        0.0000 
     39 CA          7.8465   27.8885    9.0015 C.3       4 GLC5        0.0000 
     40 CA          6.0030   27.7960    7.9940 C.3       8 GLP5        0.0000 
     41 CA         11.1340   26.8810   11.5500 C.3       4 GLC5        0.0000 
     42 CA         12.0190   27.3430   10.1730 C.3      12 GLL5        0.0000 
     43 N           3.6530   26.1685   12.2500 N.am      2 SEC2        0.0000 
     44 N           3.4530   27.3090   11.3840 N.am     10 SEL2        0.0000 
     45 N           3.8530   25.0280   13.1160 N.am      6 SEP2        0.0000 
     46 O           0.7200   26.6695   11.4355 O.2       1 ALC1        0.0000 
     47 O           1.3930   27.6010   10.5560 O.2       9 ALL1        0.0000 
     48 O           0.0470   25.7380   12.3150 O.2       5 ALP1        0.0000 
     49 N          -1.6385   29.1990    9.7830 N.am      2 SEC2        0.0000 
     50 N          -0.6510   28.0450    9.7500 N.am     10 SEL2        0.0000 
     51 N          -2.6260   30.3530    9.8160 N.am      6 SEP2        0.0000 
     52 N          -1.0555   29.9560    7.6630 N.am      2 SEC2        0.0000 
     53 N           0.2460   30.2250    8.2760 N.am     10 SEL2        0.0000 
     54 N          -2.3570   29.6870    7.0500 N.am      6 SEP2        0.0000 
     55 CA         -2.1730   34.1880    6.2325 C.3       4 GLC5        0.0000 
     56 CA         -0.4170   33.9430    5.1850 C.3      12 GLL5        0.0000 
     57 CA         -3.9290   34.4330    7.2800 C.3       8 GLP5        0.0000 
     58 CA          0.5270   33.0810    3.8730 C.3       4 GLC5        0.0000 
     59 CA          1.4710   32.2190    2.5610 C.3       8 GLP5        0.0000 
     60 CA          2.6045   33.5590    4.3650 C.3       4 GLC5        0.0000 
     61 CA          2.4070   34.8360    5.7150 C.3      12 GLL5        0.0000 
     62 CA          2.8020   32.2820    3.0150 C.3       8 GLP5        0.0000 
     63 CA          1.7150   34.2840    8.3375 C.3       4 GLC5        0.0000 
     64 CA          2.6360   32.7990    7.1480 C.3      12 GLL5        0.0000 
     65 CA          0.7940   35.7690    9.5270 C.3       8 GLP5        0.0000 
     66 CA          4.5935   29.5890    7.8955 C.3       4 GLC5        0.0000 
     67 CA          4.3440   31.2540    8.7930 C.3      12 GLL5        0.0000 
     68 CA          4.8430   27.9240    6.9980 C.3       8 GLP5        0.0000 
     69 CA          4.5515   31.3220    6.5960 C.3       4 GLC5        0.0000 
     70 CA          4.7590   31.3900    4.3990 C.3       8 GLP5        0.0000 
     71 O           2.6155   33.1070   10.3695 O.2       1 ALC1        0.0000 
     72 O           3.8950   33.2310   10.0700 O.2       9 ALL1        0.0000 
     73 O           1.3360   32.9830   10.6690 O.2       5 ALP1        0.0000 
     74 CA          7.4155   32.1310    8.8085 C.3       4 GLC5        0.0000 
     75 CA          6.0670   32.0980   10.3700 C.3      12 GLL5        0.0000 
     76 CA          8.7640   32.1640    7.2470 C.3       8 GLP5        0.0000 
     77 CA          4.4825   31.4085   13.4965 C.3       4 GLC5        0.0000 
     78 CA          6.4060   32.0940   12.9110 C.3      12 GLL5        0.0000 
     79 CA          2.5590   30.7230   14.0820 C.3       8 GLP5        0.0000 
     80 N           6.8880   35.1100   15.8020 N.am      2 SEC2        0.0000 
     81 N           7.0220   33.7220   16.3150 N.am     10 SEL2        0.0000 
     82 N           6.3370   33.3565   17.5210 N.am      2 SEC2        0.0000 
     83 N           5.6520   32.9910   18.7270 N.am      6 SEP2        0.0000 
     84 N           8.2070   30.3875   15.1895 N.am      2 SEC2        0.0000 
     85 N           7.4450   31.3750   15.7260 N.am     10 SEL2        0.0000 
     86 N           8.9690   29.4000   14.6530 N.am      6 SEP2        0.0000 
     87 N           6.5895   30.7455   16.8925 N.am      2 SEC2        0.0000 
     88 N           5.7340   30.1160   18.0590 N.am      6 SEP2        0.0000 
     89 CA         10.2873   28.5068   12.2195 C.3       4 GLC5        0.0000 
     90 CA         10.0100   29.2190   10.5770 C.3      12 GLL5        0.0000 
     91 CA          9.9050   27.6670   13.6840 C.3       8 GLP5        0.0000 
     92 CA         -0.0210   33.6065    7.9240 C.3       4 GLC5        0.0000 
     93 CA          0.7570   31.3320    7.6340 C.3      12 GLL5        0.0000 
     94 CA         -0.3900   35.4960    8.6230 C.3       8 GLP5        0.0000 
     95 CA         -0.4315   31.7915    9.1225 C.3       4 GLC5        0.0000 
     96 CA         -0.0610   32.1020    6.8160 C.3      12 GLL5        0.0000 
     97 CA         -1.2110   31.8660   11.0200 C.3       8 GLP5        0.0000 
     98 CA         -0.1832   34.5392    7.1485 C.3       4 GLC5        0.0000 
     99 CA          0.4640   33.2220    6.1630 C.3      12 GLL5        0.0000 
    100 CA          0.8622   34.8505    7.3208 C.3       4 GLC5        0.0000 
    101 CA          1.8220   33.5740    6.3220 C.3      12 GLL5        0.0000 
    102 CA          3.4613   31.9116    5.8320 C.3       4 GLC5        0.0000 
@<TRIPOS>BOND
@<TRIPOS>SUBSTRUCTURE
     1 ALC1       28 GROUP        1 X    ALC  0     ROOT ALC X 1
     2 SEC2        4 GROUP        1 X    SEC  0     **** SEC X 2
     3 LYC4        1 GROUP        1 X    LYC  0     **** LYC X 4
     4 GLC5       14 GROUP        1 X    GLC  0     **** GLC X 6
     5 ALP1       30 GROUP        1 Y    ALP  0     ROOT ALP Y 8
     6 SEP2        6 GROUP        1 Y    SEP  0     **** SEP Y 9
     7 LYP4        3 GROUP        1 Y    LYP  0     **** LYP Y 11
     8 GLP5       16 GROUP        1 Y    GLP  0     **** GLP Y 13
     9 ALL1       29 GROUP        1 Z    ALL  0     ROOT ALL Z 15
    10 SEL2        5 GROUP        1 Z    SEL  0     **** SEL Z 16
    11 LYL4        2 GROUP        1 Z    LYL  0     **** LYL Z 18
    12 GLL5       15 GROUP        1 Z    GLL  0     **** GLL Z 20
@<TRIPOS>SET

