#    Name: 2gpj_FAD_1_ligand
#    Modification time : Tue Mar 25 14:52:40 2014

@<TRIPOS>MOLECULE
2gpj_FAD_1_ligand
   84    89     1     0     0
SMALL
NO_CHARGES


@<TRIPOS>ATOM
      1 PA          9.6660   34.4590   14.3390 P.3       1 FAD500      0.0000 
      2 O1A         9.7530   35.3080   15.5700 O.co2     1 FAD500      0.0000 
      3 O2A         8.9790   35.2340   13.2540 O.co2     1 FAD500      0.0000 
      4 O5B        11.1090   34.0150   13.8170 O.3       1 FAD500      0.0000 
      5 C5B        12.0110   33.3700   14.6910 C.3       1 FAD500      0.0000 
      6 C4B        13.0190   32.5770   13.8780 C.3       1 FAD500      0.0000 
      7 O4B        12.4310   31.3990   13.3550 O.3       1 FAD500      0.0000 
      8 C3B        13.5580   33.3520   12.6890 C.3       1 FAD500      0.0000 
      9 O3B        14.9320   33.0570   12.5860 O.3       1 FAD500      0.0000 
     10 C2B        12.8070   32.7830   11.5090 C.3       1 FAD500      0.0000 
     11 O2B        13.5690   32.8340   10.3290 O.3       1 FAD500      0.0000 
     12 C1B        12.5750   31.3530   11.9540 C.3       1 FAD500      0.0000 
     13 N9A        11.3600   30.7370   11.4370 N.pl3     1 FAD500      0.0000 
     14 C8A        10.0950   31.2540   11.4240 C.2       1 FAD500      0.0000 
     15 N7A         9.2810   30.3210   10.8910 N.2       1 FAD500      0.0000 
     16 C5A        10.0100   29.2190   10.5770 C.ar      1 FAD500      0.0000 
     17 C6A         9.6900   27.9810   10.0090 C.ar      1 FAD500      0.0000 
     18 N6A         8.4160   27.5880    9.8480 N.pl3     1 FAD500      0.0000 
     19 N1A        10.7110   27.0640    9.8240 N.ar      1 FAD500      0.0000 
     20 C2A        12.0190   27.3430   10.1730 C.ar      1 FAD500      0.0000 
     21 N3A        12.3270   28.5680   10.7250 N.ar      1 FAD500      0.0000 
     22 C4A        11.3290   29.4740   10.9330 C.ar      1 FAD500      0.0000 
     23 N1          3.2140   29.0820   10.0270 N.2       1 FAD500      0.0000 
     24 C2          2.7150   27.9740   10.6770 C.2       1 FAD500      0.0000 
     25 O2          3.4530   27.3090   11.3840 O.2       1 FAD500      0.0000 
     26 N3          1.3930   27.6010   10.5560 N.am      1 FAD500      0.0000 
     27 C4          0.5490   28.3430    9.7630 C.2       1 FAD500      0.0000 
     28 O4         -0.6510   28.0450    9.7500 O.2       1 FAD500      0.0000 
     29 C4X         1.0510   29.4580    9.0940 C.2       1 FAD500      0.0000 
     30 N5          0.2460   30.2250    8.2760 N.2       1 FAD500      0.0000 
     31 C5X         0.7570   31.3320    7.6340 C.ar      1 FAD500      0.0000 
     32 C6         -0.0610   32.1020    6.8160 C.ar      1 FAD500      0.0000 
     33 C7          0.4640   33.2220    6.1630 C.ar      1 FAD500      0.0000 
     34 C7M        -0.4170   33.9430    5.1850 C.3       1 FAD500      0.0000 
     35 C8          1.8220   33.5740    6.3220 C.ar      1 FAD500      0.0000 
     36 C8M         2.4070   34.8360    5.7150 C.3       1 FAD500      0.0000 
     37 C9          2.6360   32.7990    7.1480 C.ar      1 FAD500      0.0000 
     38 C9A         2.0980   31.6800    7.7950 C.ar      1 FAD500      0.0000 
     39 N10         2.9040   30.9080    8.6010 N.pl3     1 FAD500      0.0000 
     40 C10         2.3890   29.8150    9.2410 C.2       1 FAD500      0.0000 
     41 C1'         4.3440   31.2540    8.7930 C.3       1 FAD500      0.0000 
     42 C2'         4.5580   31.9810   10.1130 C.3       1 FAD500      0.0000 
     43 O2'         3.8950   33.2310   10.0700 O.3       1 FAD500      0.0000 
     44 C3'         6.0670   32.0980   10.3700 C.3       1 FAD500      0.0000 
     45 O3'         6.6090   30.7900   10.4650 O.3       1 FAD500      0.0000 
     46 C4'         6.4330   32.9050   11.6250 C.3       1 FAD500      0.0000 
     47 O4'         7.7390   33.4660   11.4820 O.3       1 FAD500      0.0000 
     48 C5'         6.4060   32.0940   12.9110 C.3       1 FAD500      0.0000 
     49 O5'         6.4820   33.0140   13.9810 O.3       1 FAD500      0.0000 
     50 P           7.4480   32.7760   15.2330 P.3       1 FAD500      0.0000 
     51 O1P         7.0220   33.7220   16.3150 O.co2     1 FAD500      0.0000 
     52 O2P         7.4450   31.3750   15.7260 O.co2     1 FAD500      0.0000 
     53 O3P         8.9660   33.0500   14.7110 O.3       1 FAD500      0.0000 
     54 H          11.5018   32.6710   15.3667 H         1 FAD500      0.0000 
     55 H          12.5683   34.0850   15.3096 H         1 FAD500      0.0000 
     56 H          13.8619   32.3252   14.5159 H         1 FAD500      0.0000 
     57 H          13.3331   34.3605   12.8078 H         1 FAD500      0.0000 
     58 H          11.8643   33.2648   11.4508 H         1 FAD500      0.0000 
     59 H          13.4393   30.7665   11.6947 H         1 FAD500      0.0000 
     60 H           9.8439   32.1220   11.7387 H         1 FAD500      0.0000 
     61 H           8.2818   26.6970    9.4143 H         1 FAD500      0.0000 
     62 H           7.7153   28.2215   10.1762 H         1 FAD500      0.0000 
     63 H          12.7550   26.6415   10.0215 H         1 FAD500      0.0000 
     64 H           1.0417   26.7727   11.0564 H         1 FAD500      0.0000 
     65 H          -1.0481   31.8530    6.6887 H         1 FAD500      0.0000 
     66 H           3.6200   33.0446    7.2817 H         1 FAD500      0.0000 
     67 H           4.6861   31.8965    7.9766 H         1 FAD500      0.0000 
     68 H           4.9509   30.3440    8.7887 H         1 FAD500      0.0000 
     69 H           4.1437   31.3386   10.8951 H         1 FAD500      0.0000 
     70 H           6.5048   32.6149    9.5051 H         1 FAD500      0.0000 
     71 H           5.6992   33.7131   11.7264 H         1 FAD500      0.0000 
     72 H           7.2513   31.4098   12.8936 H         1 FAD500      0.0000 
     73 H           5.4829   31.5189   12.9253 H         1 FAD500      0.0000 
     74 H           0.0480   34.7274    4.7744 H         1 FAD500      0.0000 
     75 H          -0.7047   33.3473    4.4351 H         1 FAD500      0.0000 
     76 H          -1.2484   34.2896    5.6195 H         1 FAD500      0.0000 
     77 H           3.3801   34.9323    5.9244 H         1 FAD500      0.0000 
     78 H           2.3193   34.8442    4.7189 H         1 FAD500      0.0000 
     79 H           1.9511   35.6580    6.0561 H         1 FAD500      0.0000 
     80 H          15.0893   32.8938   11.6120 H         1 FAD500      0.0000 
     81 H          13.1231   33.5273    9.7629 H         1 FAD500      0.0000 
     82 H           2.9440   33.0121    9.8515 H         1 FAD500      0.0000 
     83 H           7.5721   30.9253   10.6975 H         1 FAD500      0.0000 
     84 H           7.8640   34.0400   12.2912 H         1 FAD500      0.0000 
@<TRIPOS>BOND
     1    2    1 ar   
     2    3    1 ar   
     3    4    1 1    
     4   53    1 1    
     5    5    4 1    
     6    6    5 1    
     7   54    5 1    
     8   55    5 1    
     9    7    6 1    
    10    8    6 1    
    11   56    6 1    
    12   12    7 1    
    13    9    8 1    
    14   10    8 1    
    15   57    8 1    
    16   80    9 1    
    17   11   10 1    
    18   12   10 1    
    19   58   10 1    
    20   81   11 1    
    21   13   12 1    
    22   59   12 1    
    23   14   13 1    
    24   22   13 1    
    25   15   14 2    
    26   60   14 1    
    27   16   15 1    
    28   17   16 ar   
    29   22   16 ar   
    30   18   17 1    
    31   19   17 ar   
    32   61   18 1    
    33   62   18 1    
    34   20   19 ar   
    35   21   20 ar   
    36   63   20 1    
    37   22   21 ar   
    38   24   23 1    
    39   40   23 2    
    40   25   24 2    
    41   26   24 am   
    42   27   26 am   
    43   64   26 1    
    44   28   27 2    
    45   29   27 1    
    46   30   29 2    
    47   40   29 1    
    48   31   30 1    
    49   32   31 ar   
    50   38   31 ar   
    51   33   32 ar   
    52   65   32 1    
    53   34   33 1    
    54   35   33 ar   
    55   74   34 1    
    56   75   34 1    
    57   76   34 1    
    58   36   35 1    
    59   37   35 ar   
    60   77   36 1    
    61   78   36 1    
    62   79   36 1    
    63   38   37 ar   
    64   66   37 1    
    65   39   38 1    
    66   40   39 1    
    67   41   39 1    
    68   42   41 1    
    69   67   41 1    
    70   68   41 1    
    71   43   42 1    
    72   44   42 1    
    73   69   42 1    
    74   82   43 1    
    75   45   44 1    
    76   46   44 1    
    77   70   44 1    
    78   83   45 1    
    79   47   46 1    
    80   48   46 1    
    81   71   46 1    
    82   84   47 1    
    83   49   48 1    
    84   72   48 1    
    85   73   48 1    
    86   50   49 1    
    87   51   50 ar   
    88   52   50 ar   
    89   53   50 1    
@<TRIPOS>SUBSTRUCTURE
     1 FAD500      1 GROUP   
@<TRIPOS>SET

