#    Name: 3ake_C5P_1_INTS_M
#    Modification time : Tue Mar 25 12:01:48 2014

@<TRIPOS>MOLECULE
3ake_C5P_1_INTS_M
   59     0    12     0     0
SMALL
NO_CHARGES


@<TRIPOS>ATOM
      1 NZ         34.8175   12.3640    0.1725 N.4       3 LYC4        0.0000 
      2 NZ         34.7100   11.8070    1.4230 N.4      11 LYL4        0.0000 
      3 NZ         34.9250   12.9210   -1.0780 N.4       7 LYP4        0.0000 
      4 N          34.8175   12.3640    0.1725 N.am      2 SEC2        0.0000 
      5 N          34.7100   11.8070    1.4230 N.am     10 SEL2        0.0000 
      6 N          34.9250   12.9210   -1.0780 N.am      6 SEP2        0.0000 
      7 N          35.5450   13.1080    1.7955 N.am      2 SEC2        0.0000 
      8 N          36.3800   14.4090    2.1680 N.am      6 SEP2        0.0000 
      9 NZ         31.7005   10.0415    3.1440 N.4       3 LYC4        0.0000 
     10 NZ         32.6450   10.8350    2.2920 N.4      11 LYL4        0.0000 
     11 NZ         29.8120   10.0050    4.5040 N.4       7 LYP4        0.0000 
     12 N          31.7005   10.0415    3.1440 N.am      2 SEC2        0.0000 
     13 N          32.6450   10.8350    2.2920 N.am     10 SEL2        0.0000 
     14 N          30.7560    9.2480    3.9960 N.am      6 SEP2        0.0000 
     15 N          31.2525   11.0830    3.2875 N.am      2 SEC2        0.0000 
     16 N          29.8600   11.3310    4.2830 N.am      6 SEP2        0.0000 
     17 NZ         34.9180   14.0390    2.4420 N.4       3 LYC4        0.0000 
     18 NZ         33.4560   13.6690    2.7160 N.4      11 LYL4        0.0000 
     19 NZ         36.0930   15.2650    3.1160 N.4       7 LYP4        0.0000 
     20 N          34.9180   14.0390    2.4420 N.am      2 SEC2        0.0000 
     21 N          33.4560   13.6690    2.7160 N.am     10 SEL2        0.0000 
     22 N          34.1855   14.4350    3.2055 N.am      2 SEC2        0.0000 
     23 N          34.9150   15.2010    3.6950 N.am      6 SEP2        0.0000 
     24 CA         35.0245    9.7140    4.2565 C.3       4 GLC5        0.0000 
     25 CA         33.9570   11.1470    5.4930 C.3      12 GLL5        0.0000 
     26 CA         36.0920    8.2810    3.0200 C.3       8 GLP5        0.0000 
     27 CA         32.7830    9.4085    5.5790 C.3       4 GLC5        0.0000 
     28 CA         31.6090    7.6700    5.6650 C.3       8 GLP5        0.0000 
     29 CA         35.6695    9.6755    6.9860 C.3       4 GLC5        0.0000 
     30 CA         34.6850   11.5710    6.5500 C.3      12 GLL5        0.0000 
     31 CA         36.6540    7.7800    7.4220 C.3       8 GLP5        0.0000 
     32 CA         37.4730    9.8890    7.0905 C.3       4 GLC5        0.0000 
     33 CA         36.8250   11.7360    6.7820 C.3      12 GLL5        0.0000 
     34 CA         38.1210    8.0420    7.3990 C.3       8 GLP5        0.0000 
     35 N          41.4050   11.9120    6.1075 N.am      2 SEC2        0.0000 
     36 N          40.1120   11.8580    5.2850 N.am     10 SEL2        0.0000 
     37 N          42.6980   11.9660    6.9300 N.am      6 SEP2        0.0000 
     38 CA         39.4760    9.3960    2.6165 C.3       4 GLC5        0.0000 
     39 CA         38.5960   11.0960    3.6310 C.3      12 GLL5        0.0000 
     40 CA         40.3560    7.6960    1.6020 C.3       8 GLP5        0.0000 
     41 CA         39.1870   11.4560    1.7620 C.3       4 GLC5        0.0000 
     42 CA         39.7780   11.8160   -0.1070 C.3       8 GLP5        0.0000 
     43 N          40.9970   12.1875    7.0915 N.am      2 SEC2        0.0000 
     44 N          39.2960   12.4090    7.2530 N.am     10 SEL2        0.0000 
     45 N          40.4050   12.0880    8.0770 N.am      2 SEC2        0.0000 
     46 N          41.5140   11.7670    8.9010 N.am      6 SEP2        0.0000 
     47 O          40.5290   10.1175    2.2645 O.2       1 ALC1        0.0000 
     48 O          41.0410   11.1810    3.1670 O.2       9 ALL1        0.0000 
     49 O          40.0170    9.0540    1.3620 O.2       5 ALP1        0.0000 
     50 O          42.4715   11.5005    3.3950 O.2       1 ALC1        0.0000 
     51 O          43.9020   11.8200    3.6230 O.2       5 ALP1        0.0000 
     52 CA         33.9820   10.4260    7.6662 C.3       4 GLC5        0.0000 
     53 CA         33.6430    9.4930    9.3110 C.3       8 GLP5        0.0000 
     54 CA         37.1965   11.7743    8.7078 C.3       4 GLC5        0.0000 
     55 CA         37.9300   11.1690   10.4990 C.3       8 GLP5        0.0000 
     56 CA         37.0837    9.7285    3.5528 C.3       4 GLC5        0.0000 
     57 CA         37.5550   11.2560    4.5400 C.3      12 GLL5        0.0000 
     58 CA         38.6342   13.0840    3.9007 C.3       4 GLC5        0.0000 
     59 CA         39.1930   14.9920    3.7160 C.3       8 GLP5        0.0000 
@<TRIPOS>BOND
@<TRIPOS>SUBSTRUCTURE
     1 ALC1       47 GROUP        1 X    ALC  0     ROOT ALC X 1
     2 SEC2        4 GROUP        1 X    SEC  0     **** SEC X 2
     3 LYC4        1 GROUP        1 X    LYC  0     **** LYC X 4
     4 GLC5       24 GROUP        1 X    GLC  0     **** GLC X 6
     5 ALP1       49 GROUP        1 Y    ALP  0     ROOT ALP Y 8
     6 SEP2        6 GROUP        1 Y    SEP  0     **** SEP Y 9
     7 LYP4        3 GROUP        1 Y    LYP  0     **** LYP Y 11
     8 GLP5       26 GROUP        1 Y    GLP  0     **** GLP Y 13
     9 ALL1       48 GROUP        1 Z    ALL  0     ROOT ALL Z 15
    10 SEL2        5 GROUP        1 Z    SEL  0     **** SEL Z 16
    11 LYL4        2 GROUP        1 Z    LYL  0     **** LYL Z 18
    12 GLL5       25 GROUP        1 Z    GLL  0     **** GLL Z 20
@<TRIPOS>SET

