#    Name: 3ake_C5P_1_ligand
#    Modification time : Tue Mar 25 12:01:48 2014

@<TRIPOS>MOLECULE
3ake_C5P_1_ligand
   33    34     1     0     0
SMALL
NO_CHARGES


@<TRIPOS>ATOM
      1 O3P        34.7100   11.8070    1.4230 O.co2     1 C5P209      0.0000 
      2 P          33.6310   11.8600    2.7880 P.3       1 C5P209      0.0000 
      3 O1P        32.6450   10.8350    2.2920 O.co2     1 C5P209      0.0000 
      4 O2P        33.4560   13.6690    2.7160 O.co2     1 C5P209      0.0000 
      5 O5'        34.3760   11.1930    4.0230 O.3       1 C5P209      0.0000 
      6 C5'        33.9570   11.1470    5.4930 C.3       1 C5P209      0.0000 
      7 C4'        34.6850   11.5710    6.5500 C.3       1 C5P209      0.0000 
      8 O4'        35.8810   10.8380    6.3680 O.3       1 C5P209      0.0000 
      9 C3'        35.0150   12.9260    6.1560 C.3       1 C5P209      0.0000 
     10 O3'        34.0240   13.8220    6.5190 O.3       1 C5P209      0.0000 
     11 C2'        36.1010   13.0230    7.0510 C.3       1 C5P209      0.0000 
     12 O2'        35.7650   13.0720    8.3920 O.3       1 C5P209      0.0000 
     13 C1'        36.8250   11.7360    6.7820 C.3       1 C5P209      0.0000 
     14 N1         37.8600   11.7140    5.7690 N.am      1 C5P209      0.0000 
     15 C2         39.0890   11.9920    6.1390 C.2       1 C5P209      0.0000 
     16 N3         40.1120   11.8580    5.2850 N.2       1 C5P209      0.0000 
     17 C4         39.8710   11.4030    4.0580 C.2       1 C5P209      0.0000 
     18 C5         38.5960   11.0960    3.6310 C.2       1 C5P209      0.0000 
     19 C6         37.5550   11.2560    4.5400 C.2       1 C5P209      0.0000 
     20 O2         39.2960   12.4090    7.2530 O.2       1 C5P209      0.0000 
     21 N4         41.0410   11.1810    3.1670 N.pl3     1 C5P209      0.0000 
     22 H          33.6020   10.0317    5.6547 H         1 C5P209      0.0000 
     23 H          32.8855   11.6451    5.5010 H         1 C5P209      0.0000 
     24 H          34.2703   11.4963    7.4453 H         1 C5P209      0.0000 
     25 H          35.3374   12.9446    5.1780 H         1 C5P209      0.0000 
     26 H          36.7710   13.8104    6.7461 H         1 C5P209      0.0000 
     27 H          37.2480   11.3828    7.7400 H         1 C5P209      0.0000 
     28 H          38.4178   10.7652    2.6896 H         1 C5P209      0.0000 
     29 H          36.5994   11.0280    4.2641 H         1 C5P209      0.0000 
     30 H          40.9278   10.4859    2.4570 H         1 C5P209      0.0000 
     31 H          41.8465   11.7448    3.3497 H         1 C5P209      0.0000 
     32 H          34.0605   13.8574    7.5178 H         1 C5P209      0.0000 
     33 H          36.6095   13.3309    8.8609 H         1 C5P209      0.0000 
@<TRIPOS>BOND
     1    2    1 ar   
     2    3    2 ar   
     3    4    2 ar   
     4    5    2 1    
     5    6    5 1    
     6    7    6 1    
     7   22    6 1    
     8   23    6 1    
     9    8    7 1    
    10    9    7 1    
    11   24    7 1    
    12   13    8 1    
    13   10    9 1    
    14   11    9 1    
    15   25    9 1    
    16   32   10 1    
    17   12   11 1    
    18   13   11 1    
    19   26   11 1    
    20   33   12 1    
    21   14   13 1    
    22   27   13 1    
    23   15   14 am   
    24   19   14 1    
    25   16   15 1    
    26   20   15 2    
    27   17   16 2    
    28   18   17 1    
    29   21   17 1    
    30   19   18 2    
    31   28   18 1    
    32   29   19 1    
    33   30   21 1    
    34   31   21 1    
@<TRIPOS>SUBSTRUCTURE
     1 C5P209      1 GROUP   
@<TRIPOS>SET

