#    Name: 2d09_FLV_1_INTS_M
#    Modification time : Tue Mar 25 01:25:21 2014

@<TRIPOS>MOLECULE
2d09_FLV_1_INTS_M
   13     0     6     0     0
SMALL
NO_CHARGES


@<TRIPOS>ATOM
      1 N          49.1150   70.6080   64.0745 N.am      1 SEC2        0.0000 
      2 N          49.5520   69.4230   62.9070 N.am      5 SEL2        0.0000 
      3 N          48.6780   71.7930   65.2420 N.am      3 SEP2        0.0000 
      4 N          54.0775   72.4160   62.3940 N.am      1 SEC2        0.0000 
      5 N          54.5220   70.9480   62.2360 N.am      5 SEL2        0.0000 
      6 N          53.6330   73.8840   62.5520 N.am      3 SEP2        0.0000 
      7 CA         54.1175   71.8425   64.1350 C.3       2 GLC5        0.0000 
      8 CA         52.8070   70.5470   63.6600 C.3       6 GLL5        0.0000 
      9 CA         55.4280   73.1380   64.6100 C.3       4 GLP5        0.0000 
     10 CA         51.6740   71.9410   64.3525 C.3       2 GLC5        0.0000 
     11 CA         50.5410   73.3350   65.0450 C.3       4 GLP5        0.0000 
     12 N          49.8150   70.9380   65.1645 N.am      1 SEC2        0.0000 
     13 N          50.9520   70.0830   65.0870 N.am      5 SEL2        0.0000 
@<TRIPOS>BOND
@<TRIPOS>SUBSTRUCTURE
     1 SEC2        1 GROUP        1 X    SEC  0     ROOT SEC X 2
     2 GLC5        7 GROUP        1 X    GLC  0     **** GLC X 6
     3 SEP2        3 GROUP        1 Y    SEP  0     ROOT SEP Y 9
     4 GLP5        9 GROUP        1 Y    GLP  0     **** GLP Y 13
     5 SEL2        2 GROUP        1 Z    SEL  0     ROOT SEL Z 16
     6 GLL5        8 GROUP        1 Z    GLL  0     **** GLL Z 20
@<TRIPOS>SET

