#    Name: 2d09_FLV_1_ligand
#    Modification time : Tue Mar 25 01:25:21 2014

@<TRIPOS>MOLECULE
2d09_FLV_1_ligand
   20    21     1     0     0
SMALL
NO_CHARGES


@<TRIPOS>ATOM
      1 OAB        49.5520   69.4230   62.9070 O.2       1 FLV431      0.0000 
      2 CAM        50.7070   69.8070   62.7360 C.2       1 FLV431      0.0000 
      3 CAN        51.2530   69.8570   61.4540 C.ar      1 FLV431      0.0000 
      4 CAH        50.4860   69.4780   60.3550 C.ar      1 FLV431      0.0000 
      5 CAI        51.0400   69.4810   59.0780 C.ar      1 FLV431      0.0000 
      6 OAC        50.3120   69.0480   58.0120 O.3       1 FLV431      0.0000 
      7 CAF        52.3620   69.8760   58.8980 C.ar      1 FLV431      0.0000 
      8 CAK        53.1290   70.2570   59.9940 C.ar      1 FLV431      0.0000 
      9 OAE        54.4270   70.6150   59.8020 O.3       1 FLV431      0.0000 
     10 CAO        52.5800   70.2490   61.2750 C.ar      1 FLV431      0.0000 
     11 CAL        53.3520   70.5960   62.3790 C.2       1 FLV431      0.0000 
     12 OAA        54.5220   70.9480   62.2360 O.2       1 FLV431      0.0000 
     13 CAG        52.8070   70.5470   63.6600 C.2       1 FLV431      0.0000 
     14 CAJ        51.4850   70.1510   63.8370 C.2       1 FLV431      0.0000 
     15 OAD        50.9520   70.0830   65.0870 O.co2     1 FLV431      0.0000 
     16 H          49.5052   69.1945   60.4880 H         1 FLV431      0.0000 
     17 H          52.7715   69.8862   57.9552 H         1 FLV431      0.0000 
     18 H          53.3810   70.8030   64.4725 H         1 FLV431      0.0000 
     19 H          49.3969   68.8756   58.3765 H         1 FLV431      0.0000 
     20 H          54.6383   71.2363   60.5565 H         1 FLV431      0.0000 
@<TRIPOS>BOND
     1    2    1 2    
     2    3    2 1    
     3   14    2 1    
     4    4    3 ar   
     5   10    3 ar   
     6    5    4 ar   
     7   16    4 1    
     8    6    5 1    
     9    7    5 ar   
    10   19    6 1    
    11    8    7 ar   
    12   17    7 1    
    13    9    8 1    
    14   10    8 ar   
    15   20    9 1    
    16   11   10 1    
    17   12   11 2    
    18   13   11 1    
    19   14   13 2    
    20   18   13 1    
    21   15   14 ar   
@<TRIPOS>SUBSTRUCTURE
     1 FLV431      1 GROUP   
@<TRIPOS>SET

