#    Name: 4awo_99B_2_INTS_M
#    Modification time : Tue Mar 25 06:19:15 2014

@<TRIPOS>MOLECULE
4awo_99B_2_INTS_M
   95     0     6     0     0
SMALL
NO_CHARGES


@<TRIPOS>ATOM
      1 N           8.8560    5.3510   -9.1545 N.am      1 SEC2        0.0000 
      2 N           8.5810    4.3920   -8.0780 N.am      5 SEL2        0.0000 
      3 N           9.1310    6.3100  -10.2310 N.am      3 SEP2        0.0000 
      4 CA          3.9080   -8.3830    2.1180 C.3       2 GLC5        0.0000 
      5 CA          5.3240   -7.4730    0.9140 C.3       6 GLL5        0.0000 
      6 CA          2.4920   -9.2930    3.3220 C.3       4 GLP5        0.0000 
      7 CA          5.9515   -8.8065    2.1925 C.3       2 GLC5        0.0000 
      8 CA          6.5790  -10.1400    3.4710 C.3       4 GLP5        0.0000 
      9 CA          6.4365   -5.7395    1.2810 C.3       2 GLC5        0.0000 
     10 CA          7.5490   -4.0060    1.6480 C.3       4 GLP5        0.0000 
     11 CA          1.6070   -9.9985   -0.9335 C.3       2 GLC5        0.0000 
     12 CA          3.1670   -8.7370   -0.8150 C.3       6 GLL5        0.0000 
     13 CA          0.0470  -11.2600   -1.0520 C.3       4 GLP5        0.0000 
     14 CA          2.7935   -9.7325    0.9825 C.3       2 GLC5        0.0000 
     15 CA          2.4200  -10.7280    2.7800 C.3       4 GLP5        0.0000 
     16 CA          4.1900  -10.3635   -1.1110 C.3       2 GLC5        0.0000 
     17 CA          5.2130  -11.9900   -1.4070 C.3       4 GLP5        0.0000 
     18 N           5.3520    2.4585   -5.7515 N.am      1 SEC2        0.0000 
     19 N           6.3320    2.8980   -4.9690 N.am      5 SEL2        0.0000 
     20 N           4.3720    2.0190   -6.5340 N.am      3 SEP2        0.0000 
     21 CA          6.4165   -1.5685   -0.5805 C.3       2 GLC5        0.0000 
     22 CA          6.6370   -0.2100   -2.2970 C.3       6 GLL5        0.0000 
     23 CA          6.1960   -2.9270    1.1360 C.3       4 GLP5        0.0000 
     24 CA          8.2705   -0.3920   -3.7455 C.3       2 GLC5        0.0000 
     25 CA          9.9040   -0.5740   -5.1940 C.3       4 GLP5        0.0000 
     26 CA          7.2520    2.8435   -0.8720 C.3       2 GLC5        0.0000 
     27 CA          6.5690    1.2710   -1.7230 C.3       6 GLL5        0.0000 
     28 CA          7.9350    4.4160   -0.0210 C.3       4 GLP5        0.0000 
     29 CA          4.8455    3.5780   -2.4975 C.3       2 GLC5        0.0000 
     30 CA          4.5720    1.7720   -2.9650 C.3       6 GLL5        0.0000 
     31 CA          5.1190    5.3840   -2.0300 C.3       4 GLP5        0.0000 
     32 CA          2.5710    1.1480   -3.4685 C.3       2 GLC5        0.0000 
     33 CA          4.3880    0.3630   -3.6430 C.3       6 GLL5        0.0000 
     34 CA          0.7540    1.9330   -3.2940 C.3       4 GLP5        0.0000 
     35 CA          8.0740    1.2265   -5.1580 C.3       2 GLC5        0.0000 
     36 CA          6.8680    2.5430   -3.8130 C.3       6 GLL5        0.0000 
     37 CA          9.2800   -0.0900   -6.5030 C.3       4 GLP5        0.0000 
     38 CA          5.5710    4.1420   -7.5005 C.3       2 GLC5        0.0000 
     39 CA          7.0320    3.4030   -5.9760 C.3       6 GLL5        0.0000 
     40 CA          4.1100    4.8810   -9.0250 C.3       4 GLP5        0.0000 
     41 CA         10.0825    6.3895   -8.3010 C.3       2 GLC5        0.0000 
     42 CA         11.5180    4.7760   -8.0430 C.3       6 GLL5        0.0000 
     43 CA          8.6470    8.0030   -8.5590 C.3       4 GLP5        0.0000 
     44 CA         12.4765    1.9680   -6.6650 C.3       2 GLC5        0.0000 
     45 CA         11.4400    3.2520   -8.1060 C.3       6 GLL5        0.0000 
     46 CA         13.5130    0.6840   -5.2240 C.3       4 GLP5        0.0000 
     47 CA          9.0880    0.9885   -4.4295 C.3       2 GLC5        0.0000 
     48 CA          8.2720    2.5510   -3.6650 C.3       6 GLL5        0.0000 
     49 CA          2.4030   -2.6340    3.4085 C.3       2 GLC5        0.0000 
     50 CA          2.0230   -3.1270    1.5110 C.3       6 GLL5        0.0000 
     51 CA          2.7830   -2.1410    5.3060 C.3       4 GLP5        0.0000 
     52 CA          0.7965   -1.6565    2.6070 C.3       2 GLC5        0.0000 
     53 CA         -0.4300   -0.1860    3.7030 C.3       4 GLP5        0.0000 
     54 CA          1.0920    0.0160   -0.4170 C.3       2 GLC5        0.0000 
     55 CA          2.3470   -0.7970    0.4850 C.3       6 GLL5        0.0000 
     56 CA         -0.1630    0.8290   -1.3190 C.3       4 GLP5        0.0000 
     57 CA          2.4905    0.9065    1.4665 C.3       2 GLC5        0.0000 
     58 CA          2.6340    2.6100    2.4480 C.3       4 GLP5        0.0000 
     59 CA          0.9585   -0.4915    2.0940 C.3       2 GLC5        0.0000 
     60 CA          4.9703   -5.9795   -1.7920 C.3       2 GLC5        0.0000 
     61 CA          3.4530   -7.2340   -0.8310 C.3       6 GLL5        0.0000 
     62 CA          5.7230   -4.8290   -2.9050 C.3       4 GLP5        0.0000 
     63 CA          4.4861   -3.3918    0.3042 C.3       2 GLC5        0.0000 
     64 CA          2.8400   -2.9610   -0.7650 C.3       6 GLL5        0.0000 
     65 CA          4.2496   -4.3427   -1.7163 C.3       2 GLC5        0.0000 
     66 CA          6.4962   -2.3345   -2.8695 C.3       2 GLC5        0.0000 
     67 CA          5.1400   -0.4920   -2.6110 C.3       6 GLL5        0.0000 
     68 CA          7.1040   -4.3180   -3.2850 C.3       4 GLP5        0.0000 
     69 CA          4.5960   -1.1658   -4.7760 C.3       2 GLC5        0.0000 
     70 CA          4.4280   -2.2670   -6.4250 C.3       4 GLP5        0.0000 
     71 CA          7.2483    1.0820    0.3520 C.3       2 GLC5        0.0000 
     72 CA          8.4580    0.7870    1.8870 C.3       4 GLP5        0.0000 
     73 CA          2.7365    2.4245   -2.3428 C.3       2 GLC5        0.0000 
     74 CA          4.1660    1.7620   -1.4200 C.3       6 GLL5        0.0000 
     75 CA          1.1040    3.0820   -2.4930 C.3       4 GLP5        0.0000 
     76 CA          3.7440    1.6532   -4.9960 C.3       2 GLC5        0.0000 
     77 CA          3.0080    2.2390   -6.6880 C.3       4 GLP5        0.0000 
     78 CA          3.7355    2.1162    0.7083 C.3       2 GLC5        0.0000 
     79 CA          5.4505    3.3238   -1.0628 C.3       2 GLC5        0.0000 
     80 CA          6.0640    5.0250   -1.0940 C.3       4 GLP5        0.0000 
     81 CA         10.1885    1.7723   -7.0237 C.3       2 GLC5        0.0000 
     82 CA         10.7540    4.0170   -6.9830 C.3       6 GLL5        0.0000 
     83 CA         10.4405    5.5578   -6.1000 C.3       2 GLC5        0.0000 
     84 CA          9.7450    6.7190   -4.6870 C.3       4 GLP5        0.0000 
     85 CA         10.3545    4.1785   -9.8317 C.3       2 GLC5        0.0000 
     86 CA          9.2300    4.3430  -11.5890 C.3       4 GLP5        0.0000 
     87 CA          8.8309    1.5673   -5.9149 C.3       2 GLC5        0.0000 
     88 CA          0.5811   -5.2595    0.0373 C.3       2 GLC5        0.0000 
     89 CA          2.8840   -4.3570   -0.8390 C.3       6 GLL5        0.0000 
     90 CA         -1.2180   -5.8910   -0.4810 C.3       4 GLP5        0.0000 
     91 CA          3.6742   -3.2052    2.0795 C.3       2 GLC5        0.0000 
     92 CA          2.0480   -4.5040    1.4010 C.3       6 GLL5        0.0000 
     93 CA          5.3130   -2.5950    2.7030 C.3       4 GLP5        0.0000 
     94 CA          3.8380   -2.0790    1.5730 C.3       2 GLC5        0.0000 
     95 CA          2.3790   -2.3290    0.4010 C.3       6 GLL5        0.0000 
@<TRIPOS>BOND
@<TRIPOS>SUBSTRUCTURE
     1 SEC2        1 GROUP        1 X    SEC  0     ROOT SEC X 2
     2 GLC5        4 GROUP        1 X    GLC  0     **** GLC X 6
     3 SEP2        3 GROUP        1 Y    SEP  0     ROOT SEP Y 9
     4 GLP5        6 GROUP        1 Y    GLP  0     **** GLP Y 13
     5 SEL2        2 GROUP        1 Z    SEL  0     ROOT SEL Z 16
     6 GLL5        5 GROUP        1 Z    GLL  0     **** GLL Z 20
@<TRIPOS>SET

