#    Name: 4awo_99B_2_ligand
#    Modification time : Tue Mar 25 06:19:15 2014

@<TRIPOS>MOLECULE
4awo_99B_2_ligand
   72    76     1     0     0
SMALL
NO_CHARGES


@<TRIPOS>ATOM
      1 C1          3.4530   -7.2340   -0.8310 C.3       1 99B1225     0.0000 
      2 N1          2.5900   -6.5110    0.1630 N.pl3     1 99B1225     0.0000 
      3 O1          2.9200   -2.3320   -3.1790 O.2       1 99B1225     0.0000 
      4 C2          4.9820   -7.0260   -0.5270 C.3       1 99B1225     0.0000 
      5 N2          4.3930   -1.4220   -1.7450 N.am      1 99B1225     0.0000 
      6 O2          8.5810    4.3920   -8.0780 O.2       1 99B1225     0.0000 
      7 C3          5.3240   -7.4730    0.9140 C.3       1 99B1225     0.0000 
      8 N3          6.0410    2.0280   -2.8590 N.3       1 99B1225     0.0000 
      9 O3          2.5230   -6.2520    2.9150 O.2       1 99B1225     0.0000 
     10 C4          3.1670   -8.7370   -0.8150 C.3       1 99B1225     0.0000 
     11 N4          6.3320    2.8980   -4.9690 N.ar      1 99B1225     0.0000 
     12 C5          2.5410   -5.1470    0.2590 C.ar      1 99B1225     0.0000 
     13 N5          0.6550   -4.9360    3.4070 N.am      1 99B1225     0.0000 
     14 C6          2.8840   -4.3570   -0.8390 C.ar      1 99B1225     0.0000 
     15 C7          2.8400   -2.9610   -0.7650 C.ar      1 99B1225     0.0000 
     16 C8          3.3120   -2.1790   -2.0300 C.2       1 99B1225     0.0000 
     17 C9          5.1400   -0.4920   -2.6110 C.3       1 99B1225     0.0000 
     18 C10         6.6370   -0.2100   -2.2970 C.3       1 99B1225     0.0000 
     19 C11         6.5690    1.2710   -1.7230 C.3       1 99B1225     0.0000 
     20 C12         4.5720    1.7720   -2.9650 C.3       1 99B1225     0.0000 
     21 C13         4.3880    0.3630   -3.6430 C.3       1 99B1225     0.0000 
     22 C14         4.1660    1.7620   -1.4200 C.3       1 99B1225     0.0000 
     23 C15         5.5080    1.4830   -0.6430 C.3       1 99B1225     0.0000 
     24 C16         6.8680    2.5430   -3.8130 C.ar      1 99B1225     0.0000 
     25 C17         7.0320    3.4030   -5.9760 C.ar      1 99B1225     0.0000 
     26 C18         8.4330    3.4430   -5.8890 C.ar      1 99B1225     0.0000 
     27 C19         9.2070    3.9980   -7.0850 C.2       1 99B1225     0.0000 
     28 C20        10.7540    4.0170   -6.9830 C.3       1 99B1225     0.0000 
     29 C21        11.5180    4.7760   -8.0430 C.3       1 99B1225     0.0000 
     30 C22        11.4400    3.2520   -8.1060 C.3       1 99B1225     0.0000 
     31 C23         8.2720    2.5510   -3.6650 C.ar      1 99B1225     0.0000 
     32 C24         9.0310    3.0260   -4.7210 C.ar      1 99B1225     0.0000 
     33 C25         2.0480   -4.5040    1.4010 C.ar      1 99B1225     0.0000 
     34 C26         1.7100   -5.3510    2.6540 C.2       1 99B1225     0.0000 
     35 C27         2.0230   -3.1270    1.5110 C.ar      1 99B1225     0.0000 
     36 C28         2.3790   -2.3290    0.4010 C.ar      1 99B1225     0.0000 
     37 C29         2.3470   -0.7970    0.4850 C.3       1 99B1225     0.0000 
     38 H           3.2709   -6.8628   -1.8257 H         1 99B1225     0.0000 
     39 H           2.0246   -7.1235    0.7817 H         1 99B1225     0.0000 
     40 H           5.2155   -5.9760   -0.6447 H         1 99B1225     0.0000 
     41 H           5.5551   -7.6126   -1.2330 H         1 99B1225     0.0000 
     42 H           4.8073   -1.4759   -0.7370 H         1 99B1225     0.0000 
     43 H           3.1753   -4.8093   -1.7214 H         1 99B1225     0.0000 
     44 H           5.4540   -1.4695   -3.5403 H         1 99B1225     0.0000 
     45 H           7.1929   -0.2019   -3.1782 H         1 99B1225     0.0000 
     46 H           6.9711   -0.8461   -1.5424 H         1 99B1225     0.0000 
     47 H           7.4927    1.5957   -1.4483 H         1 99B1225     0.0000 
     48 H           4.0881    2.5144   -3.4494 H         1 99B1225     0.0000 
     49 H           3.3811    0.1220   -3.6480 H         1 99B1225     0.0000 
     50 H           4.8880    0.3590   -4.5496 H         1 99B1225     0.0000 
     51 H           3.4909    0.9718   -1.2535 H         1 99B1225     0.0000 
     52 H           3.7997    2.7142   -1.1610 H         1 99B1225     0.0000 
     53 H           5.7418    2.3365   -0.0565 H         1 99B1225     0.0000 
     54 H           5.3860    0.6007   -0.0653 H         1 99B1225     0.0000 
     55 H           6.5847    3.7721   -6.8308 H         1 99B1225     0.0000 
     56 H          11.2741    3.9385   -6.2162 H         1 99B1225     0.0000 
     57 H          12.3663    5.0030   -7.6885 H         1 99B1225     0.0000 
     58 H          10.8936    5.1189   -8.6670 H         1 99B1225     0.0000 
     59 H          10.7807    3.0282   -8.7446 H         1 99B1225     0.0000 
     60 H          12.2534    2.9123   -7.7660 H         1 99B1225     0.0000 
     61 H           8.6971    2.2180   -2.8106 H         1 99B1225     0.0000 
     62 H          10.0635    3.0669   -4.6277 H         1 99B1225     0.0000 
     63 H           1.7495   -2.6733    2.3876 H         1 99B1225     0.0000 
     64 H           6.2937   -7.3452    1.1222 H         1 99B1225     0.0000 
     65 H           4.8071   -6.9555    1.5959 H         1 99B1225     0.0000 
     66 H           5.1175   -8.4402    1.0617 H         1 99B1225     0.0000 
     67 H           3.7325   -9.2297   -1.4764 H         1 99B1225     0.0000 
     68 H           3.3472   -9.1398    0.0824 H         1 99B1225     0.0000 
     69 H           2.2130   -8.9359   -1.0394 H         1 99B1225     0.0000 
     70 H           3.2572   -0.3996    0.3686 H         1 99B1225     0.0000 
     71 H           1.7608   -0.3985   -0.2204 H         1 99B1225     0.0000 
     72 H           1.9998   -0.4806    1.3678 H         1 99B1225     0.0000 
@<TRIPOS>BOND
     1    2    1 1    
     2    4    1 1    
     3   10    1 1    
     4   38    1 1    
     5   12    2 1    
     6   39    2 1    
     7   16    3 2    
     8    7    4 1    
     9   40    4 1    
    10   41    4 1    
    11   16    5 am   
    12   17    5 1    
    13   42    5 1    
    14   27    6 2    
    15   64    7 1    
    16   65    7 1    
    17   66    7 1    
    18   19    8 1    
    19   20    8 1    
    20   24    8 1    
    21   34    9 2    
    22   67   10 1    
    23   68   10 1    
    24   69   10 1    
    25   24   11 ar   
    26   25   11 ar   
    27   14   12 ar   
    28   33   12 ar   
    29   34   13 am   
    30   15   14 ar   
    31   43   14 1    
    32   16   15 1    
    33   36   15 ar   
    34   18   17 1    
    35   21   17 1    
    36   44   17 1    
    37   19   18 1    
    38   45   18 1    
    39   46   18 1    
    40   23   19 1    
    41   47   19 1    
    42   21   20 1    
    43   22   20 1    
    44   48   20 1    
    45   49   21 1    
    46   50   21 1    
    47   23   22 1    
    48   51   22 1    
    49   52   22 1    
    50   53   23 1    
    51   54   23 1    
    52   31   24 ar   
    53   26   25 ar   
    54   55   25 1    
    55   27   26 1    
    56   32   26 ar   
    57   28   27 1    
    58   29   28 1    
    59   30   28 1    
    60   56   28 1    
    61   30   29 1    
    62   57   29 1    
    63   58   29 1    
    64   59   30 1    
    65   60   30 1    
    66   32   31 ar   
    67   61   31 1    
    68   62   32 1    
    69   34   33 1    
    70   35   33 ar   
    71   36   35 ar   
    72   63   35 1    
    73   37   36 1    
    74   70   37 1    
    75   71   37 1    
    76   72   37 1    
@<TRIPOS>SUBSTRUCTURE
     1 99B1225     1 GROUP   
@<TRIPOS>SET

