#    Name: 1q3a_NGH_2_INTS_M
#    Modification time : Mon Mar 24 22:48:56 2014

@<TRIPOS>MOLECULE
1q3a_NGH_2_INTS_M
   55     0    12     0     0
SMALL
NO_CHARGES


@<TRIPOS>ATOM
      1 CA         34.3425  -21.9930   15.9145 C.3       4 GLC5        0.0000 
      2 CA         35.6750  -20.3290   15.7630 C.3      12 GLL5        0.0000 
      3 CA         33.0100  -23.6570   16.0660 C.3       8 GLP5        0.0000 
      4 CA         34.1960  -20.8845   13.7180 C.3       4 GLC5        0.0000 
      5 CA         35.9140  -21.5070   14.8440 C.3      12 GLL5        0.0000 
      6 CA         32.4780  -20.2620   12.5920 C.3       8 GLP5        0.0000 
      7 CA         34.3945  -22.5330   14.6930 C.3       4 GLC5        0.0000 
      8 CA         32.8750  -23.5590   14.5420 C.3       8 GLP5        0.0000 
      9 CA         38.7430  -22.4200   14.1850 C.3       4 GLC5        0.0000 
     10 CA         37.0650  -22.4490   15.1130 C.3      12 GLL5        0.0000 
     11 CA         40.4210  -22.3910   13.2570 C.3       8 GLP5        0.0000 
     12 CA         35.0375  -23.0530   15.5895 C.3       4 GLC5        0.0000 
     13 CA         37.0115  -21.6295   19.2570 C.3       4 GLC5        0.0000 
     14 CA         37.7520  -21.1330   17.2730 C.3      12 GLL5        0.0000 
     15 CA         36.2710  -22.1260   21.2410 C.3       8 GLP5        0.0000 
     16 CA         37.4945  -26.8385   13.5950 C.3       4 GLC5        0.0000 
     17 CA         37.7460  -24.6600   13.7390 C.3      12 GLL5        0.0000 
     18 CA         37.2430  -29.0170   13.4510 C.3       8 GLP5        0.0000 
     19 CA         38.8365  -25.3665   15.3630 C.3       4 GLC5        0.0000 
     20 CA         39.9270  -26.0730   16.9870 C.3       8 GLP5        0.0000 
     21 CA         39.2435  -24.2395   13.3575 C.3       4 GLC5        0.0000 
     22 CA         40.7410  -23.8190   12.9760 C.3       8 GLP5        0.0000 
     23 CA         38.5670  -25.6130   12.0870 C.3       4 GLC5        0.0000 
     24 CA         39.3880  -26.5660   10.4350 C.3       8 GLP5        0.0000 
     25 N          37.3560  -17.8110   20.4650 N.am      2 SEC2        0.0000 
     26 N          36.9850  -18.9990   19.2870 N.am     10 SEL2        0.0000 
     27 N          37.7270  -16.6230   21.6430 N.am      6 SEP2        0.0000 
     28 N          36.6700  -19.3365   20.5015 N.am      2 SEC2        0.0000 
     29 N          36.3550  -19.6740   21.7160 N.am      6 SEP2        0.0000 
     30 N          38.0130  -19.6505   20.3205 N.am      2 SEC2        0.0000 
     31 N          39.0410  -20.3020   21.3540 N.am      6 SEP2        0.0000 
     32 N          33.3265  -19.5120   17.7840 N.am      2 SEC2        0.0000 
     33 N          34.6140  -19.0030   18.3010 N.am     10 SEL2        0.0000 
     34 N          32.0390  -20.0210   17.2670 N.am      6 SEP2        0.0000 
     35 Zn         38.2185  -17.7940   15.6040 Zn        3 ZIC7        0.0000 
     36 Zn         36.3030  -17.4170   17.2080 Zn       11 ZIL7        0.0000 
     37 Zn         40.1340  -18.1710   14.0000 Zn        7 ZIP7        0.0000 
     38 O          39.9460  -18.2890   18.2540 O.2       1 ALC1        0.0000 
     39 O          39.5940  -18.2970   16.5800 O.2       9 ALL1        0.0000 
     40 O          40.2980  -18.2810   19.9280 O.2       5 ALP1        0.0000 
     41 Zn         40.3705  -18.4305   14.9600 Zn        3 ZIC7        0.0000 
     42 Zn         40.6070  -18.6900   15.9200 Zn       11 ZIL7        0.0000 
     43 O          40.8765  -19.7655   16.5195 O.2       1 ALC1        0.0000 
     44 O          40.6070  -18.6900   15.9200 O.2       9 ALL1        0.0000 
     45 O          41.1460  -20.8410   17.1190 O.2       5 ALP1        0.0000 
     46 Zn         39.1455  -18.0065   14.3095 Zn        3 ZIC7        0.0000 
     47 Zn         38.1570  -17.8420   14.6190 Zn       11 ZIL7        0.0000 
     48 CA         31.6625  -14.8470   19.0200 C.3       4 GLC5        0.0000 
     49 CA         33.5020  -15.2880   18.1440 C.3      12 GLL5        0.0000 
     50 CA         29.8230  -14.4060   19.8960 C.3       8 GLP5        0.0000 
     51 CA         38.9398  -23.1103   17.8817 C.3       4 GLC5        0.0000 
     52 CA         40.0060  -24.4840   18.9550 C.3       8 GLP5        0.0000 
     53 CA         39.3597  -21.6442   15.5207 C.3       4 GLC5        0.0000 
     54 CA         37.9950  -22.3400   16.3440 C.3      12 GLL5        0.0000 
     55 CA         40.8460  -21.5520   14.2330 C.3       8 GLP5        0.0000 
@<TRIPOS>BOND
@<TRIPOS>SUBSTRUCTURE
     1 ALC1       38 GROUP        1 X    ALC  0     ROOT ALC X 1
     2 SEC2       25 GROUP        1 X    SEC  0     **** SEC X 2
     3 ZIC7       35 GROUP        1 X    ZIC  0     **** ZIC X 5
     4 GLC5        1 GROUP        1 X    GLC  0     **** GLC X 6
     5 ALP1       40 GROUP        1 Y    ALP  0     ROOT ALP Y 8
     6 SEP2       27 GROUP        1 Y    SEP  0     **** SEP Y 9
     7 ZIP7       37 GROUP        1 Y    ZIP  0     **** ZIP Y 12
     8 GLP5        3 GROUP        1 Y    GLP  0     **** GLP Y 13
     9 ALL1       39 GROUP        1 Z    ALL  0     ROOT ALL Z 15
    10 SEL2       26 GROUP        1 Z    SEL  0     **** SEL Z 16
    11 ZIL7       36 GROUP        1 Z    ZIL  0     **** ZIL Z 19
    12 GLL5        2 GROUP        1 Z    GLL  0     **** GLL Z 20
@<TRIPOS>SET

