#    Name: 1q3a_NGH_2_ligand
#    Modification time : Mon Mar 24 22:48:56 2014

@<TRIPOS>MOLECULE
1q3a_NGH_2_ligand
   41    41     1     0     0
SMALL
NO_CHARGES


@<TRIPOS>ATOM
      1 C1         35.6750  -20.3290   15.7630 C.ar      1 NGH479      0.0000 
      2 C2         35.9140  -21.5070   14.8440 C.ar      1 NGH479      0.0000 
      3 C3         37.0650  -22.4490   15.1130 C.ar      1 NGH479      0.0000 
      4 C4         37.9950  -22.3400   16.3440 C.ar      1 NGH479      0.0000 
      5 C5         37.7520  -21.1330   17.2730 C.ar      1 NGH479      0.0000 
      6 C6         36.6850  -20.0700   16.8550 C.ar      1 NGH479      0.0000 
      7 O1         36.6250  -23.9270   14.7720 O.3       1 NGH479      0.0000 
      8 C7         37.7460  -24.6600   13.7390 C.3       1 NGH479      0.0000 
      9 S1         36.1660  -18.8520   17.9590 S.o2      1 NGH479      0.0000 
     10 O2         36.9850  -18.9990   19.2870 O.2       1 NGH479      0.0000 
     11 O3         34.6140  -19.0030   18.3010 O.2       1 NGH479      0.0000 
     12 N          36.3030  -17.4170   17.2080 N.pl3     1 NGH479      0.0000 
     13 C9         35.1450  -16.6520   16.7060 C.3       1 NGH479      0.0000 
     14 C10        37.7050  -16.7120   16.8860 C.3       1 NGH479      0.0000 
     15 C11        38.6970  -17.3250   15.8620 C.2       1 NGH479      0.0000 
     16 N1         39.5940  -18.2970   16.5800 N.am      1 NGH479      0.0000 
     17 O4         40.6070  -18.6900   15.9200 O.3       1 NGH479      0.0000 
     18 O5         38.1570  -17.8420   14.6190 O.2       1 NGH479      0.0000 
     19 C12        34.9200  -15.3320   17.5190 C.3       1 NGH479      0.0000 
     20 C13        33.5020  -15.2880   18.1440 C.3       1 NGH479      0.0000 
     21 C14        35.0820  -14.0610   16.6620 C.3       1 NGH479      0.0000 
     22 H          34.8962  -19.7584   15.6528 H         1 NGH479      0.0000 
     23 H          35.3198  -21.6592   14.0715 H         1 NGH479      0.0000 
     24 H          38.6733  -22.9780   16.5155 H         1 NGH479      0.0000 
     25 H          38.2427  -21.0282   18.0954 H         1 NGH479      0.0000 
     26 H          34.2244  -17.2414   16.7772 H         1 NGH479      0.0000 
     27 H          35.2855  -16.3704   15.6567 H         1 NGH479      0.0000 
     28 H          38.2374  -16.5865   17.8704 H         1 NGH479      0.0000 
     29 H          37.4713  -15.6562   16.5713 H         1 NGH479      0.0000 
     30 H          39.3124  -18.5451   17.5093 H         1 NGH479      0.0000 
     31 H          35.6362  -15.2932   18.3263 H         1 NGH479      0.0000 
     32 H          38.6565  -24.7039   14.1501 H         1 NGH479      0.0000 
     33 H          37.4825  -25.5970   13.5098 H         1 NGH479      0.0000 
     34 H          37.8374  -24.1620   12.8767 H         1 NGH479      0.0000 
     35 H          33.3487  -16.0516   18.7713 H         1 NGH479      0.0000 
     36 H          33.3511  -14.4470   18.6636 H         1 NGH479      0.0000 
     37 H          32.7870  -15.3338   17.4463 H         1 NGH479      0.0000 
     38 H          35.9977  -13.9945   16.2657 H         1 NGH479      0.0000 
     39 H          34.4318  -14.0398   15.9026 H         1 NGH479      0.0000 
     40 H          34.9336  -13.2301   17.1982 H         1 NGH479      0.0000 
     41 H          41.1734  -19.1800   16.5827 H         1 NGH479      0.0000 
@<TRIPOS>BOND
     1    2    1 ar   
     2    6    1 ar   
     3   22    1 1    
     4    3    2 ar   
     5   23    2 1    
     6    4    3 ar   
     7    7    3 1    
     8    5    4 ar   
     9   24    4 1    
    10    6    5 ar   
    11   25    5 1    
    12    9    6 1    
    13    8    7 1    
    14   32    8 1    
    15   33    8 1    
    16   34    8 1    
    17   10    9 2    
    18   11    9 2    
    19   12    9 1    
    20   13   12 1    
    21   14   12 1    
    22   19   13 1    
    23   26   13 1    
    24   27   13 1    
    25   15   14 1    
    26   28   14 1    
    27   29   14 1    
    28   16   15 am   
    29   18   15 2    
    30   17   16 1    
    31   30   16 1    
    32   41   17 1    
    33   20   19 1    
    34   21   19 1    
    35   31   19 1    
    36   35   20 1    
    37   36   20 1    
    38   37   20 1    
    39   38   21 1    
    40   39   21 1    
    41   40   21 1    
@<TRIPOS>SUBSTRUCTURE
     1 NGH479      1 GROUP   
@<TRIPOS>SET

