#    Name: 1h5q_NAP_7_INTS_M
#    Modification time : Tue Mar 25 04:40:18 2014

@<TRIPOS>MOLECULE
1h5q_NAP_7_INTS_M
  112     0    12     0     0
SMALL
NO_CHARGES


@<TRIPOS>ATOM
      1 N          30.8445   -9.9490   50.6460 N.am      2 SEC2        0.0000 
      2 N          31.0510   -9.0060   51.6760 N.am     10 SEL2        0.0000 
      3 N          30.6380  -10.8920   49.6160 N.am      6 SEP2        0.0000 
      4 CA         27.5360   -4.5720   54.7755 C.3       4 GLC5        0.0000 
      5 CA         27.9250   -5.3550   53.0810 C.3      12 GLL5        0.0000 
      6 CA         27.1470   -3.7890   56.4700 C.3       8 GLP5        0.0000 
      7 CA         27.2180   -8.1270   53.6900 C.3       4 GLC5        0.0000 
      8 CA         26.7940   -6.2510   52.6700 C.3      12 GLL5        0.0000 
      9 CA         27.6420  -10.0030   54.7100 C.3       8 GLP5        0.0000 
     10 CA         26.5760   -3.9295   54.6840 C.3       4 GLC5        0.0000 
     11 CA         26.0050   -4.0700   52.8980 C.3      12 GLL5        0.0000 
     12 CA         26.7265   -2.2205   53.3310 C.3       4 GLC5        0.0000 
     13 CA         27.4480   -0.3710   53.7640 C.3       8 GLP5        0.0000 
     14 CA         25.7060   -0.1405   50.3190 C.3       4 GLC5        0.0000 
     15 CA         24.2280   -1.5240   51.0620 C.3      12 GLL5        0.0000 
     16 CA         27.1840    1.2430   49.5760 C.3       8 GLP5        0.0000 
     17 CA         22.1800   -1.7990   50.2380 C.3       4 GLC5        0.0000 
     18 CA         23.2960   -0.4970   51.1380 C.3      12 GLL5        0.0000 
     19 CA         21.0640   -3.1010   49.3380 C.3       8 GLP5        0.0000 
     20 CA         21.4560    0.4265   51.8720 C.3       4 GLC5        0.0000 
     21 CA         19.6160    1.3500   52.6060 C.3       8 GLP5        0.0000 
     22 CA         24.3420    0.5515   49.5120 C.3       4 GLC5        0.0000 
     23 CA         25.3880    1.6000   47.8860 C.3       8 GLP5        0.0000 
     24 O          21.7340    1.0955   50.0845 O.2       1 ALC1        0.0000 
     25 O          22.8850    0.1520   50.0570 O.2       9 ALL1        0.0000 
     26 O          20.5830    2.0390   50.1120 O.2       5 ALP1        0.0000 
     27 N          22.2125    1.1685   52.6820 N.am      2 SEC2        0.0000 
     28 N          22.7290   -0.2220   52.3610 N.am     10 SEL2        0.0000 
     29 N          21.6960    2.5590   53.0030 N.am      6 SEP2        0.0000 
     30 CA         22.8930   -0.5265   55.6230 C.3       4 GLC5        0.0000 
     31 CA         23.0640   -0.9260   53.4960 C.3      12 GLL5        0.0000 
     32 CA         22.7220   -0.1270   57.7500 C.3       8 GLP5        0.0000 
     33 CA         22.5995   -2.5475   54.9790 C.3       4 GLC5        0.0000 
     34 CA         22.1350   -4.1690   56.4620 C.3       8 GLP5        0.0000 
     35 CA         22.1210   -2.3120   52.6590 C.3       4 GLC5        0.0000 
     36 CA         21.1780   -3.6980   51.8220 C.3       8 GLP5        0.0000 
     37 CA         21.3400    0.2120   53.0510 C.3       4 GLC5        0.0000 
     38 CA         23.5215    0.8010   54.2420 C.3       4 GLC5        0.0000 
     39 CA         23.9790    2.5280   54.9880 C.3       8 GLP5        0.0000 
     40 CA         25.2560   -0.6485   53.6300 C.3       4 GLC5        0.0000 
     41 N          33.3345   -7.7105   55.0005 N.am      2 SEC2        0.0000 
     42 N          32.9060   -7.2570   53.7330 N.am     10 SEL2        0.0000 
     43 N          33.7630   -8.1640   56.2680 N.am      6 SEP2        0.0000 
     44 N          31.9990   -6.6270   54.5390 N.am      2 SEC2        0.0000 
     45 N          31.0920   -5.9970   55.3450 N.am      6 SEP2        0.0000 
     46 CA         34.2795   -5.3190   54.9395 C.3       4 GLC5        0.0000 
     47 CA         33.1530   -4.2950   53.3740 C.3      12 GLL5        0.0000 
     48 CA         35.4060   -6.3430   56.5050 C.3       8 GLP5        0.0000 
     49 CA         35.0770   -1.8800   54.2185 C.3       4 GLC5        0.0000 
     50 CA         33.8320   -2.9360   53.1910 C.3      12 GLL5        0.0000 
     51 CA         36.3220   -0.8240   55.2460 C.3       8 GLP5        0.0000 
     52 CA         31.9055   -1.5345   51.0515 C.3       4 GLC5        0.0000 
     53 CA         33.4190   -2.2810   51.8760 C.3      12 GLL5        0.0000 
     54 CA         30.3920   -0.7880   50.2270 C.3       8 GLP5        0.0000 
     55 N          34.1390    0.1830   51.3705 N.am      2 SEC2        0.0000 
     56 N          33.3640   -0.8750   52.0170 N.am     10 SEL2        0.0000 
     57 N          34.9140    1.2410   50.7240 N.am      6 SEP2        0.0000 
     58 O          32.4760   -0.9435   53.0995 O.2       1 ALC1        0.0000 
     59 O          33.3640   -0.8750   52.0170 O.2       9 ALL1        0.0000 
     60 O          31.5880   -1.0120   54.1820 O.2       5 ALP1        0.0000 
     61 N          35.8320   -1.7935   49.0440 N.am      2 SEC2        0.0000 
     62 N          34.6710   -1.8270   49.8360 N.am     10 SEL2        0.0000 
     63 N          36.9930   -1.7600   48.2520 N.am      6 SEP2        0.0000 
     64 N          34.7925   -0.2930   50.2800 N.am      2 SEC2        0.0000 
     65 CA         36.0385   -1.6990   53.5795 C.3       4 GLC5        0.0000 
     66 CA         35.7550   -2.5740   51.9130 C.3      12 GLL5        0.0000 
     67 N          40.3400   -8.1685   50.7090 N.am      2 SEC2        0.0000 
     68 N          39.0790   -7.5060   50.0430 N.am     10 SEL2        0.0000 
     69 N          41.6010   -8.8310   51.3750 N.am      6 SEP2        0.0000 
     70 CA         40.0025   -6.1175   52.2790 C.3       4 GLC5        0.0000 
     71 CA         39.1800   -4.7600   50.6970 C.3      12 GLL5        0.0000 
     72 CA         40.8250   -7.4750   53.8610 C.3       8 GLP5        0.0000 
     73 CA         39.1810   -2.0050   52.8570 C.3       4 GLC5        0.0000 
     74 CA         38.1240   -2.7360   51.3700 C.3      12 GLL5        0.0000 
     75 CA         40.2380   -1.2740   54.3440 C.3       8 GLP5        0.0000 
     76 NZ         25.0085   -8.6770   52.0680 N.4       3 LYC4        0.0000 
     77 NZ         23.7760   -7.5960   51.4740 N.4      11 LYL4        0.0000 
     78 NZ         26.8430   -9.6610   51.4830 N.4       7 LYP4        0.0000 
     79 N          25.0085   -8.6770   52.0680 N.am      2 SEC2        0.0000 
     80 N          23.7760   -7.5960   51.4740 N.am     10 SEL2        0.0000 
     81 N          26.2410   -9.7580   52.6620 N.am      6 SEP2        0.0000 
     82 N          25.0840   -8.1945   51.0280 N.am      2 SEC2        0.0000 
     83 N          26.3920   -8.7930   50.5820 N.am      6 SEP2        0.0000 
     84 N          21.7660   -5.7450   53.8380 N.am      2 SEC2        0.0000 
     85 N          22.2490   -7.1570   53.4850 N.am     10 SEL2        0.0000 
     86 N          21.2830   -4.3330   54.1910 N.am      6 SEP2        0.0000 
     87 N          20.9905   -6.7450   53.1065 N.am      2 SEC2        0.0000 
     88 N          19.7320   -6.3330   52.7280 N.am      6 SEP2        0.0000 
     89 N          21.2360   -8.0820   53.4675 N.am      2 SEC2        0.0000 
     90 N          20.2230   -9.0070   53.4500 N.am      6 SEP2        0.0000 
     91 NZ         25.3230   -8.9920   53.1510 N.4       3 LYC4        0.0000 
     92 NZ         24.4050   -8.2260   53.6400 N.4      11 LYL4        0.0000 
     93 N          24.2940   -8.6365   55.0085 N.am      2 SEC2        0.0000 
     94 N          24.4050   -8.2260   53.6400 N.am     10 SEL2        0.0000 
     95 N          24.1830   -9.0470   56.3770 N.am      6 SEP2        0.0000 
     96 N          25.3230   -8.9920   53.1510 N.am      2 SEC2        0.0000 
     97 CA         22.7815   -2.7830   51.7313 C.3       4 GLC5        0.0000 
     98 CA         24.5420   -2.2120   52.2190 C.3      12 GLL5        0.0000 
     99 CA         24.1965    0.8217   51.8355 C.3       4 GLC5        0.0000 
    100 CA         24.6310    2.6540   52.5710 C.3       8 GLP5        0.0000 
    101 CA         25.9165   -1.1195   52.7022 C.3       4 GLC5        0.0000 
    102 CA         35.4208   -0.7252   50.4423 C.3       4 GLC5        0.0000 
    103 CA         34.5640   -2.6470   50.9700 C.3      12 GLL5        0.0000 
    104 CA         35.6820    1.1600   49.4430 C.3       8 GLP5        0.0000 
    105 CA         37.2018   -5.5333   52.7867 C.3       4 GLC5        0.0000 
    106 CA         36.8070   -4.7220   51.2000 C.3      12 GLL5        0.0000 
    107 CA         37.0220   -5.9970   54.5720 C.3       8 GLP5        0.0000 
    108 CA         40.1377   -3.7947   52.5685 C.3       4 GLC5        0.0000 
    109 CA         41.0500   -3.5070   54.2990 C.3       8 GLP5        0.0000 
    110 CA         39.2472   -1.4292   50.4708 C.3       4 GLC5        0.0000 
    111 CA         39.2710   -3.4050   50.9790 C.3      12 GLL5        0.0000 
    112 CA         39.7970    0.2120   49.7670 C.3       8 GLP5        0.0000 
@<TRIPOS>BOND
@<TRIPOS>SUBSTRUCTURE
     1 ALC1       24 GROUP        1 X    ALC  0     ROOT ALC X 1
     2 SEC2        1 GROUP        1 X    SEC  0     **** SEC X 2
     3 LYC4       76 GROUP        1 X    LYC  0     **** LYC X 4
     4 GLC5        4 GROUP        1 X    GLC  0     **** GLC X 6
     5 ALP1       26 GROUP        1 Y    ALP  0     ROOT ALP Y 8
     6 SEP2        3 GROUP        1 Y    SEP  0     **** SEP Y 9
     7 LYP4       78 GROUP        1 Y    LYP  0     **** LYP Y 11
     8 GLP5        6 GROUP        1 Y    GLP  0     **** GLP Y 13
     9 ALL1       25 GROUP        1 Z    ALL  0     ROOT ALL Z 15
    10 SEL2        2 GROUP        1 Z    SEL  0     **** SEL Z 16
    11 LYL4       77 GROUP        1 Z    LYL  0     **** LYL Z 18
    12 GLL5        5 GROUP        1 Z    GLL  0     **** GLL Z 20
@<TRIPOS>SET

