#    Name: 1h5q_NAP_7_ligand
#    Modification time : Tue Mar 25 04:40:18 2014

@<TRIPOS>MOLECULE
1h5q_NAP_7_ligand
   73    77     1     0     0
SMALL
NO_CHARGES


@<TRIPOS>ATOM
      1 PA         30.5270   -7.6120   51.3160 P.3       1 NAP263      0.0000 
      2 O1A        30.3270   -7.3070   49.8880 O.co2     1 NAP263      0.0000 
      3 O2A        31.0510   -9.0060   51.6760 O.co2     1 NAP263      0.0000 
      4 O5B        29.4280   -7.0210   52.3240 O.3       1 NAP263      0.0000 
      5 C5B        29.1710   -5.6260   52.2700 C.3       1 NAP263      0.0000 
      6 C4B        27.9250   -5.3550   53.0810 C.3       1 NAP263      0.0000 
      7 O4B        27.4260   -4.0490   52.8740 O.3       1 NAP263      0.0000 
      8 C3B        26.7940   -6.2510   52.6700 C.3       1 NAP263      0.0000 
      9 O3B        26.7810   -6.8030   53.9160 O.3       1 NAP263      0.0000 
     10 C2B        25.5320   -5.4400   52.4930 C.3       1 NAP263      0.0000 
     11 O2B        24.4150   -5.8130   53.2660 O.3       1 NAP263      0.0000 
     12 C1B        26.0050   -4.0700   52.8980 C.3       1 NAP263      0.0000 
     13 N9A        25.4710   -3.1510   51.9010 N.pl3     1 NAP263      0.0000 
     14 C8A        25.7260   -3.0550   50.5430 C.2       1 NAP263      0.0000 
     15 N7A        24.9520   -2.0610   50.0440 N.2       1 NAP263      0.0000 
     16 C5A        24.2280   -1.5240   51.0620 C.ar      1 NAP263      0.0000 
     17 C6A        23.2960   -0.4970   51.1380 C.ar      1 NAP263      0.0000 
     18 N6A        22.8850    0.1520   50.0570 N.pl3     1 NAP263      0.0000 
     19 N1A        22.7290   -0.2220   52.3610 N.ar      1 NAP263      0.0000 
     20 C2A        23.0640   -0.9260   53.4960 C.ar      1 NAP263      0.0000 
     21 N3A        23.9870   -1.9380   53.4250 N.ar      1 NAP263      0.0000 
     22 C4A        24.5420   -2.2120   52.2190 C.ar      1 NAP263      0.0000 
     23 O3         31.6840   -6.5580   51.6580 O.3       1 NAP263      0.0000 
     24 PN         33.1260   -6.7510   52.3590 P.3       1 NAP263      0.0000 
     25 O1N        34.0380   -7.4650   51.4340 O.co2     1 NAP263      0.0000 
     26 O2N        32.9060   -7.2570   53.7330 O.co2     1 NAP263      0.0000 
     27 O5D        33.6680   -5.2390   52.4620 O.3       1 NAP263      0.0000 
     28 C5D        33.1530   -4.2950   53.3740 C.3       1 NAP263      0.0000 
     29 C4D        33.8320   -2.9360   53.1910 C.3       1 NAP263      0.0000 
     30 O4D        35.2580   -3.0650   53.1520 O.3       1 NAP263      0.0000 
     31 C3D        33.4190   -2.2810   51.8760 C.3       1 NAP263      0.0000 
     32 O3D        33.3640   -0.8750   52.0170 O.3       1 NAP263      0.0000 
     33 C2D        34.5640   -2.6470   50.9700 C.3       1 NAP263      0.0000 
     34 O2D        34.6710   -1.8270   49.8360 O.3       1 NAP263      0.0000 
     35 C1D        35.7550   -2.5740   51.9130 C.3       1 NAP263      0.0000 
     36 N1N        36.9110   -3.3770   51.4600 N.pl3     1 NAP263      0.0000 
     37 C2N        36.8070   -4.7220   51.2000 C.ar      1 NAP263      0.0000 
     38 C3N        37.9560   -5.4170   50.8030 C.ar      1 NAP263      0.0000 
     39 C7N        37.9050   -6.8750   50.4590 C.2       1 NAP263      0.0000 
     40 O7N        39.0790   -7.5060   50.0430 O.2       1 NAP263      0.0000 
     41 N7N        36.7750   -7.5720   50.5540 N.am      1 NAP263      0.0000 
     42 C4N        39.1800   -4.7600   50.6970 C.ar      1 NAP263      0.0000 
     43 C5N        39.2710   -3.4050   50.9790 C.ar      1 NAP263      0.0000 
     44 C6N        38.1240   -2.7360   51.3700 C.ar      1 NAP263      0.0000 
     45 P2B        23.6430   -7.1620   52.8780 P.3       1 NAP263      0.0000 
     46 O1X        23.7760   -7.5960   51.4740 O.co2     1 NAP263      0.0000 
     47 O2X        22.2490   -7.1570   53.4850 O.co2     1 NAP263      0.0000 
     48 O3X        24.4050   -8.2260   53.6400 O.co2     1 NAP263      0.0000 
     49 H          28.9949   -5.2832   51.2496 H         1 NAP263      0.0000 
     50 H          29.9889   -5.0440   52.6969 H         1 NAP263      0.0000 
     51 H          28.1251   -5.5294   54.1240 H         1 NAP263      0.0000 
     52 H          27.0489   -6.8428   51.9300 H         1 NAP263      0.0000 
     53 H          25.3253   -5.3838   51.4312 H         1 NAP263      0.0000 
     54 H          25.6103   -3.8464   53.8584 H         1 NAP263      0.0000 
     55 H          26.3417   -3.6010   50.0601 H         1 NAP263      0.0000 
     56 H          23.2596   -0.1637   49.1852 H         1 NAP263      0.0000 
     57 H          22.2377    0.8984   50.2114 H         1 NAP263      0.0000 
     58 H          22.6196   -0.6905   54.3982 H         1 NAP263      0.0000 
     59 H          33.3098   -4.6013   54.4216 H         1 NAP263      0.0000 
     60 H          32.0691   -4.1401   53.2435 H         1 NAP263      0.0000 
     61 H          33.5292   -2.2825   53.9938 H         1 NAP263      0.0000 
     62 H          32.5450   -2.7298   51.5306 H         1 NAP263      0.0000 
     63 H          34.4365   -3.7050   50.7242 H         1 NAP263      0.0000 
     64 H          36.0296   -1.5349   52.0119 H         1 NAP263      0.0000 
     65 H          35.9191   -5.2141   51.2905 H         1 NAP263      0.0000 
     66 H          35.9767   -7.0723   50.8902 H         1 NAP263      0.0000 
     67 H          36.8262   -8.5325   50.2806 H         1 NAP263      0.0000 
     68 H          40.0179   -5.2843   50.4083 H         1 NAP263      0.0000 
     69 H          40.1607   -2.9154   50.8999 H         1 NAP263      0.0000 
     70 H          38.1857   -1.7206   51.6012 H         1 NAP263      0.0000 
     71 H          25.9252   -7.3183   53.9617 H         1 NAP263      0.0000 
     72 H          33.2006   -0.7189   52.9912 H         1 NAP263      0.0000 
     73 H          34.4165   -0.9133   50.1526 H         1 NAP263      0.0000 
@<TRIPOS>BOND
     1    2    1 ar   
     2    3    1 ar   
     3    4    1 1    
     4   23    1 1    
     5    5    4 1    
     6    6    5 1    
     7   49    5 1    
     8   50    5 1    
     9    7    6 1    
    10    8    6 1    
    11   51    6 1    
    12   12    7 1    
    13    9    8 1    
    14   10    8 1    
    15   52    8 1    
    16   71    9 1    
    17   11   10 1    
    18   12   10 1    
    19   53   10 1    
    20   45   11 1    
    21   13   12 1    
    22   54   12 1    
    23   14   13 1    
    24   22   13 1    
    25   15   14 2    
    26   55   14 1    
    27   16   15 1    
    28   17   16 ar   
    29   22   16 ar   
    30   18   17 1    
    31   19   17 ar   
    32   56   18 1    
    33   57   18 1    
    34   20   19 ar   
    35   21   20 ar   
    36   58   20 1    
    37   22   21 ar   
    38   24   23 1    
    39   25   24 ar   
    40   26   24 ar   
    41   27   24 1    
    42   28   27 1    
    43   29   28 1    
    44   59   28 1    
    45   60   28 1    
    46   30   29 1    
    47   31   29 1    
    48   61   29 1    
    49   35   30 1    
    50   32   31 1    
    51   33   31 1    
    52   62   31 1    
    53   72   32 1    
    54   34   33 1    
    55   35   33 1    
    56   63   33 1    
    57   73   34 1    
    58   36   35 1    
    59   64   35 1    
    60   37   36 ar   
    61   44   36 ar   
    62   38   37 ar   
    63   65   37 1    
    64   39   38 1    
    65   42   38 ar   
    66   40   39 2    
    67   41   39 am   
    68   66   41 1    
    69   67   41 1    
    70   43   42 ar   
    71   68   42 1    
    72   44   43 ar   
    73   69   43 1    
    74   70   44 1    
    75   46   45 ar   
    76   47   45 ar   
    77   48   45 ar   
@<TRIPOS>SUBSTRUCTURE
     1 NAP263      1 GROUP   
@<TRIPOS>SET

