#    Name: 3ohf_3HF_2_INTS_M
#    Modification time : Tue Mar 25 04:37:29 2014

@<TRIPOS>MOLECULE
3ohf_3HF_2_INTS_M
   88     0    12     0     0
SMALL
NO_CHARGES


@<TRIPOS>ATOM
      1 CA         83.7940   14.9970   44.6075 C.3       4 GLC5        0.0000 
      2 CA         83.4840   14.8060   46.4250 C.3      12 GLL5        0.0000 
      3 CA         84.1040   15.1880   42.7900 C.3       8 GLP5        0.0000 
      4 CA         82.6000   14.3550   44.0560 C.3       4 GLC5        0.0000 
      5 CA         82.3940   14.1860   45.8210 C.3      12 GLL5        0.0000 
      6 CA         82.8060   14.5240   42.2910 C.3       8 GLP5        0.0000 
      7 CA         79.3830    9.6665   42.9250 C.3       4 GLC5        0.0000 
      8 CA         78.7360    8.9780   44.7610 C.3      12 GLL5        0.0000 
      9 CA         80.0300   10.3550   41.0890 C.3       8 GLP5        0.0000 
     10 CA         75.7855   10.7950   46.9605 C.3       4 GLC5        0.0000 
     11 CA         76.8650    8.9820   46.2790 C.3      12 GLL5        0.0000 
     12 CA         74.7060   12.6080   47.6420 C.3       8 GLP5        0.0000 
     13 CA         81.1200   14.7870   40.9310 C.3       4 GLC5        0.0000 
     14 CA         79.4340   15.0500   39.5710 C.3      12 GLL5        0.0000 
     15 CA         78.9520   13.1645   48.1945 C.3       4 GLC5        0.0000 
     16 CA         80.1520   11.8240   47.3780 C.3      12 GLL5        0.0000 
     17 CA         77.7520   14.5050   49.0110 C.3       8 GLP5        0.0000 
     18 CA         75.2070    9.7510   51.7870 C.3       4 GLC5        0.0000 
     19 CA         76.3150   10.5030   50.6600 C.3      12 GLL5        0.0000 
     20 CA         74.0990    8.9990   52.9140 C.3       8 GLP5        0.0000 
     21 CA         74.6060    9.2995   50.2295 C.3       4 GLC5        0.0000 
     22 CA         72.8970    8.0960   49.7990 C.3       8 GLP5        0.0000 
     23 CA         75.5105   11.5555   49.1510 C.3       4 GLC5        0.0000 
     24 CA         76.9225    9.7940   36.8930 C.3       4 GLC5        0.0000 
     25 CA         76.8670   11.6640   36.7860 C.3      12 GLL5        0.0000 
     26 CA         76.9780    7.9240   37.0000 C.3       8 GLP5        0.0000 
     27 CA         77.2250   10.9350   38.6250 C.3       4 GLC5        0.0000 
     28 CA         77.5830   10.2060   40.4640 C.3       8 GLP5        0.0000 
     29 CA         75.7330   11.5635   45.9645 C.3       4 GLC5        0.0000 
     30 CA         76.7600   10.5190   44.2870 C.3      12 GLL5        0.0000 
     31 CA         76.6720   16.7875   39.7445 C.3       4 GLC5        0.0000 
     32 CA         77.6530   15.9450   41.1450 C.3      12 GLL5        0.0000 
     33 CA         75.6910   17.6300   38.3440 C.3       8 GLP5        0.0000 
     34 CA         76.8235   17.7685   41.7435 C.3       4 GLC5        0.0000 
     35 CA         75.9940   19.5920   42.3420 C.3       8 GLP5        0.0000 
     36 CA         84.2470   10.6980   47.7070 C.3       4 GLC5        0.0000 
     37 CA         83.7230    9.7750   49.5680 C.3      12 GLL5        0.0000 
     38 CA         84.7710   11.6210   45.8460 C.3       8 GLP5        0.0000 
     39 CA         77.7790   12.6065   49.7005 C.3       4 GLC5        0.0000 
     40 CA         77.8060   10.7080   50.3900 C.3      12 GLL5        0.0000 
     41 CA         77.9430    8.6410   52.8460 C.3       4 GLC5        0.0000 
     42 CA         78.6470    9.7080   51.1710 C.3      12 GLL5        0.0000 
     43 CA         77.2390    7.5740   54.5210 C.3       8 GLP5        0.0000 
     44 CA         80.2245    7.5810   50.1455 C.3       4 GLC5        0.0000 
     45 CA         81.2630    9.2040   49.1940 C.3      12 GLL5        0.0000 
     46 CA         79.1860    5.9580   51.0970 C.3       8 GLP5        0.0000 
     47 O          77.7440   12.1090   46.2730 O.2       1 ALC1        0.0000 
     48 O          78.4450   12.0430   45.0490 O.2       9 ALL1        0.0000 
     49 O          77.0430   12.1750   47.4970 O.2       5 ALP1        0.0000 
     50 OD1        76.6245   15.8070   43.3935 O.co2     3 ASC3        0.0000 
     51 OD1        76.8710   15.1630   42.1700 O.co2    11 ASL3        0.0000 
     52 OD1        76.3780   16.4510   44.6170 O.co2     7 ASP3        0.0000 
     53 N          81.7415   12.0475   43.4905 N.am      2 SEC2        0.0000 
     54 N          80.2780   12.6170   43.8770 N.am     10 SEL2        0.0000 
     55 N          83.2050   11.4780   43.1040 N.am      6 SEP2        0.0000 
     56 N          79.6940   13.5520   50.8560 N.am      2 SEC2        0.0000 
     57 N          80.7710   12.5890   50.4240 N.am     10 SEL2        0.0000 
     58 N          78.6170   14.5150   51.2880 N.am      6 SEP2        0.0000 
     59 N          80.1600   12.6355   51.8490 N.am      2 SEC2        0.0000 
     60 N          79.5490   12.6820   53.2740 N.am      6 SEP2        0.0000 
     61 O          74.7220   11.9020   42.9125 O.2       1 ALC1        0.0000 
     62 O          75.8160   12.4590   42.4510 O.2       9 ALL1        0.0000 
     63 O          73.6280   11.3450   43.3740 O.2       5 ALP1        0.0000 
     64 CA         84.2048   13.1450   46.4677 C.3       4 GLC5        0.0000 
     65 CA         83.0637   16.5335   47.3263 C.3       4 GLC5        0.0000 
     66 CA         82.4890   18.3980   47.5630 C.3       8 GLP5        0.0000 
     67 CA         75.4258    8.3167   47.0675 C.3       4 GLC5        0.0000 
     68 CA         73.6730    8.1340   47.4570 C.3       8 GLP5        0.0000 
     69 CA         80.1740   12.7260   39.4190 C.3       4 GLC5        0.0000 
     70 CA         80.7270   10.8090   39.8040 C.3       8 GLP5        0.0000 
     71 CA         83.3870   12.6800   46.0153 C.3       4 GLC5        0.0000 
     72 CA         83.6197   12.4755   47.0147 C.3       4 GLC5        0.0000 
     73 CA         81.9220   13.0220   47.8780 C.3      12 GLL5        0.0000 
     74 CA         79.4548   12.1440   38.9198 C.3       4 GLC5        0.0000 
     75 CA         78.8500   13.4620   37.8340 C.3      12 GLL5        0.0000 
     76 CA         82.0460   11.3807   46.0727 C.3       4 GLC5        0.0000 
     77 CA         80.4840   12.5450   46.2390 C.3      12 GLL5        0.0000 
     78 CA         83.7740   10.5770   45.3370 C.3       8 GLP5        0.0000 
     79 CA         80.4453   14.6275   47.3459 C.3       4 GLC5        0.0000 
     80 CA         79.6470   16.1130   48.4800 C.3       8 GLP5        0.0000 
     81 CA         81.1550   14.8332   48.2399 C.3       4 GLC5        0.0000 
     82 CA         77.3755   10.6765   42.2800 C.3       4 GLC5        0.0000 
     83 CA         77.5760   11.7750   43.9050 C.3      12 GLL5        0.0000 
     84 CA         75.3694    8.9514   44.3693 C.3       4 GLC5        0.0000 
     85 CA         73.7730    8.0290   43.7430 C.3       8 GLP5        0.0000 
     86 CA         79.2880    7.9287   51.1390 C.3       4 GLC5        0.0000 
     87 CA         77.3935   11.8445   41.7488 C.3       4 GLC5        0.0000 
     88 CA         76.7660   12.9670   43.3860 C.3      12 GLL5        0.0000 
@<TRIPOS>BOND
@<TRIPOS>SUBSTRUCTURE
     1 ALC1       47 GROUP        1 X    ALC  0     ROOT ALC X 1
     2 SEC2       53 GROUP        1 X    SEC  0     **** SEC X 2
     3 ASC3       50 GROUP        1 X    ASC  0     **** ASC X 3
     4 GLC5        1 GROUP        1 X    GLC  0     **** GLC X 6
     5 ALP1       49 GROUP        1 Y    ALP  0     ROOT ALP Y 8
     6 SEP2       55 GROUP        1 Y    SEP  0     **** SEP Y 9
     7 ASP3       52 GROUP        1 Y    ASP  0     **** ASP Y 10
     8 GLP5        3 GROUP        1 Y    GLP  0     **** GLP Y 13
     9 ALL1       48 GROUP        1 Z    ALL  0     ROOT ALL Z 15
    10 SEL2       54 GROUP        1 Z    SEL  0     **** SEL Z 16
    11 ASL3       51 GROUP        1 Z    ASL  0     **** ASL Z 17
    12 GLL5        2 GROUP        1 Z    GLL  0     **** GLL Z 20
@<TRIPOS>SET

