#    Name: 3ohf_3HF_2_ligand
#    Modification time : Tue Mar 25 04:37:29 2014

@<TRIPOS>MOLECULE
3ohf_3HF_2_ligand
   89    92     1     0     0
SMALL
NO_CHARGES


@<TRIPOS>ATOM
      1 C1         78.7490    7.5360   46.7130 C.ar      1 3HF394      0.0000 
      2 C2         83.4840   14.8060   46.4250 C.ar      1 3HF394      0.0000 
      3 C3         79.3660    8.0170   45.5550 C.ar      1 3HF394      0.0000 
      4 C4         77.4920    8.0170   47.0770 C.ar      1 3HF394      0.0000 
      5 C5         83.7930   14.5320   47.7540 C.ar      1 3HF394      0.0000 
      6 C6         79.8080   14.2360   38.4970 C.ar      1 3HF394      0.0000 
      7 C7         82.3940   14.1860   45.8210 C.ar      1 3HF394      0.0000 
      8 C8         78.7360    8.9780   44.7610 C.ar      1 3HF394      0.0000 
      9 C9         76.8650    8.9820   46.2790 C.ar      1 3HF394      0.0000 
     10 C10        79.4340   15.0500   39.5710 C.ar      1 3HF394      0.0000 
     11 C11        83.0150   13.6380   48.4890 C.ar      1 3HF394      0.0000 
     12 C12        78.8500   13.4620   37.8340 C.ar      1 3HF394      0.0000 
     13 C13        77.1520   14.3160   39.3020 C.ar      1 3HF394      0.0000 
     14 C14        80.1520   11.8240   47.3780 C.2       1 3HF394      0.0000 
     15 C15        81.6120   13.2920   46.5480 C.ar      1 3HF394      0.0000 
     16 C16        80.4840   12.5450   46.2390 C.2       1 3HF394      0.0000 
     17 C17        77.4780    9.4750   45.1290 C.ar      1 3HF394      0.0000 
     18 C18        78.0980   15.0900   39.9730 C.ar      1 3HF394      0.0000 
     19 C19        81.9220   13.0220   47.8780 C.ar      1 3HF394      0.0000 
     20 C20        77.5150   13.4960   38.2370 C.ar      1 3HF394      0.0000 
     21 C21        79.7360   12.4150   44.9580 C.2       1 3HF394      0.0000 
     22 C22        81.0040   11.6800   49.6280 C.2       1 3HF394      0.0000 
     23 C23        85.1170    9.1560   49.7030 C.3       1 3HF394      0.0000 
     24 C24        76.3150   10.5030   50.6600 C.3       1 3HF394      0.0000 
     25 C25        76.8670   11.6640   36.7860 C.3       1 3HF394      0.0000 
     26 C26        76.7600   10.5190   44.2870 C.3       1 3HF394      0.0000 
     27 C27        77.6530   15.9450   41.1450 C.3       1 3HF394      0.0000 
     28 C28        83.7230    9.7750   49.5680 C.3       1 3HF394      0.0000 
     29 C29        77.8060   10.7080   50.3900 C.3       1 3HF394      0.0000 
     30 C30        82.6150    8.7360   49.7590 C.3       1 3HF394      0.0000 
     31 C31        78.6470    9.7080   51.1710 C.3       1 3HF394      0.0000 
     32 C32        81.2630    9.2040   49.1940 C.3       1 3HF394      0.0000 
     33 C33        80.1330   10.0910   51.1910 C.3       1 3HF394      0.0000 
     34 C34        77.6420   13.9990   42.6810 C.3       1 3HF394      0.0000 
     35 C35        77.5760   11.7750   43.9050 C.3       1 3HF394      0.0000 
     36 C36        76.7660   12.9670   43.3860 C.3       1 3HF394      0.0000 
     37 N37        81.0250   12.1210   48.3640 N.am      1 3HF394      0.0000 
     38 N38        78.4450   12.0430   45.0490 N.am      1 3HF394      0.0000 
     39 N39        76.8710   15.1630   42.1700 N.4       1 3HF394      0.0000 
     40 N40        80.7090   10.3800   49.8700 N.am      1 3HF394      0.0000 
     41 O41        80.2780   12.6170   43.8770 O.2       1 3HF394      0.0000 
     42 O42        80.7710   12.5890   50.4240 O.2       1 3HF394      0.0000 
     43 O43        75.8160   12.4590   42.4510 O.3       1 3HF394      0.0000 
     44 O44        76.5460   12.7880   37.6460 O.3       1 3HF394      0.0000 
     45 H          79.2195    6.8330   47.2910 H         1 3HF394      0.0000 
     46 H          84.0611   15.4668   45.8889 H         1 3HF394      0.0000 
     47 H          80.2936    7.6594   45.2849 H         1 3HF394      0.0000 
     48 H          77.0290    7.6695   47.9199 H         1 3HF394      0.0000 
     49 H          84.6007   14.9915   48.1985 H         1 3HF394      0.0000 
     50 H          80.7888   14.2064   38.1942 H         1 3HF394      0.0000 
     51 H          82.1663   14.3875   44.8397 H         1 3HF394      0.0000 
     52 H          79.1915    9.3212   43.9091 H         1 3HF394      0.0000 
     53 H          75.9308    9.3329   46.5506 H         1 3HF394      0.0000 
     54 H          80.1364   15.6123   40.0583 H         1 3HF394      0.0000 
     55 H          83.2424   13.4359   49.4644 H         1 3HF394      0.0000 
     56 H          79.1330   12.8653   37.0455 H         1 3HF394      0.0000 
     57 H          76.1612   14.3524   39.6021 H         1 3HF394      0.0000 
     58 H          79.4095   11.2121   47.4341 H         1 3HF394      0.0000 
     59 H          75.8448   10.8520   44.8245 H         1 3HF394      0.0000 
     60 H          76.3992   10.0429   43.3486 H         1 3HF394      0.0000 
     61 H          77.0352   16.7738   40.7693 H         1 3HF394      0.0000 
     62 H          78.5396   16.3875   41.6223 H         1 3HF394      0.0000 
     63 H          83.6254   10.2244   48.5767 H         1 3HF394      0.0000 
     64 H          83.6075   10.5633   50.3159 H         1 3HF394      0.0000 
     65 H          78.0856   11.7211   50.6807 H         1 3HF394      0.0000 
     66 H          77.9959   10.5855   49.3233 H         1 3HF394      0.0000 
     67 H          82.4991    8.5262   50.8272 H         1 3HF394      0.0000 
     68 H          82.9046    7.8056   49.2599 H         1 3HF394      0.0000 
     69 H          78.5432    8.7162   50.7201 H         1 3HF394      0.0000 
     70 H          78.2818    9.6531   52.2013 H         1 3HF394      0.0000 
     71 H          80.5582    8.3505   49.2583 H         1 3HF394      0.0000 
     72 H          81.4025    9.4067   48.1129 H         1 3HF394      0.0000 
     73 H          80.6893    9.2633   51.6811 H         1 3HF394      0.0000 
     74 H          80.2470   10.9697   51.8616 H         1 3HF394      0.0000 
     75 H          78.1666   13.5002   41.8490 H         1 3HF394      0.0000 
     76 H          78.4154   14.3410   43.3889 H         1 3HF394      0.0000 
     77 H          78.2460   11.4295   43.0629 H         1 3HF394      0.0000 
     78 H          76.2744   13.4331   44.2170 H         1 3HF394      0.0000 
     79 H          77.9853   11.9239   45.9943 H         1 3HF394      0.0000 
     80 H          85.8391    9.8371   49.5822 H         1 3HF394      0.0000 
     81 H          85.2534    8.7406   50.6024 H         1 3HF394      0.0000 
     82 H          85.2728    8.4398   49.0227 H         1 3HF394      0.0000 
     83 H          76.0117    9.5880   50.3938 H         1 3HF394      0.0000 
     84 H          76.0942   10.6146   51.6289 H         1 3HF394      0.0000 
     85 H          75.7526   11.1570   50.1541 H         1 3HF394      0.0000 
     86 H          77.4301   11.9410   36.0074 H         1 3HF394      0.0000 
     87 H          77.3731   10.9542   37.2759 H         1 3HF394      0.0000 
     88 H          76.0443   11.2339   36.4144 H         1 3HF394      0.0000 
     89 H          75.0984   12.0445   43.0107 H         1 3HF394      0.0000 
@<TRIPOS>BOND
     1    3    1 ar   
     2    4    1 ar   
     3   45    1 1    
     4    5    2 ar   
     5    7    2 ar   
     6   46    2 1    
     7    8    3 ar   
     8   47    3 1    
     9    9    4 ar   
    10   48    4 1    
    11   11    5 ar   
    12   49    5 1    
    13   10    6 ar   
    14   12    6 ar   
    15   50    6 1    
    16   15    7 ar   
    17   51    7 1    
    18   17    8 ar   
    19   52    8 1    
    20   17    9 ar   
    21   53    9 1    
    22   18   10 ar   
    23   54   10 1    
    24   19   11 ar   
    25   55   11 1    
    26   20   12 ar   
    27   56   12 1    
    28   18   13 ar   
    29   20   13 ar   
    30   57   13 1    
    31   16   14 2    
    32   37   14 1    
    33   58   14 1    
    34   16   15 1    
    35   19   15 ar   
    36   21   16 1    
    37   26   17 1    
    38   27   18 1    
    39   37   19 1    
    40   44   20 1    
    41   38   21 am   
    42   41   21 2    
    43   37   22 am   
    44   40   22 am   
    45   42   22 2    
    46   28   23 1    
    47   80   23 1    
    48   81   23 1    
    49   82   23 1    
    50   29   24 1    
    51   83   24 1    
    52   84   24 1    
    53   85   24 1    
    54   44   25 1    
    55   86   25 1    
    56   87   25 1    
    57   88   25 1    
    58   35   26 1    
    59   59   26 1    
    60   60   26 1    
    61   39   27 1    
    62   61   27 1    
    63   62   27 1    
    64   30   28 1    
    65   63   28 1    
    66   64   28 1    
    67   31   29 1    
    68   65   29 1    
    69   66   29 1    
    70   32   30 1    
    71   67   30 1    
    72   68   30 1    
    73   33   31 1    
    74   69   31 1    
    75   70   31 1    
    76   40   32 1    
    77   71   32 1    
    78   72   32 1    
    79   40   33 1    
    80   73   33 1    
    81   74   33 1    
    82   36   34 1    
    83   39   34 1    
    84   75   34 1    
    85   76   34 1    
    86   36   35 1    
    87   38   35 1    
    88   77   35 1    
    89   43   36 1    
    90   78   36 1    
    91   79   38 1    
    92   89   43 1    
@<TRIPOS>SUBSTRUCTURE
     1 3HF394      1 GROUP   
@<TRIPOS>SET

