#    Name: 1cbf_SAH_1_INTS_M
#    Modification time : Mon Mar 24 20:28:02 2014

@<TRIPOS>MOLECULE
1cbf_SAH_1_INTS_M
   76     0     9     0     0
SMALL
NO_CHARGES


@<TRIPOS>ATOM
      1 O         -14.5620   34.4905   81.0950 O.2       1 ALC1        0.0000 
      2 O         -13.8600   33.0770   81.0970 O.2       7 ALL1        0.0000 
      3 O         -15.2640   35.9040   81.0930 O.2       4 ALP1        0.0000 
      4 O         -15.2085   32.7875   80.8080 O.2       1 ALC1        0.0000 
      5 O         -16.5570   32.4980   80.5190 O.2       4 ALP1        0.0000 
      6 O         -13.5785   31.8675   81.5330 O.2       1 ALC1        0.0000 
      7 O         -13.2970   30.6580   81.9690 O.2       4 ALP1        0.0000 
      8 CA        -12.5915   35.9730   80.3755 C.3       3 GLC5        0.0000 
      9 CA        -12.8790   33.8070   80.2610 C.3       9 GLL5        0.0000 
     10 CA        -12.3040   38.1390   80.4900 C.3       6 GLP5        0.0000 
     11 CA        -14.1760   35.1015   79.3355 C.3       3 GLC5        0.0000 
     12 CA        -15.4730   36.3960   78.4100 C.3       6 GLP5        0.0000 
     13 CA        -10.6010   31.9765   79.4415 C.3       3 GLC5        0.0000 
     14 CA        -11.4700   33.2480   80.6470 C.3       9 GLL5        0.0000 
     15 CA         -9.7320   30.7050   78.2360 C.3       6 GLP5        0.0000 
     16 CA        -10.2775   30.9805   83.1360 C.3       3 GLC5        0.0000 
     17 CA         -9.4270   32.6580   82.4330 C.3       9 GLL5        0.0000 
     18 CA        -11.1280   29.3030   83.8390 C.3       6 GLP5        0.0000 
     19 N         -15.5110   33.6805   78.5585 N.am      2 SEC2        0.0000 
     20 N         -14.2490   33.0090   78.3820 N.am      8 SEL2        0.0000 
     21 N         -16.7730   34.3520   78.7350 N.am      5 SEP2        0.0000 
     22 N         -14.2045   32.4465   76.9950 N.am      2 SEC2        0.0000 
     23 N         -14.1600   31.8840   75.6080 N.am      5 SEP2        0.0000 
     24 N         -12.7460   34.4120   76.4995 N.am      2 SEC2        0.0000 
     25 N         -12.4620   34.2740   77.9140 N.am      8 SEL2        0.0000 
     26 N         -13.0300   34.5500   75.0850 N.am      5 SEP2        0.0000 
     27 N         -11.4540   34.2360   77.0855 N.am      2 SEC2        0.0000 
     28 N         -10.4460   34.1980   76.2570 N.am      5 SEP2        0.0000 
     29 CA         -8.6870   32.2110   79.3770 C.3       3 GLC5        0.0000 
     30 CA         -7.6420   33.7170   80.5180 C.3       9 GLL5        0.0000 
     31 CA         -6.8330   32.1310   81.5865 C.3       3 GLC5        0.0000 
     32 CA         -6.0240   30.5450   82.6550 C.3       6 GLP5        0.0000 
     33 CA         -5.2020   32.7195   80.6155 C.3       3 GLC5        0.0000 
     34 CA         -6.3790   34.5070   80.1320 C.3       9 GLL5        0.0000 
     35 CA         -4.0250   30.9320   81.0990 C.3       6 GLP5        0.0000 
     36 N          -5.0710   32.3775   80.3325 N.am      2 SEC2        0.0000 
     37 N          -5.2000   33.9130   80.7030 N.am      8 SEL2        0.0000 
     38 N          -4.9420   30.8420   79.9620 N.am      5 SEP2        0.0000 
     39 N          -5.4545   31.9270   79.0970 N.am      2 SEC2        0.0000 
     40 N          -5.9670   33.0120   78.2320 N.am      8 SEL2        0.0000 
     41 O          -5.0635   33.4185   77.3355 O.2       1 ALC1        0.0000 
     42 O          -5.9670   33.0120   78.2320 O.2       7 ALL1        0.0000 
     43 O          -4.1600   33.8250   76.4390 O.2       4 ALP1        0.0000 
     44 CA         -9.3080   34.9355   76.8930 C.3       3 GLC5        0.0000 
     45 CA         -7.8650   34.4610   78.2880 C.3       9 GLL5        0.0000 
     46 CA        -10.7510   35.4100   75.4980 C.3       6 GLP5        0.0000 
     47 CA         -8.7985   32.5830   78.2620 C.3       3 GLC5        0.0000 
     48 CA         -8.0560   33.0060   76.6700 C.3       3 GLC5        0.0000 
     49 CA         -8.2470   31.5510   75.0520 C.3       6 GLP5        0.0000 
     50 CA         -7.1810   39.9695   75.4470 C.3       3 GLC5        0.0000 
     51 CA         -8.5270   38.5440   75.9800 C.3       9 GLL5        0.0000 
     52 CA         -5.8350   41.3950   74.9140 C.3       6 GLP5        0.0000 
     53 CA         -8.6755   38.9230   73.8405 C.3       3 GLC5        0.0000 
     54 CA         -8.8240   39.3020   71.7010 C.3       6 GLP5        0.0000 
     55 O         -10.4080   40.3210   76.3070 O.2       1 ALC1        0.0000 
     56 O          -9.2760   39.6480   75.8760 O.2       7 ALL1        0.0000 
     57 O         -11.5400   40.9940   76.7380 O.2       4 ALP1        0.0000 
     58 O          -9.5785   40.6840   74.6600 O.2       1 ALC1        0.0000 
     59 O          -9.8810   41.7200   73.4440 O.2       4 ALP1        0.0000 
     60 N          -7.4595   39.3755   74.1525 N.am      2 SEC2        0.0000 
     61 N          -7.5730   38.2890   75.0420 N.am      8 SEL2        0.0000 
     62 N          -7.3460   40.4620   73.2630 N.am      5 SEP2        0.0000 
     63 CA         -8.8065   36.2830   75.3325 C.3       3 GLC5        0.0000 
     64 CA         -6.8620   37.1560   75.1670 C.3       9 GLL5        0.0000 
     65 CA         -6.3485   39.2755   75.0405 C.3       3 GLC5        0.0000 
     66 CA         -5.0365   36.5675   75.4650 C.3       3 GLC5        0.0000 
     67 CA         -3.2110   35.9790   75.7630 C.3       6 GLP5        0.0000 
     68 CA         -6.7130   35.4985   74.2130 C.3       3 GLC5        0.0000 
     69 CA         -6.5640   33.8410   73.2590 C.3       6 GLP5        0.0000 
     70 CA         -7.3753   32.4880   82.9338 C.3       3 GLC5        0.0000 
     71 CA         -8.3000   34.0120   81.8520 C.3       9 GLL5        0.0000 
     72 CA         -5.8870   31.6410   83.7250 C.3       6 GLP5        0.0000 
     73 CA         -5.2000   36.1690   79.1382 C.3       3 GLC5        0.0000 
     74 CA         -4.0320   37.9130   78.9050 C.3       6 GLP5        0.0000 
     75 CA         -9.5071   36.3656   76.1260 C.3       3 GLC5        0.0000 
     76 CA         -8.7160   37.6590   77.0140 C.3       9 GLL5        0.0000 
@<TRIPOS>BOND
@<TRIPOS>SUBSTRUCTURE
     1 ALC1        1 GROUP        1 X    ALC  0     ROOT ALC X 1
     2 SEC2       19 GROUP        1 X    SEC  0     **** SEC X 2
     3 GLC5        8 GROUP        1 X    GLC  0     **** GLC X 6
     4 ALP1        3 GROUP        1 Y    ALP  0     ROOT ALP Y 8
     5 SEP2       21 GROUP        1 Y    SEP  0     **** SEP Y 9
     6 GLP5       10 GROUP        1 Y    GLP  0     **** GLP Y 13
     7 ALL1        2 GROUP        1 Z    ALL  0     ROOT ALL Z 15
     8 SEL2       20 GROUP        1 Z    SEL  0     **** SEL Z 16
     9 GLL5        9 GROUP        1 Z    GLL  0     **** GLL Z 20
@<TRIPOS>SET

