#    Name: 1cbf_SAH_1_ligand
#    Modification time : Mon Mar 24 20:28:03 2014

@<TRIPOS>MOLECULE
1cbf_SAH_1_ligand
   46    48     1     0     0
SMALL
NO_CHARGES


@<TRIPOS>ATOM
      1 N         -13.8600   33.0770   81.0970 N.4       1 SAH300      0.0000 
      2 CA        -12.8790   33.8070   80.2610 C.3       1 SAH300      0.0000 
      3 CB        -11.4700   33.2480   80.6470 C.3       1 SAH300      0.0000 
      4 CG        -10.9980   33.4920   82.1330 C.3       1 SAH300      0.0000 
      5 SD         -9.4270   32.6580   82.4330 S.3       1 SAH300      0.0000 
      6 C         -13.2270   33.7250   78.7730 C.2       1 SAH300      0.0000 
      7 O         -14.2490   33.0090   78.3820 O.co2     1 SAH300      0.0000 
      8 OXT       -12.4620   34.2740   77.9140 O.co2     1 SAH300      0.0000 
      9 C5'        -8.3000   34.0120   81.8520 C.3       1 SAH300      0.0000 
     10 C4'        -7.6420   33.7170   80.5180 C.3       1 SAH300      0.0000 
     11 O4'        -8.5440   33.9960   79.4280 O.3       1 SAH300      0.0000 
     12 C3'        -6.3790   34.5070   80.1320 C.3       1 SAH300      0.0000 
     13 O3'        -5.2000   33.9130   80.7030 O.3       1 SAH300      0.0000 
     14 C2'        -6.3570   34.3430   78.6110 C.3       1 SAH300      0.0000 
     15 O2'        -5.9670   33.0120   78.2320 O.3       1 SAH300      0.0000 
     16 C1'        -7.8650   34.4610   78.2880 C.3       1 SAH300      0.0000 
     17 N9         -8.2810   35.8080   78.1020 N.pl3     1 SAH300      0.0000 
     18 C8         -9.2700   36.5080   78.7620 C.2       1 SAH300      0.0000 
     19 N7         -9.5460   37.6470   78.1160 N.2       1 SAH300      0.0000 
     20 C5         -8.7160   37.6590   77.0140 C.ar      1 SAH300      0.0000 
     21 C6         -8.5270   38.5440   75.9800 C.ar      1 SAH300      0.0000 
     22 N6         -9.2760   39.6480   75.8760 N.pl3     1 SAH300      0.0000 
     23 N1         -7.5730   38.2890   75.0420 N.ar      1 SAH300      0.0000 
     24 C2         -6.8620   37.1560   75.1670 C.ar      1 SAH300      0.0000 
     25 N3         -6.9810   36.2140   76.1200 N.ar      1 SAH300      0.0000 
     26 C4         -7.9050   36.5410   77.0110 C.ar      1 SAH300      0.0000 
     27 H         -12.8895   34.8605   80.5709 H         1 SAH300      0.0000 
     28 H         -10.7175   33.6930   79.9715 H         1 SAH300      0.0000 
     29 H         -11.4595   32.1594   80.4590 H         1 SAH300      0.0000 
     30 H         -11.6483   33.0519   82.8382 H         1 SAH300      0.0000 
     31 H         -10.7776   34.5066   82.3228 H         1 SAH300      0.0000 
     32 H          -7.6151   34.0815   82.6781 H         1 SAH300      0.0000 
     33 H          -8.9725   34.8510   81.8384 H         1 SAH300      0.0000 
     34 H          -7.3774   32.6520   80.4659 H         1 SAH300      0.0000 
     35 H          -6.5228   35.5120   80.3623 H         1 SAH300      0.0000 
     36 H          -5.8583   35.1078   78.1654 H         1 SAH300      0.0000 
     37 H          -8.0722   33.8512   77.4434 H         1 SAH300      0.0000 
     38 H          -9.6940   36.1966   79.5829 H         1 SAH300      0.0000 
     39 H          -9.0769   40.2430   75.0973 H         1 SAH300      0.0000 
     40 H          -9.9676   39.7790   76.5863 H         1 SAH300      0.0000 
     41 H          -6.0957   36.9778   74.4042 H         1 SAH300      0.0000 
     42 H         -13.4148   32.4128   81.6976 H         1 SAH300      0.0000 
     43 H         -14.3833   33.6966   81.6820 H         1 SAH300      0.0000 
     44 H         -14.5199   32.5724   80.5401 H         1 SAH300      0.0000 
     45 H          -4.8496   33.3008   79.9942 H         1 SAH300      0.0000 
     46 H          -5.2299   33.1376   77.5680 H         1 SAH300      0.0000 
@<TRIPOS>BOND
     1    2    1 1    
     2   42    1 1    
     3   43    1 1    
     4   44    1 1    
     5    3    2 1    
     6    6    2 1    
     7   27    2 1    
     8    4    3 1    
     9   28    3 1    
    10   29    3 1    
    11    5    4 1    
    12   30    4 1    
    13   31    4 1    
    14    9    5 1    
    15    7    6 ar   
    16    8    6 ar   
    17   10    9 1    
    18   32    9 1    
    19   33    9 1    
    20   11   10 1    
    21   12   10 1    
    22   34   10 1    
    23   16   11 1    
    24   13   12 1    
    25   14   12 1    
    26   35   12 1    
    27   45   13 1    
    28   15   14 1    
    29   16   14 1    
    30   36   14 1    
    31   46   15 1    
    32   17   16 1    
    33   37   16 1    
    34   18   17 1    
    35   26   17 1    
    36   19   18 2    
    37   38   18 1    
    38   20   19 1    
    39   21   20 ar   
    40   26   20 ar   
    41   22   21 1    
    42   23   21 ar   
    43   39   22 1    
    44   40   22 1    
    45   24   23 ar   
    46   25   24 ar   
    47   41   24 1    
    48   26   25 ar   
@<TRIPOS>SUBSTRUCTURE
     1 SAH300      1 GROUP   
@<TRIPOS>SET

