#    Name: 1txc_2AN_5_INTS_M
#    Modification time : Tue Mar 25 05:45:46 2014

@<TRIPOS>MOLECULE
1txc_2AN_5_INTS_M
   49     0     3     0     0
SMALL
NO_CHARGES


@<TRIPOS>ATOM
      1 CA        -10.4620   24.9790   32.9410 C.3       1 GLC5        0.0000 
      2 CA        -12.1330   23.7920   32.8240 C.3       3 GLL5        0.0000 
      3 CA         -8.7910   26.1660   33.0580 C.3       2 GLP5        0.0000 
      4 CA        -13.2945   21.4385   34.2125 C.3       1 GLC5        0.0000 
      5 CA        -12.4760   22.4370   32.4780 C.3       3 GLL5        0.0000 
      6 CA        -14.1130   20.4400   35.9470 C.3       2 GLP5        0.0000 
      7 CA        -14.6165   20.0695   31.6175 C.3       1 GLC5        0.0000 
      8 CA        -12.7890   20.6460   30.8460 C.3       3 GLL5        0.0000 
      9 CA        -16.4440   19.4930   32.3890 C.3       2 GLP5        0.0000 
     10 CA        -13.6055   18.2200   29.9765 C.3       1 GLC5        0.0000 
     11 CA        -12.7620   20.1810   29.5070 C.3       3 GLL5        0.0000 
     12 CA        -14.4490   16.2590   30.4460 C.3       2 GLP5        0.0000 
     13 CA        -10.7145   19.7225   27.7955 C.3       1 GLC5        0.0000 
     14 CA        -12.3950   21.0570   28.4240 C.3       3 GLL5        0.0000 
     15 CA         -9.0340   18.3880   27.1670 C.3       2 GLP5        0.0000 
     16 CA         -9.7420   29.9415   29.1590 C.3       1 GLC5        0.0000 
     17 CA        -10.6200   28.6270   27.8900 C.3       3 GLL5        0.0000 
     18 CA         -8.8640   31.2560   30.4280 C.3       2 GLP5        0.0000 
     19 CA        -10.1350   25.2540   31.3252 C.3       1 GLC5        0.0000 
     20 CA        -11.7030   24.3270   30.3670 C.3       3 GLL5        0.0000 
     21 CA         -8.5400   25.9920   31.5690 C.3       2 GLP5        0.0000 
     22 CA        -14.0332   23.3693   31.6640 C.3       1 GLC5        0.0000 
     23 CA        -15.7620   23.6240   30.6770 C.3       2 GLP5        0.0000 
     24 CA        -13.9473   23.5568   33.4615 C.3       1 GLC5        0.0000 
     25 CA        -15.5900   23.9990   34.2720 C.3       2 GLP5        0.0000 
     26 CA        -14.1885   22.4765   30.8307 C.3       1 GLC5        0.0000 
     27 CA        -12.9608   19.5600   27.7582 C.3       1 GLC5        0.0000 
     28 CA        -13.3430   18.5010   26.5510 C.3       2 GLP5        0.0000 
     29 CA        -11.5892   19.4675   30.9399 C.3       1 GLC5        0.0000 
     30 CA        -10.4900   18.1800   31.6340 C.3       2 GLP5        0.0000 
     31 CA        -14.0809   22.1052   28.5781 C.3       1 GLC5        0.0000 
     32 CA        -15.8570   22.6810   28.3780 C.3       2 GLP5        0.0000 
     33 CA        -13.8253   23.6805   30.6081 C.3       1 GLC5        0.0000 
     34 CA        -12.0470   22.9580   29.9970 C.3       3 GLL5        0.0000 
     35 CA        -12.9155   27.2525   28.0412 C.3       1 GLC5        0.0000 
     36 CA        -11.3910   26.6350   29.2330 C.3       3 GLL5        0.0000 
     37 CA        -14.8260   27.5890   27.4000 C.3       2 GLP5        0.0000 
     38 CA        -10.1575   26.5433   30.6112 C.3       1 GLC5        0.0000 
     39 CA         -8.9283   27.3780   28.8005 C.3       1 GLC5        0.0000 
     40 CA        -10.6190   27.1970   28.1320 C.3       3 GLL5        0.0000 
     41 CA         -7.2370   26.8440   29.5900 C.3       2 GLP5        0.0000 
     42 CA        -12.9150   28.3285   27.8577 C.3       1 GLC5        0.0000 
     43 CA        -12.8025   30.5023   28.8588 C.3       1 GLC5        0.0000 
     44 CA        -11.3880   29.5090   28.7410 C.3       3 GLL5        0.0000 
     45 CA        -13.8380   31.7650   28.4380 C.3       2 GLP5        0.0000 
     46 CA        -10.8910   30.7273   29.7127 C.3       1 GLC5        0.0000 
     47 CA        -10.0150   32.2150   30.1460 C.3       2 GLP5        0.0000 
     48 CA        -13.4893   27.9255   28.6730 C.3       1 GLC5        0.0000 
     49 CA        -12.1460   28.9700   29.8180 C.3       3 GLL5        0.0000 
@<TRIPOS>BOND
@<TRIPOS>SUBSTRUCTURE
     1 GLC5        1 GROUP        1 X    GLC  0     ROOT GLC X 6
     2 GLP5        3 GROUP        1 Y    GLP  0     ROOT GLP Y 13
     3 GLL5        2 GROUP        1 Z    GLL  0     ROOT GLL Z 20
@<TRIPOS>SET

