#    Name: 1txc_2AN_5_ligand
#    Modification time : Tue Mar 25 05:45:46 2014

@<TRIPOS>MOLECULE
1txc_2AN_5_ligand
   33    35     1     0     0
SMALL
NO_CHARGES


@<TRIPOS>ATOM
      1 C1        -11.7030   24.3270   30.3670 C.ar      1 2AN718      0.0000 
      2 C2        -11.7570   24.7050   31.7960 C.ar      1 2AN718      0.0000 
      3 C3        -12.1330   23.7920   32.8240 C.ar      1 2AN718      0.0000 
      4 C4        -12.4760   22.4370   32.4780 C.ar      1 2AN718      0.0000 
      5 C5        -12.4410   22.0120   31.1230 C.ar      1 2AN718      0.0000 
      6 C6        -12.7890   20.6460   30.8460 C.ar      1 2AN718      0.0000 
      7 C7        -12.7620   20.1810   29.5070 C.ar      1 2AN718      0.0000 
      8 C8        -12.3950   21.0570   28.4240 C.ar      1 2AN718      0.0000 
      9 N         -11.3220   25.2450   29.3820 N.pl3     1 2AN718      0.0000 
     10 S         -11.6940   23.1420   27.3070 S.o2      1 2AN718      0.0000 
     11 C9        -12.0310   22.4400   28.5910 C.ar      1 2AN718      0.0000 
     12 C10       -12.0470   22.9580   29.9970 C.ar      1 2AN718      0.0000 
     13 C11       -11.3910   26.6350   29.2330 C.ar      1 2AN718      0.0000 
     14 C12       -10.6190   27.1970   28.1320 C.ar      1 2AN718      0.0000 
     15 C13       -10.6200   28.6270   27.8900 C.ar      1 2AN718      0.0000 
     16 C14       -11.3880   29.5090   28.7410 C.ar      1 2AN718      0.0000 
     17 C15       -12.1460   28.9700   29.8180 C.ar      1 2AN718      0.0000 
     18 C16       -12.1590   27.5540   30.0740 C.ar      1 2AN718      0.0000 
     19 O1        -10.1040   23.8270   27.3020 O.co2     1 2AN718      0.0000 
     20 O2        -11.8420   22.0150   25.9060 O.co2     1 2AN718      0.0000 
     21 O3        -12.8960   24.4430   27.0610 O.co2     1 2AN718      0.0000 
     22 H         -11.5083   25.6744   32.0359 H         1 2AN718      0.0000 
     23 H         -12.1607   24.0871   33.7902 H         1 2AN718      0.0000 
     24 H         -12.7436   21.7873   33.2138 H         1 2AN718      0.0000 
     25 H         -13.0493   20.0294   31.6039 H         1 2AN718      0.0000 
     26 H         -13.0053   19.2100   29.2965 H         1 2AN718      0.0000 
     27 H         -12.3929   20.6647   27.4585 H         1 2AN718      0.0000 
     28 H         -10.8388   24.7387   28.4842 H         1 2AN718      0.0000 
     29 H         -10.0811   26.5844   27.5357 H         1 2AN718      0.0000 
     30 H         -10.0816   29.0068   27.1236 H         1 2AN718      0.0000 
     31 H         -11.3796   30.5054   28.5625 H         1 2AN718      0.0000 
     32 H         -12.6894   29.5895   30.4202 H         1 2AN718      0.0000 
     33 H         -12.7026   27.1787   30.8426 H         1 2AN718      0.0000 
@<TRIPOS>BOND
     1    2    1 ar   
     2    9    1 1    
     3   12    1 ar   
     4    3    2 ar   
     5   22    2 1    
     6    4    3 ar   
     7   23    3 1    
     8    5    4 ar   
     9   24    4 1    
    10    6    5 ar   
    11   12    5 ar   
    12    7    6 ar   
    13   25    6 1    
    14    8    7 ar   
    15   26    7 1    
    16   11    8 ar   
    17   27    8 1    
    18   13    9 1    
    19   28    9 1    
    20   11   10 1    
    21   19   10 ar   
    22   20   10 ar   
    23   21   10 ar   
    24   12   11 ar   
    25   14   13 ar   
    26   18   13 ar   
    27   15   14 ar   
    28   29   14 1    
    29   16   15 ar   
    30   30   15 1    
    31   17   16 ar   
    32   31   16 1    
    33   18   17 ar   
    34   32   17 1    
    35   33   18 1    
@<TRIPOS>SUBSTRUCTURE
     1 2AN718      1 GROUP   
@<TRIPOS>SET

