#    Name: 2rbe_ZMG_3_INTS_M
#    Modification time : Mon Mar 24 23:35:06 2014

@<TRIPOS>MOLECULE
2rbe_ZMG_3_INTS_M
   42     0     6     0     0
SMALL
NO_CHARGES


@<TRIPOS>ATOM
      1 CA         -2.9380  -10.2360  109.0790 C.3       2 GLC5        0.0000 
      2 CA         -3.2120   -9.7540  111.0830 C.3       6 GLL5        0.0000 
      3 CA         -2.6640  -10.7180  107.0750 C.3       4 GLP5        0.0000 
      4 CA         -2.4165  -12.1050  110.2860 C.3       2 GLC5        0.0000 
      5 CA         -2.1990  -10.4720  111.7550 C.3       6 GLL5        0.0000 
      6 CA         -2.6340  -13.7380  108.8170 C.3       4 GLP5        0.0000 
      7 N           0.5575  -10.5235  112.3600 N.am      1 SEC2        0.0000 
      8 N          -0.3770  -10.3990  113.3120 N.am      5 SEL2        0.0000 
      9 N           1.4920  -10.6480  111.4080 N.am      3 SEP2        0.0000 
     10 CA         -3.9075  -11.5660  114.9710 C.3       2 GLC5        0.0000 
     11 CA         -2.0390  -10.7510  115.4360 C.3       6 GLL5        0.0000 
     12 CA         -5.7760  -12.3810  114.5060 C.3       4 GLP5        0.0000 
     13 CA         -1.4070  -12.4290  114.4450 C.3       2 GLC5        0.0000 
     14 CA         -0.7750  -14.1070  113.4540 C.3       4 GLP5        0.0000 
     15 CA         -2.6890  -12.8390  117.5835 C.3       2 GLC5        0.0000 
     16 CA         -1.2480  -11.4690  116.8600 C.3       6 GLL5        0.0000 
     17 CA         -4.1300  -14.2090  118.3070 C.3       4 GLP5        0.0000 
     18 CA         -0.9965  -13.1580  115.7500 C.3       2 GLC5        0.0000 
     19 CA         -0.7450  -14.8470  114.6400 C.3       4 GLP5        0.0000 
     20 CA         -0.6390   -6.4380  115.2395 C.3       2 GLC5        0.0000 
     21 CA         -0.8400   -7.8390  113.8570 C.3       6 GLL5        0.0000 
     22 CA         -0.4380   -5.0370  116.6220 C.3       4 GLP5        0.0000 
     23 CA          0.9620   -8.4160  114.3050 C.3       2 GLC5        0.0000 
     24 CA          2.7640   -8.9930  114.7530 C.3       4 GLP5        0.0000 
     25 CA         -0.3035   -7.1730  117.2090 C.3       2 GLC5        0.0000 
     26 CA         -0.1690   -9.3090  117.7960 C.3       6 GLL5        0.0000 
     27 CA          1.2975   -9.1510  116.2745 C.3       2 GLC5        0.0000 
     28 CA         -2.9310   -8.2400  118.9200 C.3       2 GLC5        0.0000 
     29 CA         -2.3900  -10.1370  118.6690 C.3       6 GLL5        0.0000 
     30 CA         -3.4720   -6.3430  119.1710 C.3       4 GLP5        0.0000 
     31 CA         -3.4505  -11.8900  119.1685 C.3       2 GLC5        0.0000 
     32 CA         -4.5110  -13.6430  119.6680 C.3       4 GLP5        0.0000 
     33 CA         -3.4770   -9.8795  120.3240 C.3       2 GLC5        0.0000 
     34 CA         -4.5640   -9.6220  121.9790 C.3       4 GLP5        0.0000 
     35 CA         -4.3165   -9.7995  118.0020 C.3       2 GLC5        0.0000 
     36 CA         -6.2430   -9.4620  117.3350 C.3       4 GLP5        0.0000 
     37 CA         -3.7797  -11.9740  111.6655 C.3       2 GLC5        0.0000 
     38 CA         -4.8540  -13.8350  111.9120 C.3       4 GLP5        0.0000 
     39 CA         -5.1543   -9.3148  110.4950 C.3       2 GLC5        0.0000 
     40 CA         -6.9960   -9.5660  109.7780 C.3       4 GLP5        0.0000 
     41 CA          0.3251   -7.7050  112.3821 C.3       2 GLC5        0.0000 
     42 CA          1.8140   -6.9450  111.4370 C.3       4 GLP5        0.0000 
@<TRIPOS>BOND
@<TRIPOS>SUBSTRUCTURE
     1 SEC2        7 GROUP        1 X    SEC  0     ROOT SEC X 2
     2 GLC5        1 GROUP        1 X    GLC  0     **** GLC X 6
     3 SEP2        9 GROUP        1 Y    SEP  0     ROOT SEP Y 9
     4 GLP5        3 GROUP        1 Y    GLP  0     **** GLP Y 13
     5 SEL2        8 GROUP        1 Z    SEL  0     ROOT SEL Z 16
     6 GLL5        2 GROUP        1 Z    GLL  0     **** GLL Z 20
@<TRIPOS>SET

