#    Name: 2rbe_ZMG_3_ligand
#    Modification time : Mon Mar 24 23:35:06 2014

@<TRIPOS>MOLECULE
2rbe_ZMG_3_ligand
   29    30     1     0     0
SMALL
NO_CHARGES


@<TRIPOS>ATOM
      1 C1         -3.2120   -9.7540  111.0830 C.ar      1 ZMG603      0.0000 
      2 C2         -3.4130   -8.3730  111.3410 C.ar      1 ZMG603      0.0000 
      3 C3         -2.6120   -7.6830  112.2760 C.ar      1 ZMG603      0.0000 
      4 C4         -1.6000   -8.4130  112.9300 C.ar      1 ZMG603      0.0000 
      5 C5         -1.3750   -9.7690  112.6650 C.ar      1 ZMG603      0.0000 
      6 C6         -2.1990  -10.4720  111.7550 C.ar      1 ZMG603      0.0000 
      7 N7         -0.3770  -10.3990  113.3120 N.2       1 ZMG603      0.0000 
      8 C8         -0.5340  -10.8910  114.5340 C.2       1 ZMG603      0.0000 
      9 S9         -2.0390  -10.7510  115.4360 S.3       1 ZMG603      0.0000 
     10 C10        -1.2480  -11.4690  116.8600 C.3       1 ZMG603      0.0000 
     11 C11         0.1260  -11.9570  116.4020 C.2       1 ZMG603      0.0000 
     12 N12         0.4230  -11.5160  115.1840 N.2       1 ZMG603      0.0000 
     13 F13        -0.8400   -7.8390  113.8570 F         1 ZMG603      0.0000 
     14 O14         0.8520  -12.6720  117.0940 O.2       1 ZMG603      0.0000 
     15 C15        -1.0400  -10.5220  118.0670 C.3       1 ZMG603      0.0000 
     16 C16        -0.1690   -9.3090  117.7960 C.3       1 ZMG603      0.0000 
     17 C17        -2.3900  -10.1370  118.6690 C.3       1 ZMG603      0.0000 
     18 H          -3.8098  -10.2319  110.4016 H         1 ZMG603      0.0000 
     19 H          -4.1544   -7.8705  110.8373 H         1 ZMG603      0.0000 
     20 H          -2.7589   -6.7082  112.4671 H         1 ZMG603      0.0000 
     21 H          -2.0657  -11.4572  111.5920 H         1 ZMG603      0.0000 
     22 H          -1.8565  -12.3011  117.1076 H         1 ZMG603      0.0000 
     23 H          -0.5217  -11.1364  118.8539 H         1 ZMG603      0.0000 
     24 H           0.7533   -9.5702  117.5110 H         1 ZMG603      0.0000 
     25 H          -0.5481   -8.7341  117.0708 H         1 ZMG603      0.0000 
     26 H          -0.0728   -8.7322  118.6072 H         1 ZMG603      0.0000 
     27 H          -2.2860   -9.5260  119.4537 H         1 ZMG603      0.0000 
     28 H          -2.9716   -9.6660  118.0058 H         1 ZMG603      0.0000 
     29 H          -2.8971  -10.9382  118.9866 H         1 ZMG603      0.0000 
@<TRIPOS>BOND
     1    2    1 ar   
     2    6    1 ar   
     3   18    1 1    
     4    3    2 ar   
     5   19    2 1    
     6    4    3 ar   
     7   20    3 1    
     8    5    4 ar   
     9   13    4 1    
    10    6    5 ar   
    11    7    5 1    
    12   21    6 1    
    13    8    7 1    
    14    9    8 1    
    15   12    8 2    
    16   10    9 1    
    17   11   10 1    
    18   15   10 1    
    19   22   10 1    
    20   12   11 1    
    21   14   11 2    
    22   16   15 1    
    23   17   15 1    
    24   23   15 1    
    25   24   16 1    
    26   25   16 1    
    27   26   16 1    
    28   27   17 1    
    29   28   17 1    
    30   29   17 1    
@<TRIPOS>SUBSTRUCTURE
     1 ZMG603      1 GROUP   
@<TRIPOS>SET

