#    Name: 3lxd_FAD_1_INTS_M
#    Modification time : Mon Mar 24 22:24:21 2014

@<TRIPOS>MOLECULE
3lxd_FAD_1_INTS_M
  115     0     9     0     0
SMALL
NO_CHARGES


@<TRIPOS>ATOM
      1 N          -1.1375  -35.3440   -0.1390 N.am      2 SEC2        0.0000 
      2 N          -2.6310  -34.9160    0.0040 N.am      8 SEL2        0.0000 
      3 N           0.3560  -35.7720   -0.2820 N.am      5 SEP2        0.0000 
      4 CA         -4.3040  -31.3855   -2.4735 C.3       3 GLC5        0.0000 
      5 CA         -2.8100  -31.2070   -1.0500 C.3       9 GLL5        0.0000 
      6 CA         -5.7980  -31.5640   -3.8970 C.3       6 GLP5        0.0000 
      7 CA         -0.4530  -29.3755   -1.3355 C.3       3 GLC5        0.0000 
      8 CA         -2.0180  -30.1750   -0.2660 C.3       9 GLL5        0.0000 
      9 CA          1.1120  -28.5760   -2.4050 C.3       6 GLP5        0.0000 
     10 N          -2.5555  -30.8380    2.9445 N.am      2 SEC2        0.0000 
     11 N          -1.8080  -29.9170    2.1010 N.am      8 SEL2        0.0000 
     12 N          -3.3030  -31.7590    3.7880 N.am      5 SEP2        0.0000 
     13 O          -2.2140  -29.7135    3.2090 O.2       1 ALC1        0.0000 
     14 O          -1.8080  -29.9170    2.1010 O.2       7 ALL1        0.0000 
     15 O          -2.6200  -29.5100    4.3170 O.2       4 ALP1        0.0000 
     16 N          -3.8290  -26.4285    1.8565 N.am      2 SEC2        0.0000 
     17 N          -3.0490  -27.6550    2.0540 N.am      8 SEL2        0.0000 
     18 N          -4.6090  -25.2020    1.6590 N.am      5 SEP2        0.0000 
     19 O          -2.8345  -28.5825    3.1855 O.2       1 ALC1        0.0000 
     20 O          -3.0490  -27.6550    2.0540 O.2       7 ALL1        0.0000 
     21 CA         -0.5375  -28.2305   -1.3000 C.3       3 GLC5        0.0000 
     22 CA         -2.1870  -27.8850   -0.1950 C.3       9 GLL5        0.0000 
     23 CA         -2.6340  -28.4120   -2.3265 C.3       3 GLC5        0.0000 
     24 CA         -3.0810  -28.9390   -4.4580 C.3       6 GLP5        0.0000 
     25 CA         -3.1890  -24.4695   -0.3295 C.3       3 GLC5        0.0000 
     26 CA         -2.6840  -24.8620   -2.1470 C.3       9 GLL5        0.0000 
     27 CA         -3.6940  -24.0770    1.4880 C.3       6 GLP5        0.0000 
     28 CA         -0.6415  -24.3325   -3.9825 C.3       3 GLC5        0.0000 
     29 CA         -2.1050  -23.7300   -2.7170 C.3       9 GLL5        0.0000 
     30 CA          0.8220  -24.9350   -5.2480 C.3       6 GLP5        0.0000 
     31 CA         -1.6140  -22.2685   -1.6050 C.3       3 GLC5        0.0000 
     32 CA         -1.1230  -20.8070   -0.4930 C.3       6 GLP5        0.0000 
     33 O          -2.3680  -21.5415   -4.0575 O.2       1 ALC1        0.0000 
     34 O          -2.8520  -22.8680   -3.3980 O.2       7 ALL1        0.0000 
     35 O          -1.8840  -20.2150   -4.7170 O.2       4 ALP1        0.0000 
     36 N          -0.1315  -22.0970   -2.9165 N.am      2 SEC2        0.0000 
     37 N          -0.7470  -23.5060   -2.5700 N.am      8 SEL2        0.0000 
     38 N           0.4840  -20.6880   -3.2630 N.am      5 SEP2        0.0000 
     39 CA          0.4285  -24.6670   -3.5535 C.3       3 GLC5        0.0000 
     40 CA          0.0350  -24.3990   -1.8590 C.3       9 GLL5        0.0000 
     41 CA          0.5735  -26.4875   -2.1320 C.3       3 GLC5        0.0000 
     42 CA          1.3205  -25.1695   -0.4500 C.3       3 GLC5        0.0000 
     43 CA          2.6060  -25.9400    0.9590 C.3       6 GLP5        0.0000 
     44 CA         -1.1175  -24.4685   -0.0635 C.3       3 GLC5        0.0000 
     45 CA         -2.2700  -24.5380    1.7320 C.3       6 GLP5        0.0000 
     46 CA          0.1985  -22.5725   -1.3595 C.3       3 GLC5        0.0000 
     47 CA          0.3620  -20.7460   -0.8600 C.3       6 GLP5        0.0000 
     48 N           0.0565  -25.1615    0.2770 N.am      2 SEC2        0.0000 
     49 N          -0.5450  -25.5230   -1.2970 N.am      8 SEL2        0.0000 
     50 N           0.6580  -24.8000    1.8510 N.am      5 SEP2        0.0000 
     51 CA         -0.3830  -27.1610   -1.9230 C.3       3 GLC5        0.0000 
     52 CA         -1.8780  -25.7460   -1.4410 C.3       9 GLL5        0.0000 
     53 CA         -2.0740  -25.1420    0.1455 C.3       3 GLC5        0.0000 
     54 N          -5.5340  -43.2835   -1.5350 N.am      2 SEC2        0.0000 
     55 N          -6.4330  -44.2280   -0.7160 N.am      8 SEL2        0.0000 
     56 N          -4.6350  -42.3390   -2.3540 N.am      5 SEP2        0.0000 
     57 N          -8.1775  -44.2410    4.9140 N.am      2 SEC2        0.0000 
     58 N          -7.7880  -44.5090    3.5980 N.am      8 SEL2        0.0000 
     59 N          -8.5670  -43.9730    6.2300 N.am      5 SEP2        0.0000 
     60 N          -8.4340  -42.9150    4.9875 N.am      2 SEC2        0.0000 
     61 N          -8.3010  -41.8570    3.7450 N.am      8 SEL2        0.0000 
     62 CA        -10.0090  -40.1110    6.8420 C.3       3 GLC5        0.0000 
     63 CA         -9.0090  -39.8770    4.8960 C.3       9 GLL5        0.0000 
     64 CA        -11.0090  -40.3450    8.7880 C.3       6 GLP5        0.0000 
     65 CA        -10.9475  -39.6270    4.2000 C.3       3 GLC5        0.0000 
     66 CA        -12.8860  -39.3770    3.5040 C.3       6 GLP5        0.0000 
     67 CA         -8.3370  -37.4500    7.6055 C.3       3 GLC5        0.0000 
     68 CA         -9.7660  -37.8930    6.1900 C.3       9 GLL5        0.0000 
     69 CA         -6.9080  -37.0070    9.0210 C.3       6 GLP5        0.0000 
     70 CA        -10.3875  -39.1190    7.4890 C.3       3 GLC5        0.0000 
     71 CA        -10.9915  -36.8900    7.5945 C.3       3 GLC5        0.0000 
     72 CA        -12.2170  -35.8870    8.9990 C.3       6 GLP5        0.0000 
     73 CA        -11.6260  -38.0925    5.9475 C.3       3 GLC5        0.0000 
     74 CA        -13.4860  -38.2920    5.7050 C.3       6 GLP5        0.0000 
     75 CA         -8.9305  -34.5525    4.9115 C.3       3 GLC5        0.0000 
     76 CA         -9.2500  -36.2500    3.7540 C.3       9 GLL5        0.0000 
     77 CA         -8.6110  -32.8550    6.0690 C.3       6 GLP5        0.0000 
     78 CA         -6.5275  -37.8075    3.3510 C.3       3 GLC5        0.0000 
     79 CA         -8.5260  -38.3540    2.6170 C.3       9 GLL5        0.0000 
     80 CA         -4.5290  -37.2610    4.0850 C.3       6 GLP5        0.0000 
     81 CA         -4.6995  -40.7160    0.1740 C.3       3 GLC5        0.0000 
     82 CA         -6.1190  -39.2900   -0.0020 C.3       9 GLL5        0.0000 
     83 CA         -3.2800  -42.1420    0.3500 C.3       6 GLP5        0.0000 
     84 O          -6.6760  -38.0405   -3.3000 O.2       1 ALC1        0.0000 
     85 O          -6.2490  -38.9370   -2.3460 O.2       7 ALL1        0.0000 
     86 O          -7.1030  -37.1440   -4.2540 O.2       4 ALP1        0.0000 
     87 CA         -2.4220  -37.8680   -1.0825 C.3       3 GLC5        0.0000 
     88 CA         -4.5500  -37.6880   -1.2170 C.3       9 GLL5        0.0000 
     89 CA         -0.2940  -38.0480   -0.9480 C.3       6 GLP5        0.0000 
     90 CA         -5.9030  -35.8750   -3.6915 C.3       3 GLC5        0.0000 
     91 CA         -4.4150  -36.8960   -2.5180 C.3       9 GLL5        0.0000 
     92 CA         -7.3910  -34.8540   -4.8650 C.3       6 GLP5        0.0000 
     93 CA         -3.0150  -37.9180   -3.5625 C.3       3 GLC5        0.0000 
     94 CA         -1.6150  -38.9400   -4.6070 C.3       6 GLP5        0.0000 
     95 N          -4.5250  -35.0870   -5.4000 N.am      2 SEC2        0.0000 
     96 N          -3.5350  -34.6140   -4.4920 N.am      8 SEL2        0.0000 
     97 N          -5.5150  -35.5600   -6.3080 N.am      5 SEP2        0.0000 
     98 N          -0.3625  -35.2550   -3.0750 N.am      2 SEC2        0.0000 
     99 N          -1.4940  -34.4270   -3.0480 N.am      8 SEL2        0.0000 
    100 N           0.7690  -36.0830   -3.1020 N.am      5 SEP2        0.0000 
    101 CA         -0.9245  -32.1155   -0.0180 C.3       3 GLC5        0.0000 
    102 CA          0.5650  -33.5400    0.6220 C.3       6 GLP5        0.0000 
    103 CA         -2.7475  -29.8150   -2.5580 C.3       3 GLC5        0.0000 
    104 CA         -2.4730  -26.3360    1.0307 C.3       3 GLC5        0.0000 
    105 CA         -2.2501  -25.8745   -3.6813 C.3       3 GLC5        0.0000 
    106 CA         -2.3640  -26.7280   -5.4260 C.3       6 GLP5        0.0000 
    107 CA        -10.6994  -37.9357    3.0326 C.3       3 GLC5        0.0000 
    108 CA         -9.2470  -38.5040    4.9180 C.3       9 GLL5        0.0000 
    109 CA        -12.5420  -38.1020    2.7320 C.3       6 GLP5        0.0000 
    110 CA         -7.1099  -40.6900    4.5884 C.3       3 GLC5        0.0000 
    111 CA         -8.2900  -39.7280    2.5940 C.3       9 GLL5        0.0000 
    112 CA         -5.6900  -41.4240    5.7200 C.3       6 GLP5        0.0000 
    113 CA         -6.5714  -40.4011   -2.0061 C.3       3 GLC5        0.0000 
    114 CA         -7.6020  -39.5770    0.1790 C.3       9 GLL5        0.0000 
    115 CA         -6.7360  -41.9420   -3.4910 C.3       6 GLP5        0.0000 
@<TRIPOS>BOND
@<TRIPOS>SUBSTRUCTURE
     1 ALC1       13 GROUP        1 X    ALC  0     ROOT ALC X 1
     2 SEC2        1 GROUP        1 X    SEC  0     **** SEC X 2
     3 GLC5        4 GROUP        1 X    GLC  0     **** GLC X 6
     4 ALP1       15 GROUP        1 Y    ALP  0     ROOT ALP Y 8
     5 SEP2        3 GROUP        1 Y    SEP  0     **** SEP Y 9
     6 GLP5        6 GROUP        1 Y    GLP  0     **** GLP Y 13
     7 ALL1       14 GROUP        1 Z    ALL  0     ROOT ALL Z 15
     8 SEL2        2 GROUP        1 Z    SEL  0     **** SEL Z 16
     9 GLL5        5 GROUP        1 Z    GLL  0     **** GLL Z 20
@<TRIPOS>SET

