#    Name: 3lxd_FAD_1_ligand
#    Modification time : Mon Mar 24 22:24:21 2014

@<TRIPOS>MOLECULE
3lxd_FAD_1_ligand
   84    89     1     0     0
SMALL
NO_CHARGES


@<TRIPOS>ATOM
      1 PA         -3.3560  -33.7260   -0.5650 P.3       1 FAD416      0.0000 
      2 O1A        -4.5860  -33.3760    0.2290 O.co2     1 FAD416      0.0000 
      3 O2A        -2.6310  -34.9160    0.0040 O.co2     1 FAD416      0.0000 
      4 O5B        -2.3570  -32.4740   -0.6500 O.3       1 FAD416      0.0000 
      5 C5B        -2.8100  -31.2070   -1.0500 C.3       1 FAD416      0.0000 
      6 C4B        -2.0180  -30.1750   -0.2660 C.3       1 FAD416      0.0000 
      7 O4B        -1.9070  -28.9870   -1.0230 O.3       1 FAD416      0.0000 
      8 C3B        -2.7240  -29.8240    1.0350 C.3       1 FAD416      0.0000 
      9 O3B        -1.8080  -29.9170    2.1010 O.3       1 FAD416      0.0000 
     10 C2B        -3.1650  -28.3830    0.8540 C.3       1 FAD416      0.0000 
     11 O2B        -3.0490  -27.6550    2.0540 O.3       1 FAD416      0.0000 
     12 C1B        -2.1870  -27.8850   -0.1950 C.3       1 FAD416      0.0000 
     13 N9A        -2.6860  -26.7550   -0.9910 N.pl3     1 FAD416      0.0000 
     14 C8A        -3.9650  -26.4990   -1.4220 C.2       1 FAD416      0.0000 
     15 N7A        -3.9480  -25.3420   -2.1260 N.2       1 FAD416      0.0000 
     16 C5A        -2.6840  -24.8620   -2.1470 C.ar      1 FAD416      0.0000 
     17 C6A        -2.1050  -23.7300   -2.7170 C.ar      1 FAD416      0.0000 
     18 N6A        -2.8520  -22.8680   -3.3980 N.pl3     1 FAD416      0.0000 
     19 N1A        -0.7470  -23.5060   -2.5700 N.ar      1 FAD416      0.0000 
     20 C2A         0.0350  -24.3990   -1.8590 C.ar      1 FAD416      0.0000 
     21 N3A        -0.5450  -25.5230   -1.2970 N.ar      1 FAD416      0.0000 
     22 C4A        -1.8780  -25.7460   -1.4410 C.ar      1 FAD416      0.0000 
     23 N1         -7.0990  -42.3330    0.3050 N.2       1 FAD416      0.0000 
     24 C2         -6.8570  -43.6910    0.3040 C.2       1 FAD416      0.0000 
     25 O2         -6.4330  -44.2280   -0.7160 O.2       1 FAD416      0.0000 
     26 N3         -7.0990  -44.4420    1.4410 N.am      1 FAD416      0.0000 
     27 C4         -7.5790  -43.8390    2.5900 C.2       1 FAD416      0.0000 
     28 O4         -7.7880  -44.5090    3.5980 O.2       1 FAD416      0.0000 
     29 C4X        -7.8230  -42.4710    2.6010 C.2       1 FAD416      0.0000 
     30 N5         -8.3010  -41.8570    3.7450 N.2       1 FAD416      0.0000 
     31 C5X        -8.5300  -40.4910    3.7430 C.ar      1 FAD416      0.0000 
     32 C6         -9.0090  -39.8770    4.8960 C.ar      1 FAD416      0.0000 
     33 C7         -9.2470  -38.5040    4.9180 C.ar      1 FAD416      0.0000 
     34 C7M        -9.7660  -37.8930    6.1900 C.3       1 FAD416      0.0000 
     35 C8         -9.0030  -37.7350    3.7720 C.ar      1 FAD416      0.0000 
     36 C8M        -9.2500  -36.2500    3.7540 C.3       1 FAD416      0.0000 
     37 C9         -8.5260  -38.3540    2.6170 C.ar      1 FAD416      0.0000 
     38 C9A        -8.2900  -39.7280    2.5940 C.ar      1 FAD416      0.0000 
     39 N10        -7.8170  -40.3530    1.4480 N.pl3     1 FAD416      0.0000 
     40 C10        -7.5800  -41.7170    1.4470 C.2       1 FAD416      0.0000 
     41 C1'        -7.6020  -39.5770    0.1790 C.3       1 FAD416      0.0000 
     42 C2'        -6.1190  -39.2900   -0.0020 C.3       1 FAD416      0.0000 
     43 O2'        -5.5970  -38.7860    1.2070 O.3       1 FAD416      0.0000 
     44 C3'        -5.9530  -38.2870   -1.1310 C.3       1 FAD416      0.0000 
     45 O3'        -6.2490  -38.9370   -2.3460 O.3       1 FAD416      0.0000 
     46 C4'        -4.5500  -37.6880   -1.2170 C.3       1 FAD416      0.0000 
     47 O4'        -4.3390  -36.8470   -0.1040 O.3       1 FAD416      0.0000 
     48 C5'        -4.4150  -36.8960   -2.5180 C.3       1 FAD416      0.0000 
     49 O5'        -3.1320  -36.3530   -2.6720 O.3       1 FAD416      0.0000 
     50 P          -2.9470  -34.8230   -3.1160 P.3       1 FAD416      0.0000 
     51 O1P        -3.5350  -34.6140   -4.4920 O.co2     1 FAD416      0.0000 
     52 O2P        -1.4940  -34.4270   -3.0480 O.co2     1 FAD416      0.0000 
     53 O3P        -3.8260  -33.9740   -2.0770 O.3       1 FAD416      0.0000 
     54 H          -3.8670  -31.0533   -0.8305 H         1 FAD416      0.0000 
     55 H          -2.6428  -31.0199   -2.1112 H         1 FAD416      0.0000 
     56 H          -1.0538  -30.5819   -0.0281 H         1 FAD416      0.0000 
     57 H          -3.5732  -30.4349    1.1368 H         1 FAD416      0.0000 
     58 H          -4.1340  -28.3853    0.4275 H         1 FAD416      0.0000 
     59 H          -1.2757  -27.5867    0.3349 H         1 FAD416      0.0000 
     60 H          -4.7290  -27.0503   -1.2487 H         1 FAD416      0.0000 
     61 H          -3.8253  -23.0871   -3.4661 H         1 FAD416      0.0000 
     62 H          -2.3735  -22.0778   -3.7810 H         1 FAD416      0.0000 
     63 H           1.0434  -24.2284   -1.7484 H         1 FAD416      0.0000 
     64 H          -6.9200  -45.4599    1.4316 H         1 FAD416      0.0000 
     65 H          -9.1894  -40.4404    5.7400 H         1 FAD416      0.0000 
     66 H          -8.3462  -37.7904    1.7724 H         1 FAD416      0.0000 
     67 H          -8.1442  -38.6354    0.2252 H         1 FAD416      0.0000 
     68 H          -7.9600  -40.1526   -0.6714 H         1 FAD416      0.0000 
     69 H          -5.6405  -40.2117   -0.2953 H         1 FAD416      0.0000 
     70 H          -6.6559  -37.4703   -0.9614 H         1 FAD416      0.0000 
     71 H          -3.8446  -38.5027   -1.2452 H         1 FAD416      0.0000 
     72 H          -5.2011  -36.1139   -2.5056 H         1 FAD416      0.0000 
     73 H          -4.6799  -37.5840   -3.3465 H         1 FAD416      0.0000 
     74 H          -9.1340  -38.0302    6.9527 H         1 FAD416      0.0000 
     75 H          -9.9054  -36.9070    6.0985 H         1 FAD416      0.0000 
     76 H         -10.6432  -38.2891    6.4613 H         1 FAD416      0.0000 
     77 H          -8.7001  -35.7737    4.4402 H         1 FAD416      0.0000 
     78 H          -9.0253  -35.8469    2.8669 H         1 FAD416      0.0000 
     79 H         -10.2074  -36.0304    3.9416 H         1 FAD416      0.0000 
     80 H          -2.1318  -29.2567    2.7786 H         1 FAD416      0.0000 
     81 H          -3.2527  -28.3146    2.7775 H         1 FAD416      0.0000 
     82 H          -5.0387  -38.0005    0.9402 H         1 FAD416      0.0000 
     83 H          -6.5672  -38.2118   -2.9565 H         1 FAD416      0.0000 
     84 H          -3.5881  -36.2443   -0.3739 H         1 FAD416      0.0000 
@<TRIPOS>BOND
     1    2    1 ar   
     2    3    1 ar   
     3    4    1 1    
     4   53    1 1    
     5    5    4 1    
     6    6    5 1    
     7   54    5 1    
     8   55    5 1    
     9    7    6 1    
    10    8    6 1    
    11   56    6 1    
    12   12    7 1    
    13    9    8 1    
    14   10    8 1    
    15   57    8 1    
    16   80    9 1    
    17   11   10 1    
    18   12   10 1    
    19   58   10 1    
    20   81   11 1    
    21   13   12 1    
    22   59   12 1    
    23   14   13 1    
    24   22   13 1    
    25   15   14 2    
    26   60   14 1    
    27   16   15 1    
    28   17   16 ar   
    29   22   16 ar   
    30   18   17 1    
    31   19   17 ar   
    32   61   18 1    
    33   62   18 1    
    34   20   19 ar   
    35   21   20 ar   
    36   63   20 1    
    37   22   21 ar   
    38   24   23 1    
    39   40   23 2    
    40   25   24 2    
    41   26   24 am   
    42   27   26 am   
    43   64   26 1    
    44   28   27 2    
    45   29   27 1    
    46   30   29 2    
    47   40   29 1    
    48   31   30 1    
    49   32   31 ar   
    50   38   31 ar   
    51   33   32 ar   
    52   65   32 1    
    53   34   33 1    
    54   35   33 ar   
    55   74   34 1    
    56   75   34 1    
    57   76   34 1    
    58   36   35 1    
    59   37   35 ar   
    60   77   36 1    
    61   78   36 1    
    62   79   36 1    
    63   38   37 ar   
    64   66   37 1    
    65   39   38 1    
    66   40   39 1    
    67   41   39 1    
    68   42   41 1    
    69   67   41 1    
    70   68   41 1    
    71   43   42 1    
    72   44   42 1    
    73   69   42 1    
    74   82   43 1    
    75   45   44 1    
    76   46   44 1    
    77   70   44 1    
    78   83   45 1    
    79   47   46 1    
    80   48   46 1    
    81   71   46 1    
    82   84   47 1    
    83   49   48 1    
    84   72   48 1    
    85   73   48 1    
    86   50   49 1    
    87   51   50 ar   
    88   52   50 ar   
    89   53   50 1    
@<TRIPOS>SUBSTRUCTURE
     1 FAD416      1 GROUP   
@<TRIPOS>SET

