#    Name: 2WF1_1_CAVITY_N1_ALL.mol2
#    Modification time : Mon Mar 10 19:38:40 2014

@<TRIPOS>MOLECULE
2WF1_1_CAVITY_N1_ALL.mol2
  129     0     6     0     0
SMALL
NO_CHARGES


@<TRIPOS>ATOM
      1 N          35.2741    0.4020   42.1088 N.2       2 ALA2        0.0000 
      2 O          34.9347    1.3412   40.9896 O.2       2 ALA2        0.0000 
      3 CA         34.3432    1.1110   38.9654 C.3       5 GLY6        0.0000 
      4 CA         33.7518    0.8809   36.9413 C.3       5 GLY6        0.0000 
      5 N          32.0649   -1.9183   31.0830 N.2       2 ALA2        0.0000 
      6 OG         33.8350    0.3852   42.5312 O.2       1 SER1        0.0000 
      7 OG         33.9225   -1.7235   42.7454 O.2       1 SER1        0.0000 
      8 OG         33.5830   -0.7842   41.6262 O.2       1 SER1        0.0000 
      9 O          33.2435    0.1550   40.5070 O.2       2 ALA2        0.0000 
     10 O          32.9040    1.0942   39.3879 O.2       2 ALA2        0.0000 
     11 O          34.0099   -3.8321   42.9596 O.2       2 ALA2        0.0000 
     12 O          33.6705   -2.8929   41.8404 O.2       2 ALA2        0.0000 
     13 O          33.3310   -1.9537   40.7213 O.2       2 ALA2        0.0000 
     14 DU         32.9915   -1.0144   39.6021 H         6 CUB7        0.0000 
     15 CA         32.6521   -0.0752   38.4829 C.3       5 GLY6        0.0000 
     16 CA         32.3126    0.8641   37.3637 C.3       5 GLY6        0.0000 
     17 O          33.7580   -5.0016   42.0547 O.2       2 ALA2        0.0000 
     18 O          33.4185   -4.0623   40.9355 O.2       2 ALA2        0.0000 
     19 DU         33.0790   -3.1231   39.8163 H         6 CUB7        0.0000 
     20 O          32.7396   -2.1838   38.6971 O.2       2 ALA2        0.0000 
     21 O          32.4001   -1.2446   37.5779 O.2       2 ALA2        0.0000 
     22 CA         32.0606   -0.3054   36.4587 C.3       5 GLY6        0.0000 
     23 CA         31.7211    0.6339   35.3395 C.3       5 GLY6        0.0000 
     24 O          31.3817    1.5731   34.2204 O.2       2 ALA2        0.0000 
     25 CA         31.0422    2.5124   33.1012 C.3       5 GLY6        0.0000 
     26 DU         33.5060   -6.1710   41.1497 H         6 CUB7        0.0000 
     27 DU         33.1665   -5.2317   40.0305 H         6 CUB7        0.0000 
     28 O          32.8270   -4.2925   38.9113 O.2       2 ALA2        0.0000 
     29 O          32.4876   -3.3533   37.7921 O.2       2 ALA2        0.0000 
     30 CA         31.8086   -1.4748   35.5538 C.3       5 GLY6        0.0000 
     31 N          31.1297    0.4037   33.3154 N.2       2 ALA2        0.0000 
     32 N          30.7902    1.3430   32.1962 N.2       2 ALA2        0.0000 
     33 CA         33.2540   -7.3404   40.2447 C.3       5 GLY6        0.0000 
     34 DU         32.9145   -6.4012   39.1255 H         6 CUB7        0.0000 
     35 O          32.5751   -5.4619   38.0064 O.2       2 ALA2        0.0000 
     36 O          32.2356   -4.5227   36.8872 O.2       2 ALA2        0.0000 
     37 N          31.2172   -1.7049   33.5296 N.2       2 ALA2        0.0000 
     38 N          30.8777   -0.7657   32.4104 N.2       2 ALA2        0.0000 
     39 N          30.5382    0.1735   31.2912 N.2       2 ALA2        0.0000 
     40 CZ         30.1988    1.1128   30.1720 C.ar      4 PHE5        0.0000 
     41 N          30.9652   -2.8744   32.6246 N.2       2 ALA2        0.0000 
     42 N          30.6257   -1.9351   31.5054 N.2       2 ALA2        0.0000 
     43 CZ         30.2863   -0.9959   30.3863 C.ar      4 PHE5        0.0000 
     44 N          31.3922   -5.9223   33.9580 N.2       2 ALA2        0.0000 
     45 CA         30.7132   -4.0438   31.7197 C.3       5 GLY6        0.0000 
     46 N          30.3738   -3.1045   30.6005 N.2       2 ALA2        0.0000 
     47 CZ         30.0343   -2.1653   29.4813 C.ar      4 PHE5        0.0000 
     48 O          31.8043    0.1382   40.9295 O.2       2 ALA2        0.0000 
     49 OG         30.1070    4.8344   35.3335 O.2       1 SER1        0.0000 
     50 OG         29.7675    5.7737   34.2143 O.2       1 SER1        0.0000 
     51 O          31.8918   -1.9705   41.1437 O.2       2 ALA2        0.0000 
     52 O          31.5523   -1.0312   40.0245 O.2       2 ALA2        0.0000 
     53 CA         31.2129   -0.0920   38.9053 C.3       5 GLY6        0.0000 
     54 CA         30.8734    0.8473   37.7861 C.3       5 GLY6        0.0000 
     55 OG         30.5339    1.7865   36.6669 O.2       1 SER1        0.0000 
     56 OG         30.1945    2.7258   35.5478 O.2       1 SER1        0.0000 
     57 OG         29.8550    3.6650   34.4286 O.2       1 SER1        0.0000 
     58 CZ         29.5155    4.6042   33.3094 C.ar      4 PHE5        0.0000 
     59 O          32.3188   -5.0184   42.4771 O.2       2 ALA2        0.0000 
     60 O          31.9793   -4.0791   41.3579 O.2       2 ALA2        0.0000 
     61 O          31.6398   -3.1399   40.2387 O.2       2 ALA2        0.0000 
     62 DU         31.3004   -2.2006   39.1195 H         6 CUB7        0.0000 
     63 DU         30.9609   -1.2614   38.0004 H         6 CUB7        0.0000 
     64 CA         30.6214   -0.3222   36.8812 C.3       5 GLY6        0.0000 
     65 OG         30.2819    0.6171   35.7620 O.2       1 SER1        0.0000 
     66 OG         29.9425    1.5563   34.6428 O.2       1 SER1        0.0000 
     67 CA         29.6030    2.4956   33.5236 C.3       5 GLY6        0.0000 
     68 CZ         29.2635    3.4348   32.4044 C.ar      4 PHE5        0.0000 
     69 O          32.0668   -6.1878   41.5721 O.2       2 ALA2        0.0000 
     70 N          31.7273   -5.2485   40.4529 N.2       2 ALA2        0.0000 
     71 DU         31.3879   -4.3093   39.3338 H         6 CUB7        0.0000 
     72 O          31.0484   -3.3701   38.2146 O.2       2 ALA2        0.0000 
     73 O          30.7089   -2.4308   37.0954 O.2       2 ALA2        0.0000 
     74 O          30.3694   -1.4916   35.9762 O.2       2 ALA2        0.0000 
     75 N          30.0300   -0.5523   34.8570 N.2       2 ALA2        0.0000 
     76 N          29.6905    0.3869   33.7378 N.2       2 ALA2        0.0000 
     77 N          29.3510    1.3262   32.6186 N.2       2 ALA2        0.0000 
     78 CZ         29.0116    2.2654   31.4994 C.ar      4 PHE5        0.0000 
     79 O          31.8148   -7.3572   40.6672 O.2       2 ALA2        0.0000 
     80 O          31.4754   -6.4180   39.5480 O.2       2 ALA2        0.0000 
     81 DU         31.1359   -5.4787   38.4288 H         6 CUB7        0.0000 
     82 OG         30.7964   -4.5395   37.3096 O.2       1 SER1        0.0000 
     83 N          30.4569   -3.6002   36.1904 N.2       2 ALA2        0.0000 
     84 N          30.1175   -2.6610   35.0712 N.2       2 ALA2        0.0000 
     85 N          29.7780   -1.7217   33.9520 N.2       2 ALA2        0.0000 
     86 N          29.4385   -0.7825   32.8328 N.2       2 ALA2        0.0000 
     87 N          29.0991    0.1567   31.7137 N.2       2 ALA2        0.0000 
     88 CA         28.7596    1.0960   30.5945 C.3       5 GLY6        0.0000 
     89 O          31.2234   -7.5874   38.6430 O.2       2 ALA2        0.0000 
     90 N          30.5444   -5.7089   36.4046 N.2       2 ALA2        0.0000 
     91 N          30.2050   -4.7697   35.2854 N.2       2 ALA2        0.0000 
     92 N          29.8655   -3.8304   34.1663 N.2       2 ALA2        0.0000 
     93 N          29.5260   -2.8912   33.0471 N.2       2 ALA2        0.0000 
     94 N          29.1865   -1.9519   31.9279 N.2       2 ALA2        0.0000 
     95 DU         28.8471   -1.0127   30.8087 H         6 CUB7        0.0000 
     96 CA         28.5076   -0.0734   29.6895 C.3       5 GLY6        0.0000 
     97 N          29.9530   -5.9391   34.3805 N.2       2 ALA2        0.0000 
     98 CA         29.6135   -4.9998   33.2613 C.3       5 GLY6        0.0000 
     99 CA         29.2740   -4.0606   32.1421 C.3       5 GLY6        0.0000 
    100 CZ         28.9346   -3.1213   31.0229 C.ar      4 PHE5        0.0000 
    101 CZ         28.5951   -2.1821   29.9037 C.ar      4 PHE5        0.0000 
    102 CZ         28.2556   -1.2429   28.7845 C.ar      4 PHE5        0.0000 
    103 NZ         28.6678    4.8176   35.7560 N.2       3 LYS4        0.0000 
    104 NZ         28.3283    5.7569   34.6368 N.2       3 LYS4        0.0000 
    105 CA         30.1132   -1.0480   40.4469 C.3       5 GLY6        0.0000 
    106 OG         28.4158    3.6482   34.8510 O.2       1 SER1        0.0000 
    107 NZ         28.0763    4.5874   33.7318 N.2       3 LYS4        0.0000 
    108 O          29.8612   -2.2174   39.5420 O.2       2 ALA2        0.0000 
    109 O          29.5217   -1.2782   38.4228 O.2       2 ALA2        0.0000 
    110 CA         29.1822   -0.3390   37.3036 C.3       5 GLY6        0.0000 
    111 N          28.1638    2.4788   33.9460 N.2       2 ALA2        0.0000 
    112 NZ         27.8243    3.4180   32.8268 N.2       3 LYS4        0.0000 
    113 N          30.2881   -5.2653   40.8754 N.2       2 ALA2        0.0000 
    114 CA         29.9487   -4.3261   39.7562 C.3       5 GLY6        0.0000 
    115 O          29.2697   -2.4476   37.5178 O.2       2 ALA2        0.0000 
    116 O          28.9303   -1.5084   36.3986 O.2       2 ALA2        0.0000 
    117 NZ         27.5724    2.2486   31.9219 N.2       3 LYS4        0.0000 
    118 O          30.0362   -6.4348   39.9704 O.2       2 ALA2        0.0000 
    119 OG         29.6967   -5.4955   38.8512 O.2       1 SER1        0.0000 
    120 OG         28.6783   -2.6778   35.4937 O.2       1 SER1        0.0000 
    121 CA         27.3204    1.0792   31.0169 C.3       5 GLY6        0.0000 
    122 OG         28.4263   -3.8472   34.5887 O.2       1 SER1        0.0000 
    123 N          28.0868   -2.9080   33.4695 N.2       2 ALA2        0.0000 
    124 N          27.7474   -1.9687   32.3503 N.2       2 ALA2        0.0000 
    125 CA         27.4079   -1.0295   31.2311 C.3       5 GLY6        0.0000 
    126 CA         27.0684   -0.0902   30.1119 C.3       5 GLY6        0.0000 
    127 CA         28.1743   -5.0166   33.6837 C.3       5 GLY6        0.0000 
    128 N          27.8349   -4.0774   32.5645 N.2       2 ALA2        0.0000 
    129 CA         27.4954   -3.1381   31.4453 C.3       5 GLY6        0.0000 
@<TRIPOS>BOND
@<TRIPOS>SUBSTRUCTURE
     1 SER1        6 GROUP   
     2 ALA2        1 GROUP   
     3 LYS4      103 GROUP   
     4 PHE5       40 GROUP   
     5 GLY6        3 GROUP   
     6 CUB7       14 GROUP   
@<TRIPOS>SET

