#    Name: 2wf1_ZY1_1_INTS_M
#    Modification time : Tue Mar 25 04:16:03 2014

@<TRIPOS>MOLECULE
2wf1_ZY1_1_INTS_M
   82     0     9     0     0
SMALL
NO_CHARGES


@<TRIPOS>ATOM
      1 CA         25.7470   -4.5445   33.6500 C.3       3 GLC5        0.0000 
      2 CA         27.6180   -3.8540   34.2880 C.3       9 GLL5        0.0000 
      3 CA         23.8760   -5.2350   33.0120 C.3       6 GLP5        0.0000 
      4 CA         29.7470   -5.2555   32.7635 C.3       3 GLC5        0.0000 
      5 CA         29.1370   -4.0020   34.1320 C.3       9 GLL5        0.0000 
      6 CA         30.3570   -6.5090   31.3950 C.3       6 GLP5        0.0000 
      7 CA         28.8125   -4.0500   37.7460 C.3       3 GLC5        0.0000 
      8 CA         30.3580   -4.1260   36.4280 C.3       9 GLL5        0.0000 
      9 CA         27.2670   -3.9740   39.0640 C.3       6 GLP5        0.0000 
     10 CA         30.0100   -2.2675   41.4905 C.3       3 GLC5        0.0000 
     11 CA         31.2920   -2.9890   39.9430 C.3       9 GLL5        0.0000 
     12 CA         28.7280   -1.5460   43.0380 C.3       6 GLP5        0.0000 
     13 N          28.2785   -1.3070   38.9510 N.am      2 SEC2        0.0000 
     14 N          29.7190   -0.9570   39.6070 N.am      8 SEL2        0.0000 
     15 N          26.8380   -1.6570   38.2950 N.am      5 SEP2        0.0000 
     16 N          28.4475   -1.3570   40.3800 N.am      2 SEC2        0.0000 
     17 N          27.1760   -1.7570   41.1530 N.am      5 SEP2        0.0000 
     18 N          31.7695   -0.3960   42.6330 N.am      2 SEC2        0.0000 
     19 N          31.6780   -0.6380   41.0490 N.am      8 SEL2        0.0000 
     20 N          31.8610   -0.1540   44.2170 N.am      5 SEP2        0.0000 
     21 CA         33.2965    2.1075   38.2030 C.3       3 GLC5        0.0000 
     22 CA         32.7410    0.5820   38.8210 C.3       9 GLL5        0.0000 
     23 CA         33.8520    3.6330   37.5850 C.3       6 GLP5        0.0000 
     24 CA         31.5625    1.7050   40.0175 C.3       3 GLC5        0.0000 
     25 CA         30.3840    2.8280   41.2140 C.3       6 GLP5        0.0000 
     26 CA         32.0990    2.2285   36.4440 C.3       3 GLC5        0.0000 
     27 CA         31.1050    0.4690   36.5710 C.3       9 GLL5        0.0000 
     28 CA         33.0930    3.9880   36.3170 C.3       6 GLP5        0.0000 
     29 N          32.5360    2.2165   34.2680 N.am      2 SEC2        0.0000 
     30 N          31.0350    2.4780   34.3070 N.am      8 SEL2        0.0000 
     31 N          34.0370    1.9550   34.2290 N.am      5 SEP2        0.0000 
     32 O          27.8855    0.7230   33.9955 O.2       1 ALC1        0.0000 
     33 O          29.0470    1.5970   33.7040 O.2       7 ALL1        0.0000 
     34 O          26.7240   -0.1510   34.2870 O.2       4 ALP1        0.0000 
     35 CA         31.2365    2.1995   31.1615 C.3       3 GLC5        0.0000 
     36 CA         30.2350    0.4360   30.9840 C.3       9 GLL5        0.0000 
     37 CA         32.2380    3.9630   31.3390 C.3       6 GLP5        0.0000 
     38 CA         29.0515    4.3360   31.6810 C.3       3 GLC5        0.0000 
     39 CA         27.8100    3.7460   33.3100 C.3       9 GLL5        0.0000 
     40 CA         30.2930    4.9260   30.0520 C.3       6 GLP5        0.0000 
     41 CA         26.1825    2.2395   33.5700 C.3       3 GLC5        0.0000 
     42 CA         24.5550    0.7330   33.8300 C.3       6 GLP5        0.0000 
     43 CA         27.5150    8.2135   30.0765 C.3       3 GLC5        0.0000 
     44 CA         28.7920    9.4100   30.4820 C.3       9 GLL5        0.0000 
     45 CA         26.2380    7.0170   29.6710 C.3       6 GLP5        0.0000 
     46 CA         27.0010   10.5640   31.0345 C.3       3 GLC5        0.0000 
     47 CA         25.2100   11.7180   31.5870 C.3       6 GLP5        0.0000 
     48 O          25.8605    4.1100   32.3045 O.2       1 ALC1        0.0000 
     49 O          27.4460    4.6150   32.2510 O.2       7 ALL1        0.0000 
     50 O          24.2750    3.6050   32.3580 O.2       4 ALP1        0.0000 
     51 O          26.4930    4.3055   31.4290 O.2       1 ALC1        0.0000 
     52 O          25.5400    3.9960   30.6070 O.2       4 ALP1        0.0000 
     53 CA         27.7385    8.8415   34.9380 C.3       3 GLC5        0.0000 
     54 CA         28.4110    6.9520   35.2380 C.3       9 GLL5        0.0000 
     55 CA         27.0660   10.7310   34.6380 C.3       6 GLP5        0.0000 
     56 CA         27.0715    7.6750   36.6390 C.3       3 GLC5        0.0000 
     57 CA         25.7320    8.3980   38.0400 C.3       6 GLP5        0.0000 
     58 CA         27.5922   -5.7490   33.9135 C.3       3 GLC5        0.0000 
     59 CA         26.8070   -7.5700   33.6170 C.3       6 GLP5        0.0000 
     60 CA         29.3625   -3.6555   39.1688 C.3       3 GLC5        0.0000 
     61 CA         31.6240   -3.6850   38.6040 C.3       9 GLL5        0.0000 
     62 CA         32.5472   -0.3113   35.6285 C.3       3 GLC5        0.0000 
     63 CA         31.3320   -0.7360   37.3450 C.3       9 GLL5        0.0000 
     64 CA         33.8760   -0.4890   34.2990 C.3       6 GLP5        0.0000 
     65 CA         29.5012    0.5958   38.0185 C.3       3 GLC5        0.0000 
     66 CA         27.7840    1.3250   39.0790 C.3       6 GLP5        0.0000 
     67 CA         32.0407   -0.3583   34.6842 C.3       3 GLC5        0.0000 
     68 CA         30.4290    0.4070   35.3070 C.3       9 GLL5        0.0000 
     69 CA         28.4062    0.0997   36.0487 C.3       3 GLC5        0.0000 
     70 CA         26.6070    0.4270   37.0280 C.3       6 GLP5        0.0000 
     71 CA         32.2080   -1.2425   35.2505 C.3       3 GLC5        0.0000 
     72 CA         30.1960   -2.0230   35.5710 C.3       9 GLL5        0.0000 
     73 CA         29.3818    3.6090   31.0723 C.3       3 GLC5        0.0000 
     74 CA         28.7430    2.6630   32.7250 C.3       9 GLL5        0.0000 
     75 CA         26.7545   -2.1840   30.5475 C.3       3 GLC5        0.0000 
     76 CA         28.0200   -0.6100   31.1280 C.3       9 GLL5        0.0000 
     77 CA         25.1960   -3.1240   30.0920 C.3       6 GLP5        0.0000 
     78 CA         27.3746    1.0725   29.7195 C.3       3 GLC5        0.0000 
     79 CA         26.4830    1.8290   28.2140 C.3       6 GLP5        0.0000 
     80 CA         32.4548    6.7430   32.4710 C.3       3 GLC5        0.0000 
     81 CA         31.5600    8.5730   32.7100 C.3       9 GLL5        0.0000 
     82 CA         33.2000    5.1280   31.5760 C.3       6 GLP5        0.0000 
@<TRIPOS>BOND
@<TRIPOS>SUBSTRUCTURE
     1 ALC1       32 GROUP        1 X    ALC  0     ROOT ALC X 1
     2 SEC2       13 GROUP        1 X    SEC  0     **** SEC X 2
     3 GLC5        1 GROUP        1 X    GLC  0     **** GLC X 6
     4 ALP1       34 GROUP        1 Y    ALP  0     ROOT ALP Y 8
     5 SEP2       15 GROUP        1 Y    SEP  0     **** SEP Y 9
     6 GLP5        3 GROUP        1 Y    GLP  0     **** GLP Y 13
     7 ALL1       33 GROUP        1 Z    ALL  0     ROOT ALL Z 15
     8 SEL2       14 GROUP        1 Z    SEL  0     **** SEL Z 16
     9 GLL5        2 GROUP        1 Z    GLL  0     **** GLL Z 20
@<TRIPOS>SET

