#    Name: 2wf1_ZY1_1_ligand
#    Modification time : Tue Mar 25 04:16:03 2014

@<TRIPOS>MOLECULE
2wf1_ZY1_1_ligand
   79    83     1     0     0
SMALL
NO_CHARGES


@<TRIPOS>ATOM
      1 C69        27.6180   -3.8540   34.2880 C.3       1 ZY12000     0.0000 
      2 C68        29.1370   -4.0020   34.1320 C.3       1 ZY12000     0.0000 
      3 C58        29.8660   -3.4100   35.3340 C.2       1 ZY12000     0.0000 
      4 C57        30.3580   -4.1260   36.4280 C.2       1 ZY12000     0.0000 
      5 N56        30.9610   -3.2910   37.3200 N.pl3     1 ZY12000     0.0000 
      6 C62        31.6240   -3.6850   38.6040 C.3       1 ZY12000     0.0000 
      7 C61        31.2920   -2.9890   39.9430 C.3       1 ZY12000     0.0000 
      8 S60        31.1010   -1.2210   39.8640 S.o2      1 ZY12000     0.0000 
      9 O80        29.7190   -0.9570   39.6070 O.2       1 ZY12000     0.0000 
     10 O79        31.6780   -0.6380   41.0490 O.2       1 ZY12000     0.0000 
     11 N59        32.0030   -0.6830   38.5670 N.pl3     1 ZY12000     0.0000 
     12 C75        32.7410    0.5820   38.8210 C.3       1 ZY12000     0.0000 
     13 C10        31.3320   -0.7360   37.3450 C.ar      1 ZY12000     0.0000 
     14 C9         31.1050    0.4690   36.5710 C.ar      1 ZY12000     0.0000 
     15 C8         30.4290    0.4070   35.3070 C.ar      1 ZY12000     0.0000 
     16 C13        29.9820   -0.8620   34.8320 C.ar      1 ZY12000     0.0000 
     17 C12        30.1960   -2.0230   35.5710 C.ar      1 ZY12000     0.0000 
     18 C11        30.8840   -1.9690   36.8330 C.ar      1 ZY12000     0.0000 
     19 C1         30.2000    1.5800   34.4310 C.2       1 ZY12000     0.0000 
     20 O7         31.0350    2.4780   34.3070 O.2       1 ZY12000     0.0000 
     21 N2         29.0470    1.5970   33.7040 N.am      1 ZY12000     0.0000 
     22 C3         28.7430    2.6630   32.7250 C.3       1 ZY12000     0.0000 
     23 C5         28.1980    1.9210   31.4600 C.3       1 ZY12000     0.0000 
     24 C14        28.8270    0.5630   31.1840 C.ar      1 ZY12000     0.0000 
     25 C15        28.0200   -0.6100   31.1280 C.ar      1 ZY12000     0.0000 
     26 C16        28.6060   -1.8780   30.8780 C.ar      1 ZY12000     0.0000 
     27 C17        30.0030   -1.9880   30.6840 C.ar      1 ZY12000     0.0000 
     28 C18        30.8180   -0.8290   30.7380 C.ar      1 ZY12000     0.0000 
     29 C19        30.2350    0.4360   30.9840 C.ar      1 ZY12000     0.0000 
     30 O47        30.0710    8.9410   30.8830 O.3       1 ZY12000     0.0000 
     31 C4         27.8100    3.7460   33.3100 C.3       1 ZY12000     0.0000 
     32 C48        28.7920    9.4100   30.4820 C.3       1 ZY12000     0.0000 
     33 O21        27.4460    4.6150   32.2510 O.3       1 ZY12000     0.0000 
     34 C6         28.4060    4.6020   34.4350 C.3       1 ZY12000     0.0000 
     35 N20        27.6660    5.8680   34.5720 N.4       1 ZY12000     0.0000 
     36 C37        28.4110    6.9520   35.2380 C.3       1 ZY12000     0.0000 
     37 C39        29.5090    7.5170   34.3630 C.ar      1 ZY12000     0.0000 
     38 C42        29.2170    7.9510   33.0450 C.ar      1 ZY12000     0.0000 
     39 C43        30.2410    8.4860   32.2010 C.ar      1 ZY12000     0.0000 
     40 C44        31.5600    8.5730   32.7100 C.ar      1 ZY12000     0.0000 
     41 C45        31.8590    8.1430   34.0220 C.ar      1 ZY12000     0.0000 
     42 C46        30.8380    7.6170   34.8460 C.ar      1 ZY12000     0.0000 
     43 H          29.4534   -3.4868   33.2271 H         1 ZY12000     0.0000 
     44 H          29.3841   -5.0582   34.0431 H         1 ZY12000     0.0000 
     45 H          30.2724   -5.0870   36.5222 H         1 ZY12000     0.0000 
     46 H          32.7549   -3.6186   38.4671 H         1 ZY12000     0.0000 
     47 H          31.4724   -4.8044   38.7654 H         1 ZY12000     0.0000 
     48 H          32.0762   -3.1212   40.6820 H         1 ZY12000     0.0000 
     49 H          30.3458   -3.3227   40.3577 H         1 ZY12000     0.0000 
     50 H          31.4295    1.3603   36.9321 H         1 ZY12000     0.0000 
     51 H          29.4945   -0.9047   33.9259 H         1 ZY12000     0.0000 
     52 H          28.3269    0.8582   33.8058 H         1 ZY12000     0.0000 
     53 H          29.6872    3.1308   32.4271 H         1 ZY12000     0.0000 
     54 H          28.3507    2.5821   30.5882 H         1 ZY12000     0.0000 
     55 H          27.1061    1.8039   31.5808 H         1 ZY12000     0.0000 
     56 H          27.0107   -0.5348   31.2694 H         1 ZY12000     0.0000 
     57 H          28.0174   -2.7103   30.8385 H         1 ZY12000     0.0000 
     58 H          30.4245   -2.8986   30.5055 H         1 ZY12000     0.0000 
     59 H          31.8254   -0.9091   30.5991 H         1 ZY12000     0.0000 
     60 H          30.8234    1.2722   31.0201 H         1 ZY12000     0.0000 
     61 H          26.9212    3.2478   33.6956 H         1 ZY12000     0.0000 
     62 H          29.4572    4.7921   34.2004 H         1 ZY12000     0.0000 
     63 H          28.3618    4.0259   35.3636 H         1 ZY12000     0.0000 
     64 H          28.8625    6.5830   36.1740 H         1 ZY12000     0.0000 
     65 H          27.7252    7.7704   35.5135 H         1 ZY12000     0.0000 
     66 H          28.2599    7.8827   32.6865 H         1 ZY12000     0.0000 
     67 H          32.3062    8.9532   32.1173 H         1 ZY12000     0.0000 
     68 H          32.8147    8.2121   34.3763 H         1 ZY12000     0.0000 
     69 H          31.0573    7.3068   35.7950 H         1 ZY12000     0.0000 
     70 H          27.2812   -4.3220   35.1050 H         1 ZY12000     0.0000 
     71 H          27.3443   -2.8953   34.3656 H         1 ZY12000     0.0000 
     72 H          27.1253   -4.2371   33.5067 H         1 ZY12000     0.0000 
     73 H          33.3871    0.4893   39.5786 H         1 ZY12000     0.0000 
     74 H          33.2666    0.8723   38.0214 H         1 ZY12000     0.0000 
     75 H          32.1225    1.3326   39.0534 H         1 ZY12000     0.0000 
     76 H          28.4938   10.1907   31.0311 H         1 ZY12000     0.0000 
     77 H          28.7874    9.7049   29.5265 H         1 ZY12000     0.0000 
     78 H          28.0914    8.7024   30.5738 H         1 ZY12000     0.0000 
     79 H          26.6730    4.1664   31.8023 H         1 ZY12000     0.0000 
@<TRIPOS>BOND
     1    2    1 1    
     2   70    1 1    
     3   71    1 1    
     4   72    1 1    
     5    3    2 1    
     6   43    2 1    
     7   44    2 1    
     8    4    3 2    
     9   17    3 1    
    10    5    4 1    
    11   45    4 1    
    12    6    5 1    
    13   18    5 1    
    14    7    6 1    
    15   46    6 1    
    16   47    6 1    
    17    8    7 1    
    18   48    7 1    
    19   49    7 1    
    20    9    8 2    
    21   10    8 2    
    22   11    8 1    
    23   12   11 1    
    24   13   11 1    
    25   73   12 1    
    26   74   12 1    
    27   75   12 1    
    28   14   13 ar   
    29   18   13 ar   
    30   15   14 ar   
    31   50   14 1    
    32   16   15 ar   
    33   19   15 1    
    34   17   16 ar   
    35   51   16 1    
    36   18   17 ar   
    37   20   19 2    
    38   21   19 am   
    39   22   21 1    
    40   52   21 1    
    41   23   22 1    
    42   31   22 1    
    43   53   22 1    
    44   24   23 1    
    45   54   23 1    
    46   55   23 1    
    47   25   24 ar   
    48   29   24 ar   
    49   26   25 ar   
    50   56   25 1    
    51   27   26 ar   
    52   57   26 1    
    53   28   27 ar   
    54   58   27 1    
    55   29   28 ar   
    56   59   28 1    
    57   60   29 1    
    58   32   30 1    
    59   39   30 1    
    60   33   31 1    
    61   34   31 1    
    62   61   31 1    
    63   76   32 1    
    64   77   32 1    
    65   78   32 1    
    66   79   33 1    
    67   35   34 1    
    68   62   34 1    
    69   63   34 1    
    70   36   35 1    
    71   37   36 1    
    72   64   36 1    
    73   65   36 1    
    74   38   37 ar   
    75   42   37 ar   
    76   39   38 ar   
    77   66   38 1    
    78   40   39 ar   
    79   41   40 ar   
    80   67   40 1    
    81   42   41 ar   
    82   68   41 1    
    83   69   42 1    
@<TRIPOS>SUBSTRUCTURE
     1 ZY12000     1 GROUP   
@<TRIPOS>SET

