#    Name: 3f3w_1BU_1_INTS_M
#    Modification time : Tue Mar 25 03:07:20 2014

@<TRIPOS>MOLECULE
3f3w_1BU_1_INTS_M
   90     0     9     0     0
SMALL
NO_CHARGES


@<TRIPOS>ATOM
      1 CA          9.3055   38.4330    8.3825 C.3       3 GLC5        0.0000 
      2 CA          9.6720   36.5080    7.2970 C.3       9 GLL5        0.0000 
      3 CA          8.9390   40.3580    9.4680 C.3       6 GLP5        0.0000 
      4 CA          9.7740   34.7665    6.1040 C.3       3 GLC5        0.0000 
      5 CA          9.8760   33.0250    4.9110 C.3       6 GLP5        0.0000 
      6 N          13.5845   34.5680    6.6850 N.am      2 SEC2        0.0000 
      7 N          12.1710   35.3950    6.7830 N.am      8 SEL2        0.0000 
      8 N          14.9980   33.7410    6.5870 N.am      5 SEP2        0.0000 
      9 CA         -1.3685   36.8685    7.0810 C.3       3 GLC5        0.0000 
     10 CA         -1.4980   35.7560    8.7070 C.3       9 GLL5        0.0000 
     11 CA         -1.2390   37.9810    5.4550 C.3       6 GLP5        0.0000 
     12 CA         -1.4525   33.7045   11.3050 C.3       3 GLC5        0.0000 
     13 CA         -2.5980   33.6940    9.8180 C.3       9 GLL5        0.0000 
     14 CA         -0.3070   33.7150   12.7920 C.3       6 GLP5        0.0000 
     15 CA         -1.6775   29.4215   10.0455 C.3       3 GLC5        0.0000 
     16 CA         -1.6920   31.4950    9.5190 C.3       9 GLL5        0.0000 
     17 CA         -1.6630   27.3480   10.5720 C.3       6 GLP5        0.0000 
     18 CA         -0.5510   26.0055    7.2675 C.3       3 GLC5        0.0000 
     19 CA         -0.3160   27.7060    6.2360 C.3       9 GLL5        0.0000 
     20 CA         -0.7860   24.3050    8.2990 C.3       6 GLP5        0.0000 
     21 CA         -1.9340   26.9345    6.3390 C.3       3 GLC5        0.0000 
     22 CA         -3.5520   26.1630    6.4420 C.3       6 GLP5        0.0000 
     23 CA          0.8595   28.4240    3.4235 C.3       3 GLC5        0.0000 
     24 CA          1.8310   28.3070    5.0350 C.3       9 GLL5        0.0000 
     25 CA         -0.1120   28.5410    1.8120 C.3       6 GLP5        0.0000 
     26 CA          2.5375   27.9255    3.2795 C.3       3 GLC5        0.0000 
     27 CA          3.2440   27.5440    1.5240 C.3       6 GLP5        0.0000 
     28 CA          3.2905   29.6325    4.5610 C.3       3 GLC5        0.0000 
     29 CA          4.7500   30.9580    4.0870 C.3       6 GLP5        0.0000 
     30 CA          0.5935   25.7665    7.7920 C.3       3 GLC5        0.0000 
     31 CA          1.9730   27.2280    7.2850 C.3       9 GLL5        0.0000 
     32 CA          2.7605   25.6705    6.7485 C.3       3 GLC5        0.0000 
     33 CA          3.5480   24.1130    6.2120 C.3       6 GLP5        0.0000 
     34 CA          3.4430   30.6470    5.7890 C.3       3 GLC5        0.0000 
     35 CA          2.1360   30.3360    7.4910 C.3       9 GLL5        0.0000 
     36 CA          1.1920   32.4715    9.9175 C.3       3 GLC5        0.0000 
     37 CA          1.5950   31.3730    8.1210 C.3       9 GLL5        0.0000 
     38 CA          0.7890   33.5700   11.7140 C.3       6 GLP5        0.0000 
     39 O           2.0465   33.6585    9.3340 O.2       1 ALC1        0.0000 
     40 O           2.2520   32.4120    8.6330 O.2       7 ALL1        0.0000 
     41 O           1.8410   34.9050   10.0350 O.2       4 ALP1        0.0000 
     42 N           3.3880   32.4765    5.9435 N.am      2 SEC2        0.0000 
     43 N           3.9100   32.5540    7.1230 N.am      8 SEL2        0.0000 
     44 N           2.8660   32.3990    4.7640 N.am      5 SEP2        0.0000 
     45 O           2.8535   34.4685    9.4295 O.2       1 ALC1        0.0000 
     46 O           3.8660   34.0320    8.8240 O.2       7 ALL1        0.0000 
     47 CA          6.1180   35.5015   10.5640 C.3       3 GLC5        0.0000 
     48 CA          5.0360   36.1250    8.7340 C.3       9 GLL5        0.0000 
     49 CA          7.2000   34.8780   12.3940 C.3       6 GLP5        0.0000 
     50 CA          5.9895   33.0490    6.0545 C.3       3 GLC5        0.0000 
     51 CA          6.1430   34.1190    7.9940 C.3       9 GLL5        0.0000 
     52 CA          5.8360   31.9790    4.1150 C.3       6 GLP5        0.0000 
     53 CA          8.5800   33.9490    6.2980 C.3       3 GLC5        0.0000 
     54 CA          7.2840   34.8730    7.6850 C.3       9 GLL5        0.0000 
     55 CA          9.6000   39.3705    7.6490 C.3       3 GLC5        0.0000 
     56 CA         10.2610   38.3830    5.8300 C.3       9 GLL5        0.0000 
     57 CA         11.6095   35.6235    9.0035 C.3       3 GLC5        0.0000 
     58 CA         11.2930   34.7790    7.5750 C.3       9 GLL5        0.0000 
     59 CA         11.9260   36.4680   10.4320 C.3       6 GLP5        0.0000 
     60 CA         13.2680   34.2635    8.2860 C.3       3 GLC5        0.0000 
     61 CA         15.2430   33.7480    8.9970 C.3       6 GLP5        0.0000 
     62 CA         12.2285   33.3180    6.4675 C.3       3 GLC5        0.0000 
     63 CA         13.1640   31.8570    5.3600 C.3       6 GLP5        0.0000 
     64 CA         10.5845   33.9020    6.2430 C.3       3 GLC5        0.0000 
     65 CA         11.1859   36.5812    8.6230 C.3       3 GLC5        0.0000 
     66 CA         11.8580   36.5880    6.2170 C.3       9 GLL5        0.0000 
     67 CA         -0.3752   34.2785   10.2880 C.3       3 GLC5        0.0000 
     68 CA          0.0718   33.1202   10.1595 C.3       3 GLC5        0.0000 
     69 CA         -0.6300   33.3550    8.4760 C.3       9 GLL5        0.0000 
     70 CA         -0.1258   32.7028    6.7580 C.3       3 GLC5        0.0000 
     71 CA          0.3940   32.7350    4.9110 C.3       6 GLP5        0.0000 
     72 CA         -1.5742   32.1578   11.5203 C.3       3 GLC5        0.0000 
     73 CA         -0.9730   32.3980   13.2430 C.3       6 GLP5        0.0000 
     74 CA          2.5337   30.1048    9.5465 C.3       3 GLC5        0.0000 
     75 CA          3.2020   29.3550   11.2870 C.3       6 GLP5        0.0000 
     76 CA          1.1298   31.7948    6.3585 C.3       3 GLC5        0.0000 
     77 CA          4.6020   37.4808   10.1055 C.3       3 GLC5        0.0000 
     78 CA          3.5890   38.4660   11.6380 C.3       6 GLP5        0.0000 
     79 CA          7.4917   32.5915    7.9257 C.3       3 GLC5        0.0000 
     80 CA          8.2700   30.6870    8.0120 C.3       6 GLP5        0.0000 
     81 CA          6.9548   33.9611    9.7945 C.3       3 GLC5        0.0000 
     82 CA          7.4850   33.2710   11.6200 C.3       6 GLP5        0.0000 
     83 CA         10.6356   36.2325    4.7272 C.3       3 GLC5        0.0000 
     84 CA         10.5310   34.8330    3.3740 C.3       6 GLP5        0.0000 
     85 CA         12.2310   39.8305    6.5296 C.3       3 GLC5        0.0000 
     86 CA         12.8610   41.1260    7.9690 C.3       6 GLP5        0.0000 
     87 CA         13.1122   37.4522    3.1507 C.3       3 GLC5        0.0000 
     88 CA         12.4650   38.3900    4.7680 C.3       9 GLL5        0.0000 
     89 CA         13.5930   37.1140    1.2280 C.3       6 GLP5        0.0000 
     90 CA         11.5813   36.3118    4.2237 C.3       3 GLC5        0.0000 
@<TRIPOS>BOND
@<TRIPOS>SUBSTRUCTURE
     1 ALC1       39 GROUP        1 X    ALC  0     ROOT ALC X 1
     2 SEC2        6 GROUP        1 X    SEC  0     **** SEC X 2
     3 GLC5        1 GROUP        1 X    GLC  0     **** GLC X 6
     4 ALP1       41 GROUP        1 Y    ALP  0     ROOT ALP Y 8
     5 SEP2        8 GROUP        1 Y    SEP  0     **** SEP Y 9
     6 GLP5        3 GROUP        1 Y    GLP  0     **** GLP Y 13
     7 ALL1       40 GROUP        1 Z    ALL  0     ROOT ALL Z 15
     8 SEL2        7 GROUP        1 Z    SEL  0     **** SEL Z 16
     9 GLL5        2 GROUP        1 Z    GLL  0     **** GLL Z 20
@<TRIPOS>SET

