#    Name: 3f3w_1BU_1_ligand
#    Modification time : Tue Mar 25 03:07:20 2014

@<TRIPOS>MOLECULE
3f3w_1BU_1_ligand
   68    72     1     0     0
SMALL
NO_CHARGES


@<TRIPOS>ATOM
      1 C4         11.8580   36.5880    6.2170 C.ar      1 1BU1        0.0000 
      2 C5         10.5810   37.1740    6.4450 C.ar      1 1BU1        0.0000 
      3 C6          9.6720   36.5080    7.2970 C.ar      1 1BU1        0.0000 
      4 N1         10.0980   35.3240    7.8340 N.ar      1 1BU1        0.0000 
      5 N3         12.1710   35.3950    6.7830 N.ar      1 1BU1        0.0000 
      6 CAA        -1.4980   35.7560    8.7070 C.3       1 1BU1        0.0000 
      7 CBA        -1.5810   34.2180    9.0170 C.ar      1 1BU1        0.0000 
      8 CAQ        -0.6300   33.3550    8.4760 C.ar      1 1BU1        0.0000 
      9 CAI        -2.5980   33.6940    9.8180 C.ar      1 1BU1        0.0000 
     10 CAG        -2.6590   32.3400   10.0760 C.ar      1 1BU1        0.0000 
     11 CAJ        -1.6920   31.4950    9.5190 C.ar      1 1BU1        0.0000 
     12 CBE        -0.6610   31.9860    8.7340 C.ar      1 1BU1        0.0000 
     13 NBK         0.2570   31.1640    8.1880 N.pl3     1 1BU1        0.0000 
     14 NAV        -0.0540   30.1120    7.6050 N.2       1 1BU1        0.0000 
     15 CBF         1.0760   29.5610    7.1600 C.2       1 1BU1        0.0000 
     16 CBL         1.1350   28.2040    6.4140 C.3       1 1BU1        0.0000 
     17 CAC        -0.3160   27.7060    6.2360 C.3       1 1BU1        0.0000 
     18 CAD         1.8310   28.3070    5.0350 C.3       1 1BU1        0.0000 
     19 CAB         1.9730   27.2280    7.2850 C.3       1 1BU1        0.0000 
     20 CAR         2.1360   30.3360    7.4910 C.2       1 1BU1        0.0000 
     21 CBG         1.5950   31.3730    8.1210 C.2       1 1BU1        0.0000 
     22 NAX         2.2520   32.4120    8.6330 N.am      1 1BU1        0.0000 
     23 CAZ         3.3670   32.9710    8.1430 C.2       1 1BU1        0.0000 
     24 OAF         3.9100   32.5540    7.1230 O.2       1 1BU1        0.0000 
     25 NAW         3.8660   34.0320    8.8240 N.am      1 1BU1        0.0000 
     26 CBC         4.9870   34.7400    8.5120 C.ar      1 1BU1        0.0000 
     27 CAL         5.0360   36.1250    8.7340 C.ar      1 1BU1        0.0000 
     28 CAN         6.1940   36.8660    8.4120 C.ar      1 1BU1        0.0000 
     29 CAK         6.1430   34.1190    7.9940 C.ar      1 1BU1        0.0000 
     30 CAM         7.2840   34.8730    7.6850 C.ar      1 1BU1        0.0000 
     31 CBD         7.3330   36.2640    7.8840 C.ar      1 1BU1        0.0000 
     32 NAY         8.4290   37.0110    7.5890 N.pl3     1 1BU1        0.0000 
     33 CAS        10.2610   38.3830    5.8300 C.ar      1 1BU1        0.0000 
     34 CBB        11.2130   38.9770    4.9950 C.ar      1 1BU1        0.0000 
     35 NAE        10.9360   40.1390    4.4070 N.pl3     1 1BU1        0.0000 
     36 CAO        12.4650   38.3900    4.7680 C.ar      1 1BU1        0.0000 
     37 CAP        12.7980   37.1910    5.3790 C.ar      1 1BU1        0.0000 
     38 C2         11.2930   34.7790    7.5750 C.ar      1 1BU1        0.0000 
     39 H           0.1172   33.7400    7.8681 H         1 1BU1        0.0000 
     40 H          -3.3062   34.3310   10.2168 H         1 1BU1        0.0000 
     41 H          -3.3979   31.9496   10.6657 H         1 1BU1        0.0000 
     42 H          -1.7541   30.4736    9.7025 H         1 1BU1        0.0000 
     43 H           3.0442   30.1645    7.3086 H         1 1BU1        0.0000 
     44 H           1.8440   32.8550    9.5430 H         1 1BU1        0.0000 
     45 H           3.3202   34.3503    9.7047 H         1 1BU1        0.0000 
     46 H           4.2227   36.6082    9.1349 H         1 1BU1        0.0000 
     47 H           6.1876   37.8917    8.5773 H         1 1BU1        0.0000 
     48 H           6.1450   33.1020    7.8428 H         1 1BU1        0.0000 
     49 H           8.1178   34.3918    7.2979 H         1 1BU1        0.0000 
     50 H           8.3196   38.0777    7.5825 H         1 1BU1        0.0000 
     51 H           9.3594   38.8238    5.9829 H         1 1BU1        0.0000 
     52 H          11.6431   40.5059    3.8025 H         1 1BU1        0.0000 
     53 H          10.0458   40.5402    4.6228 H         1 1BU1        0.0000 
     54 H          13.1368   38.8571    4.1427 H         1 1BU1        0.0000 
     55 H          13.7047   36.7570    5.2234 H         1 1BU1        0.0000 
     56 H          11.5409   33.8499    8.0043 H         1 1BU1        0.0000 
     57 H          -0.6359   36.1525    9.0226 H         1 1BU1        0.0000 
     58 H          -1.5643   35.9414    7.7266 H         1 1BU1        0.0000 
     59 H          -2.2349   36.2649    9.1520 H         1 1BU1        0.0000 
     60 H          -0.3516   26.8299    5.7553 H         1 1BU1        0.0000 
     61 H          -0.7748   27.5768    7.1151 H         1 1BU1        0.0000 
     62 H          -0.8684   28.3520    5.7092 H         1 1BU1        0.0000 
     63 H           2.7739   28.6295    5.1181 H         1 1BU1        0.0000 
     64 H           1.8635   27.4231    4.5685 H         1 1BU1        0.0000 
     65 H           1.3564   28.9426    4.4260 H         1 1BU1        0.0000 
     66 H           2.9025   27.5663    7.4322 H         1 1BU1        0.0000 
     67 H           1.5644   27.0914    8.1874 H         1 1BU1        0.0000 
     68 H           2.0531   26.3264    6.8600 H         1 1BU1        0.0000 
@<TRIPOS>BOND
     1    2    1 ar   
     2    5    1 ar   
     3   37    1 ar   
     4    3    2 ar   
     5   33    2 ar   
     6    4    3 ar   
     7   32    3 1    
     8   38    4 ar   
     9   38    5 ar   
    10    7    6 1    
    11   57    6 1    
    12   58    6 1    
    13   59    6 1    
    14    8    7 ar   
    15    9    7 ar   
    16   12    8 ar   
    17   39    8 1    
    18   10    9 ar   
    19   40    9 1    
    20   11   10 ar   
    21   41   10 1    
    22   12   11 ar   
    23   42   11 1    
    24   13   12 1    
    25   14   13 1    
    26   21   13 1    
    27   15   14 2    
    28   16   15 1    
    29   20   15 1    
    30   17   16 1    
    31   18   16 1    
    32   19   16 1    
    33   60   17 1    
    34   61   17 1    
    35   62   17 1    
    36   63   18 1    
    37   64   18 1    
    38   65   18 1    
    39   66   19 1    
    40   67   19 1    
    41   68   19 1    
    42   21   20 2    
    43   43   20 1    
    44   22   21 1    
    45   23   22 am   
    46   44   22 1    
    47   24   23 2    
    48   25   23 am   
    49   26   25 1    
    50   45   25 1    
    51   27   26 ar   
    52   29   26 ar   
    53   28   27 ar   
    54   46   27 1    
    55   31   28 ar   
    56   47   28 1    
    57   30   29 ar   
    58   48   29 1    
    59   31   30 ar   
    60   49   30 1    
    61   32   31 1    
    62   50   32 1    
    63   34   33 ar   
    64   51   33 1    
    65   35   34 1    
    66   36   34 ar   
    67   52   35 1    
    68   53   35 1    
    69   37   36 ar   
    70   54   36 1    
    71   55   37 1    
    72   56   38 1    
@<TRIPOS>SUBSTRUCTURE
     1 1BU1        1 GROUP   
@<TRIPOS>SET

