#    Name: 3p3g_3P3_1_INTS_M
#    Modification time : Tue Mar 25 05:52:37 2014

@<TRIPOS>MOLECULE
3p3g_3P3_1_INTS_M
   83     0    12     0     0
SMALL
NO_CHARGES


@<TRIPOS>ATOM
      1 Zn         29.9960  -13.8210  -10.5800 Zn        3 ZIC7        0.0000 
      2 Zn         30.1570  -12.8490  -10.7240 Zn       11 ZIL7        0.0000 
      3 Zn         29.8350  -14.7930  -10.4360 Zn        7 ZIP7        0.0000 
      4 N          29.6290  -12.1885  -11.7595 N.am      2 SEC2        0.0000 
      5 N          30.1570  -12.8490  -10.7240 N.am     10 SEL2        0.0000 
      6 N          29.1010  -11.5280  -12.7950 N.am      6 SEP2        0.0000 
      7 Zn         30.8220  -14.6485  -10.0685 Zn        3 ZIC7        0.0000 
      8 Zn         31.8090  -14.5040   -9.7010 Zn       11 ZIL7        0.0000 
      9 O          32.9195  -14.9290   -9.9920 O.2       1 ALC1        0.0000 
     10 O          31.8090  -14.5040   -9.7010 O.2       9 ALL1        0.0000 
     11 O          34.0300  -15.3540  -10.2830 O.2       5 ALP1        0.0000 
     12 CA         32.7610  -11.9315  -11.5365 C.3       4 GLC5        0.0000 
     13 CA         31.3730  -10.8460  -10.1770 C.3      12 GLL5        0.0000 
     14 CA         34.1490  -13.0170  -12.8960 C.3       8 GLP5        0.0000 
     15 O          30.2160  -10.9195  -12.1545 O.2       1 ALC1        0.0000 
     16 O          31.3310  -10.3110  -11.5140 O.2       9 ALL1        0.0000 
     17 O          29.1010  -11.5280  -12.7950 O.2       5 ALP1        0.0000 
     18 N          34.5730  -10.2885  -11.0355 N.am      2 SEC2        0.0000 
     19 N          33.4340   -9.3370  -11.3860 N.am     10 SEL2        0.0000 
     20 N          35.7120  -11.2400  -10.6850 N.am      6 SEP2        0.0000 
     21 CA         31.9210   -5.3300  -15.9290 C.3       4 GLC5        0.0000 
     22 CA         32.3490   -7.2720  -15.1470 C.3      12 GLL5        0.0000 
     23 CA         31.4930   -3.3880  -16.7110 C.3       8 GLP5        0.0000 
     24 CA         33.7460   -9.3745  -15.0640 C.3       4 GLC5        0.0000 
     25 CA         32.7300   -7.7930  -13.8390 C.3      12 GLL5        0.0000 
     26 CA         34.7620  -10.9560  -16.2890 C.3       8 GLP5        0.0000 
     27 CA         27.2955   -9.6355   -9.0355 C.3       4 GLC5        0.0000 
     28 CA         29.0330  -10.1260   -9.6170 C.3      12 GLL5        0.0000 
     29 CA         25.5580   -9.1450   -8.4540 C.3       8 GLP5        0.0000 
     30 CA         27.9375  -12.0575   -9.9315 C.3       4 GLC5        0.0000 
     31 CA         26.8420  -13.9890  -10.2460 C.3       8 GLP5        0.0000 
     32 CA         28.0030  -11.0885   -7.9185 C.3       4 GLC5        0.0000 
     33 CA         26.9730  -12.0510   -6.2200 C.3       8 GLP5        0.0000 
     34 N          30.0585  -11.6485   -6.9150 N.am      2 SEC2        0.0000 
     35 N          30.6750  -10.6640   -7.8870 N.am     10 SEL2        0.0000 
     36 N          29.4420  -12.6330   -5.9430 N.am      6 SEP2        0.0000 
     37 CA         32.9665  -11.2227  -13.3870 C.3       4 GLC5        0.0000 
     38 CA         32.2040   -9.0570  -13.4420 C.3      12 GLL5        0.0000 
     39 CA         29.9425  -10.7885  -15.0617 C.3       4 GLC5        0.0000 
     40 CA         31.3640   -9.8000  -14.3140 C.3      12 GLL5        0.0000 
     41 CA         28.7120  -12.0420  -15.1520 C.3       8 GLP5        0.0000 
     42 CA         33.0725  -10.1526  -15.5213 C.3       4 GLC5        0.0000 
     43 CA         30.9820   -9.2700  -15.6290 C.3      12 GLL5        0.0000 
     44 CA         29.5050   -8.9405  -16.7685 C.3       4 GLC5        0.0000 
     45 CA         27.7720   -9.2330  -17.7080 C.3       8 GLP5        0.0000 
     46 CA         32.7090   -8.9123  -17.6103 C.3       4 GLC5        0.0000 
     47 CA         31.1420   -7.4350  -17.2680 C.3      12 GLL5        0.0000 
     48 CA         34.1000  -10.0940  -18.5720 C.3       8 GLP5        0.0000 
     49 CA         33.5067   -7.0285  -16.7170 C.3       4 GLC5        0.0000 
     50 CA         31.4940   -8.0260  -16.0290 C.3      12 GLL5        0.0000 
     51 CA         35.0920   -6.4080  -17.8460 C.3       8 GLP5        0.0000 
     52 CA         34.2890   -7.4522  -14.0534 C.3       4 GLC5        0.0000 
     53 CA         36.1700   -7.0560  -13.7130 C.3       8 GLP5        0.0000 
     54 CA         33.0403   -6.7915  -17.8125 C.3       4 GLC5        0.0000 
     55 CA         30.8350   -6.9150  -18.2900 C.3      12 GLL5        0.0000 
     56 CA         31.7135   -7.2088  -20.1807 C.3       4 GLC5        0.0000 
     57 CA         32.7770   -7.8270  -21.4990 C.3       8 GLP5        0.0000 
     58 CA         30.4039   -5.2797  -17.7805 C.3       4 GLC5        0.0000 
     59 CA         30.4650   -6.2660  -19.4350 C.3      12 GLL5        0.0000 
     60 CA         30.0810   -3.8390  -16.9540 C.3       8 GLP5        0.0000 
     61 CA         29.9340   -6.7847  -21.7422 C.3       4 GLC5        0.0000 
     62 CA         29.5680   -7.6060  -23.5630 C.3       8 GLP5        0.0000 
     63 CA         29.2494   -7.9768  -18.1575 C.3       4 GLC5        0.0000 
     64 CA         28.4570   -5.5353  -19.2828 C.3       4 GLC5        0.0000 
     65 CA         26.6140   -5.1070  -18.6440 C.3       8 GLP5        0.0000 
     66 CA         29.3193   -6.2467  -22.6675 C.3       4 GLC5        0.0000 
     67 CA         29.7330   -4.9140  -21.5470 C.3      12 GLL5        0.0000 
     68 CA         27.8422   -4.9973  -20.2080 C.3       4 GLC5        0.0000 
     69 CA         28.4080   -4.8610  -21.9970 C.3      12 GLL5        0.0000 
     70 CA         28.1935   -2.4752  -22.1683 C.3       4 GLC5        0.0000 
     71 CA         28.1390   -0.4710  -21.7770 C.3       8 GLP5        0.0000 
     72 CA         27.0205   -6.1312  -22.8567 C.3       4 GLC5        0.0000 
     73 CA         28.0880   -4.0980  -23.1220 C.3      12 GLL5        0.0000 
     74 CA         25.7930   -7.7830  -23.1540 C.3       8 GLP5        0.0000 
     75 CA         29.0743   -5.6677  -23.5080 C.3       4 GLC5        0.0000 
     76 CA         28.9337   -1.9273  -22.6675 C.3       4 GLC5        0.0000 
     77 CA         29.0730   -3.3610  -23.7840 C.3      12 GLL5        0.0000 
     78 CA         30.0565   -5.6978  -23.1683 C.3       4 GLC5        0.0000 
     79 CA         30.3840   -3.4060  -23.3320 C.3      12 GLL5        0.0000 
     80 CA         31.3845   -3.9326  -20.2711 C.3       4 GLC5        0.0000 
     81 CA         30.7060   -4.1730  -22.2150 C.3      12 GLL5        0.0000 
     82 CA         32.4490   -3.1350  -18.9460 C.3       8 GLP5        0.0000 
     83 CA         31.5485   -6.2786  -21.5476 C.3       4 GLC5        0.0000 
@<TRIPOS>BOND
@<TRIPOS>SUBSTRUCTURE
     1 ALC1        9 GROUP        1 X    ALC  0     ROOT ALC X 1
     2 SEC2        4 GROUP        1 X    SEC  0     **** SEC X 2
     3 ZIC7        1 GROUP        1 X    ZIC  0     **** ZIC X 5
     4 GLC5       12 GROUP        1 X    GLC  0     **** GLC X 6
     5 ALP1       11 GROUP        1 Y    ALP  0     ROOT ALP Y 8
     6 SEP2        6 GROUP        1 Y    SEP  0     **** SEP Y 9
     7 ZIP7        3 GROUP        1 Y    ZIP  0     **** ZIP Y 12
     8 GLP5       14 GROUP        1 Y    GLP  0     **** GLP Y 13
     9 ALL1       10 GROUP        1 Z    ALL  0     ROOT ALL Z 15
    10 SEL2        5 GROUP        1 Z    SEL  0     **** SEL Z 16
    11 ZIL7        2 GROUP        1 Z    ZIL  0     **** ZIL Z 19
    12 GLL5       13 GROUP        1 Z    GLL  0     **** GLL Z 20
@<TRIPOS>SET

