#    Name: 3p3g_3P3_1_ligand
#    Modification time : Tue Mar 25 05:52:37 2014

@<TRIPOS>MOLECULE
3p3g_3P3_1_ligand
   45    46     1     0     0
SMALL
NO_CHARGES


@<TRIPOS>ATOM
      1 O01        30.1570  -12.8490  -10.7240 O.2       1 3P3401      0.0000 
      2 C02        31.1870  -12.3410  -10.2330 C.2       1 3P3401      0.0000 
      3 N03        32.1100  -13.2220   -9.6370 N.am      1 3P3401      0.0000 
      4 O04        31.8090  -14.5040   -9.7010 O.3       1 3P3401      0.0000 
      5 C05        31.3730  -10.8460  -10.1770 C.3       1 3P3401      0.0000 
      6 N06        31.3310  -10.3110  -11.5140 N.am      1 3P3401      0.0000 
      7 C07        32.4590   -9.6180  -12.0740 C.2       1 3P3401      0.0000 
      8 O08        33.4340   -9.3370  -11.3860 O.2       1 3P3401      0.0000 
      9 C09        32.2040   -9.0570  -13.4420 C.ar      1 3P3401      0.0000 
     10 C10        31.3640   -9.8000  -14.3140 C.ar      1 3P3401      0.0000 
     11 C11        30.9820   -9.2700  -15.6290 C.ar      1 3P3401      0.0000 
     12 C12        31.4940   -8.0260  -16.0290 C.ar      1 3P3401      0.0000 
     13 C13        32.3490   -7.2720  -15.1470 C.ar      1 3P3401      0.0000 
     14 C14        32.7300   -7.7930  -13.8390 C.ar      1 3P3401      0.0000 
     15 C15        31.1420   -7.4350  -17.2680 C.1       1 3P3401      0.0000 
     16 C16        30.8350   -6.9150  -18.2900 C.1       1 3P3401      0.0000 
     17 C17        30.4650   -6.2660  -19.4350 C.1       1 3P3401      0.0000 
     18 C18        30.1350   -5.6610  -20.4080 C.1       1 3P3401      0.0000 
     19 C19        29.7330   -4.9140  -21.5470 C.ar      1 3P3401      0.0000 
     20 C20        28.4080   -4.8610  -21.9970 C.ar      1 3P3401      0.0000 
     21 C21        28.0880   -4.0980  -23.1220 C.ar      1 3P3401      0.0000 
     22 C22        29.0730   -3.3610  -23.7840 C.ar      1 3P3401      0.0000 
     23 C23        30.3840   -3.4060  -23.3320 C.ar      1 3P3401      0.0000 
     24 C24        30.7060   -4.1730  -22.2150 C.ar      1 3P3401      0.0000 
     25 C25        30.5100  -10.0670   -9.1780 C.3       1 3P3401      0.0000 
     26 C26        29.0330  -10.1260   -9.6170 C.3       1 3P3401      0.0000 
     27 O27        30.6750  -10.6640   -7.8870 O.3       1 3P3401      0.0000 
     28 H          32.9407  -12.8498   -9.1974 H         1 3P3401      0.0000 
     29 H          32.4583  -10.6978   -9.8170 H         1 3P3401      0.0000 
     30 H          30.4845  -10.4268  -12.0725 H         1 3P3401      0.0000 
     31 H          31.0111  -10.7151  -14.0423 H         1 3P3401      0.0000 
     32 H          30.3648   -9.8096  -16.2091 H         1 3P3401      0.0000 
     33 H          32.6963   -6.3608  -15.4347 H         1 3P3401      0.0000 
     34 H          33.3413   -7.2688  -13.2511 H         1 3P3401      0.0000 
     35 H          27.6776   -5.3804  -21.5018 H         1 3P3401      0.0000 
     36 H          27.1175   -4.0783  -23.4668 H         1 3P3401      0.0000 
     37 H          28.8241   -2.7911  -24.5992 H         1 3P3401      0.0000 
     38 H          31.1172   -2.8757  -23.8185 H         1 3P3401      0.0000 
     39 H          31.6833   -4.1932  -21.8754 H         1 3P3401      0.0000 
     40 H          30.8278   -9.0451   -9.1869 H         1 3P3401      0.0000 
     41 H          28.8988   -9.7260  -10.5236 H         1 3P3401      0.0000 
     42 H          28.6952  -11.0663   -9.6585 H         1 3P3401      0.0000 
     43 H          28.4379   -9.6283   -8.9860 H         1 3P3401      0.0000 
     44 H          32.6605  -14.9809   -9.4829 H         1 3P3401      0.0000 
     45 H          31.2962  -11.4335   -8.0353 H         1 3P3401      0.0000 
@<TRIPOS>BOND
     1    2    1 2    
     2    3    2 am   
     3    5    2 1    
     4    4    3 1    
     5   28    3 1    
     6   44    4 1    
     7    6    5 1    
     8   25    5 1    
     9   29    5 1    
    10    7    6 am   
    11   30    6 1    
    12    8    7 2    
    13    9    7 1    
    14   10    9 ar   
    15   14    9 ar   
    16   11   10 ar   
    17   31   10 1    
    18   12   11 ar   
    19   32   11 1    
    20   13   12 ar   
    21   15   12 1    
    22   14   13 ar   
    23   33   13 1    
    24   34   14 1    
    25   16   15 3    
    26   17   16 1    
    27   18   17 3    
    28   19   18 1    
    29   20   19 ar   
    30   24   19 ar   
    31   21   20 ar   
    32   35   20 1    
    33   22   21 ar   
    34   36   21 1    
    35   23   22 ar   
    36   37   22 1    
    37   24   23 ar   
    38   38   23 1    
    39   39   24 1    
    40   26   25 1    
    41   27   25 1    
    42   40   25 1    
    43   41   26 1    
    44   42   26 1    
    45   43   26 1    
    46   45   27 1    
@<TRIPOS>SUBSTRUCTURE
     1 3P3401      1 GROUP   
@<TRIPOS>SET

