#    Name: 1xmv_ADP_1_INTS_M
#    Modification time : Tue Mar 25 10:20:25 2014

@<TRIPOS>MOLECULE
1xmv_ADP_1_INTS_M
   59     0    15     0     0
SMALL
NO_CHARGES


@<TRIPOS>ATOM
      1 NZ         22.2985    6.0560    7.4930 N.4       3 LYC4        0.0000 
      2 NZ         22.4020    6.9600    9.1080 N.4      13 LYL4        0.0000 
      3 NZ         22.1950    5.1520    5.8780 N.4       8 LYP4        0.0000 
      4 N          21.9270    5.9320    9.7410 N.am      2 SEC2        0.0000 
      5 N          22.4020    6.9600    9.1080 N.am     12 SEL2        0.0000 
      6 N          21.4520    4.9040   10.3740 N.am      7 SEP2        0.0000 
      7 NZ         23.1200    5.3485    6.8855 N.4       3 LYC4        0.0000 
      8 NZ         24.0450    5.5450    7.8930 N.4      13 LYL4        0.0000 
      9 N          23.8295    4.3455    8.9460 N.am      2 SEC2        0.0000 
     10 N          24.0450    5.5450    7.8930 N.am     12 SEL2        0.0000 
     11 N          23.6140    3.1460    9.9990 N.am      7 SEP2        0.0000 
     12 N          25.0780    4.7450    8.6395 N.am      2 SEC2        0.0000 
     13 N          26.1110    3.9450    9.3860 N.am      7 SEP2        0.0000 
     14 N          25.3875    5.4900    7.4870 N.am      2 SEC2        0.0000 
     15 N          26.7300    5.4350    7.0810 N.am      7 SEP2        0.0000 
     16 N          23.1200    5.3485    6.8855 N.am      2 SEC2        0.0000 
     17 N          22.1950    5.1520    5.8780 N.am      7 SEP2        0.0000 
     18 Zn         23.8465    9.0310    7.7870 Zn        4 ZIC7        0.0000 
     19 Zn         24.2510    8.1160    7.9080 Zn       14 ZIL7        0.0000 
     20 Zn         23.4420    9.9460    7.6660 Zn        9 ZIP7        0.0000 
     21 N          25.5760    8.2165    7.2595 N.am      2 SEC2        0.0000 
     22 N          24.2510    8.1160    7.9080 N.am     12 SEL2        0.0000 
     23 N          26.9010    8.3170    6.6110 N.am      7 SEP2        0.0000 
     24 N          27.9870    8.2915    9.1870 N.am      2 SEC2        0.0000 
     25 N          26.9890    7.6690    9.9850 N.am     12 SEL2        0.0000 
     26 N          28.9850    8.9140    8.3890 N.am      7 SEP2        0.0000 
     27 N          28.2370    7.9515   10.6245 N.am      2 SEC2        0.0000 
     28 N          29.4850    8.2340   11.2640 N.am      7 SEP2        0.0000 
     29 N          25.3615    5.3265    9.7040 N.am      2 SEC2        0.0000 
     30 N          24.6120    6.7080   10.0220 N.am     12 SEL2        0.0000 
     31 CA         24.3495    5.2550   11.9985 C.3       5 GLC5        0.0000 
     32 CA         26.3070    5.8470   12.5350 C.3      15 GLL5        0.0000 
     33 CA         22.3920    4.6630   11.4620 C.3      10 GLP5        0.0000 
     34 CA         26.8620    5.2100   10.8965 C.3       5 GLC5        0.0000 
     35 CA         27.4170    4.5730    9.2580 C.3      10 GLP5        0.0000 
     36 CA         28.7655    5.4030   13.9185 C.3       5 GLC5        0.0000 
     37 CA         26.9420    5.9200   13.9250 C.3      15 GLL5        0.0000 
     38 CA         30.5890    4.8860   13.9120 C.3      10 GLP5        0.0000 
     39 CA         26.7150    7.7100   18.0230 C.3       5 GLC5        0.0000 
     40 CA         26.8800    6.9500   16.0730 C.3      15 GLL5        0.0000 
     41 CA         26.5500    8.4700   19.9730 C.3      10 GLP5        0.0000 
     42 CA         29.1495    9.1290   14.5260 C.3       5 GLC5        0.0000 
     43 CA         27.8300    7.7720   15.1820 C.3      15 GLL5        0.0000 
     44 CA         30.4690   10.4860   13.8700 C.3      10 GLP5        0.0000 
     45 CA         29.2095    6.3290   14.5470 C.3       5 GLC5        0.0000 
     46 CA         28.8110    7.5790   17.1740 C.3       5 GLC5        0.0000 
     47 CA         29.7920    7.3860   19.1660 C.3      10 GLP5        0.0000 
     48 O          26.3725   15.0100   15.8035 O.2       1 ALC1        0.0000 
     49 O          26.1850   13.6660   15.5070 O.2      11 ALL1        0.0000 
     50 O          26.5600   16.3540   16.1000 O.2       6 ALP1        0.0000 
     51 CA         29.6385   11.1295   18.2370 C.3       5 GLC5        0.0000 
     52 CA         27.9680   11.4240   17.7030 C.3      15 GLL5        0.0000 
     53 CA         31.3090   10.8350   18.7710 C.3      10 GLP5        0.0000 
     54 N          29.2655    9.9370   17.8445 N.am      2 SEC2        0.0000 
     55 N          28.0110   10.2460   17.0650 N.am     12 SEL2        0.0000 
     56 N          30.5200    9.6280   18.6240 N.am      7 SEP2        0.0000 
     57 CA         28.1758   13.2892   15.1552 C.3       5 GLC5        0.0000 
     58 CA         26.7690   11.3170   15.2300 C.3      15 GLL5        0.0000 
     59 CA         29.6020   14.6290   14.7290 C.3      10 GLP5        0.0000 
@<TRIPOS>BOND
@<TRIPOS>SUBSTRUCTURE
     1 ALC1       48 GROUP        1 X    ALC  0     ROOT ALC X 1
     2 SEC2        4 GROUP        1 X    SEC  0     **** SEC X 2
     3 LYC4        1 GROUP        1 X    LYC  0     **** LYC X 4
     4 ZIC7       18 GROUP        1 X    ZIC  0     **** ZIC X 5
     5 GLC5       31 GROUP        1 X    GLC  0     **** GLC X 6
     6 ALP1       50 GROUP        1 Y    ALP  0     ROOT ALP Y 8
     7 SEP2        6 GROUP        1 Y    SEP  0     **** SEP Y 9
     8 LYP4        3 GROUP        1 Y    LYP  0     **** LYP Y 11
     9 ZIP7       20 GROUP        1 Y    ZIP  0     **** ZIP Y 12
    10 GLP5       33 GROUP        1 Y    GLP  0     **** GLP Y 13
    11 ALL1       49 GROUP        1 Z    ALL  0     ROOT ALL Z 15
    12 SEL2        5 GROUP        1 Z    SEL  0     **** SEL Z 16
    13 LYL4        2 GROUP        1 Z    LYL  0     **** LYL Z 18
    14 ZIL7       19 GROUP        1 Z    ZIL  0     **** ZIL Z 19
    15 GLL5       32 GROUP        1 Z    GLL  0     **** GLL Z 20
@<TRIPOS>SET

