#    Name: 1xmv_ADP_1_ligand
#    Modification time : Tue Mar 25 10:20:25 2014

@<TRIPOS>MOLECULE
1xmv_ADP_1_ligand
   38    40     1     0     0
SMALL
NO_CHARGES


@<TRIPOS>ATOM
      1 PB         23.8020    6.8150    8.6530 P.3       1 ADP400      0.0000 
      2 O1B        22.4020    6.9600    9.1080 O.co2     1 ADP400      0.0000 
      3 O2B        24.0450    5.5450    7.8930 O.co2     1 ADP400      0.0000 
      4 O3B        24.2510    8.1160    7.9080 O.co2     1 ADP400      0.0000 
      5 PA         25.6660    7.6600   10.7040 P.3       1 ADP400      0.0000 
      6 O1A        24.9950    8.9940   10.8660 O.co2     1 ADP400      0.0000 
      7 O2A        26.9890    7.6690    9.9850 O.co2     1 ADP400      0.0000 
      8 O3A        24.6120    6.7080   10.0220 O.3       1 ADP400      0.0000 
      9 O5'        25.7090    7.1270   12.1840 O.3       1 ADP400      0.0000 
     10 C5'        26.3070    5.8470   12.5350 C.3       1 ADP400      0.0000 
     11 C4'        26.9420    5.9200   13.9250 C.3       1 ADP400      0.0000 
     12 O4'        27.8280    7.0820   13.9270 O.3       1 ADP400      0.0000 
     13 C3'        25.9710    6.2140   15.0810 C.3       1 ADP400      0.0000 
     14 O3'        25.3920    4.9720   15.5280 O.3       1 ADP400      0.0000 
     15 C2'        26.8800    6.9500   16.0730 C.3       1 ADP400      0.0000 
     16 O2'        27.6460    6.0690   16.9130 O.3       1 ADP400      0.0000 
     17 C1'        27.8300    7.7720   15.1820 C.3       1 ADP400      0.0000 
     18 N9         27.2990    9.1860   14.9830 N.pl3     1 ADP400      0.0000 
     19 C8         26.6150    9.6700   13.9050 C.2       1 ADP400      0.0000 
     20 N7         26.2760   10.9610   14.0210 N.2       1 ADP400      0.0000 
     21 C5         26.7690   11.3170   15.2300 C.ar      1 ADP400      0.0000 
     22 C6         26.7300   12.5820   15.9330 C.ar      1 ADP400      0.0000 
     23 N6         26.1850   13.6660   15.5070 N.pl3     1 ADP400      0.0000 
     24 N1         27.3560   12.5580   17.1730 N.ar      1 ADP400      0.0000 
     25 C2         27.9680   11.4240   17.7030 C.ar      1 ADP400      0.0000 
     26 N3         28.0110   10.2460   17.0650 N.ar      1 ADP400      0.0000 
     27 C4         27.4090   10.2370   15.8500 C.ar      1 ADP400      0.0000 
     28 H          27.0868    5.5672   11.8191 H         1 ADP400      0.0000 
     29 H          25.5553    5.0510   12.5459 H         1 ADP400      0.0000 
     30 H          27.4945    5.0479   14.1362 H         1 ADP400      0.0000 
     31 H          25.2544    6.9097   14.6998 H         1 ADP400      0.0000 
     32 H          26.2846    7.6444   16.6239 H         1 ADP400      0.0000 
     33 H          28.7827    7.7883   15.6233 H         1 ADP400      0.0000 
     34 H          26.3950    9.1050   13.1123 H         1 ADP400      0.0000 
     35 H          28.4149   11.5201   18.6583 H         1 ADP400      0.0000 
     36 H          24.5794    5.2374   16.0469 H         1 ADP400      0.0000 
     37 H          27.1644    5.1934   16.8767 H         1 ADP400      0.0000 
     38 H          26.6390   14.3998   16.0125 H         1 ADP400      0.0000 
@<TRIPOS>BOND
     1    2    1 ar   
     2    3    1 ar   
     3    4    1 ar   
     4    8    1 1    
     5    6    5 ar   
     6    7    5 ar   
     7    8    5 1    
     8    9    5 1    
     9   10    9 1    
    10   11   10 1    
    11   28   10 1    
    12   29   10 1    
    13   12   11 1    
    14   13   11 1    
    15   30   11 1    
    16   17   12 1    
    17   14   13 1    
    18   15   13 1    
    19   31   13 1    
    20   36   14 1    
    21   16   15 1    
    22   17   15 1    
    23   32   15 1    
    24   37   16 1    
    25   18   17 1    
    26   33   17 1    
    27   19   18 1    
    28   27   18 1    
    29   20   19 2    
    30   34   19 1    
    31   21   20 1    
    32   22   21 ar   
    33   27   21 ar   
    34   23   22 1    
    35   24   22 ar   
    36   38   23 1    
    37   25   24 ar   
    38   26   25 ar   
    39   35   25 1    
    40   27   26 ar   
@<TRIPOS>SUBSTRUCTURE
     1 ADP400      1 GROUP   
@<TRIPOS>SET

