#    Name: 4b70_WM9_1_INTS_M
#    Modification time : Tue Mar 25 06:49:01 2014

@<TRIPOS>MOLECULE
4b70_WM9_1_INTS_M
   47     0     6     0     0
SMALL
NO_CHARGES


@<TRIPOS>ATOM
      1 CA          3.7255    4.7595  -22.3660 C.3       2 GLC5        0.0000 
      2 CA          5.1590    3.2290  -22.1330 C.3       6 GLL5        0.0000 
      3 CA          2.2920    6.2900  -22.5990 C.3       4 GLP5        0.0000 
      4 CA          4.6735    1.8560  -23.4430 C.3       2 GLC5        0.0000 
      5 CA          4.1880    0.4830  -24.7530 C.3       4 GLP5        0.0000 
      6 O           2.9050    2.8990  -20.9150 O.2       1 ALC1        0.0000 
      7 O           4.0000    2.7320  -20.2080 O.2       5 ALL1        0.0000 
      8 O           1.8100    3.0660  -21.6220 O.2       3 ALP1        0.0000 
      9 CA          2.4535    1.8760  -18.4705 C.3       2 GLC5        0.0000 
     10 CA          3.9710    3.1560  -18.9830 C.3       6 GLL5        0.0000 
     11 CA          0.9360    0.5960  -17.9580 C.3       4 GLP5        0.0000 
     12 O           1.6400    3.2995  -19.1000 O.2       1 ALC1        0.0000 
     13 O           2.7830    3.4370  -18.3740 O.2       5 ALL1        0.0000 
     14 O           0.4970    3.1620  -19.8260 O.2       3 ALP1        0.0000 
     15 O           2.2965    3.2515  -19.9980 O.2       1 ALC1        0.0000 
     16 O           2.5010    3.8875  -17.0675 O.2       1 ALC1        0.0000 
     17 O           2.2190    4.3380  -15.7610 O.2       3 ALP1        0.0000 
     18 CA          1.8800   -3.3185  -19.8290 C.3       2 GLC5        0.0000 
     19 CA          3.2430   -3.2060  -18.0530 C.3       6 GLL5        0.0000 
     20 CA          0.5170   -3.4310  -21.6050 C.3       4 GLP5        0.0000 
     21 CA          1.1295   -4.3825  -18.1300 C.3       2 GLC5        0.0000 
     22 CA          1.7800   -2.9500  -17.1960 C.3       6 GLL5        0.0000 
     23 CA          0.4790   -5.8150  -19.0640 C.3       4 GLP5        0.0000 
     24 CA          1.3580   -1.1770  -17.5770 C.3       2 GLC5        0.0000 
     25 CA          2.3685   -1.3305  -15.9570 C.3       2 GLC5        0.0000 
     26 CA          2.9570    0.2890  -14.7180 C.3       4 GLP5        0.0000 
     27 CA          6.6327    3.9280  -22.3248 C.3       2 GLC5        0.0000 
     28 CA          5.3060    2.4910  -20.8120 C.3       6 GLL5        0.0000 
     29 CA          8.0330    4.9960  -23.1770 C.3       4 GLP5        0.0000 
     30 CA          5.1303    0.6732  -23.1638 C.3       2 GLC5        0.0000 
     31 CA          6.5180    0.6920  -22.0750 C.3       6 GLL5        0.0000 
     32 CA          5.3702   -0.3250  -23.3365 C.3       2 GLC5        0.0000 
     33 CA          6.8260   -0.6320  -22.3100 C.3       6 GLL5        0.0000 
     34 CA          3.5120   -1.0065  -21.3402 C.3       2 GLC5        0.0000 
     35 CA          5.3790   -1.3330  -20.5230 C.3       6 GLL5        0.0000 
     36 CA          1.7970   -1.3530  -22.2580 C.3       4 GLP5        0.0000 
     37 CA          3.0297   -1.8310  -20.7795 C.3       2 GLC5        0.0000 
     38 CA          4.8630   -2.3730  -19.6370 C.3       6 GLL5        0.0000 
     39 CA          6.4173   -5.0090  -20.0422 C.3       2 GLC5        0.0000 
     40 CA          5.5920   -3.5290  -19.3780 C.3       6 GLL5        0.0000 
     41 CA          7.4490   -6.0050  -21.1570 C.3       4 GLP5        0.0000 
     42 CA          4.0282   -6.2410  -18.3137 C.3       2 GLC5        0.0000 
     43 CA          5.1790   -4.4970  -18.4770 C.3       6 GLL5        0.0000 
     44 CA          3.4700   -8.0660  -18.4950 C.3       4 GLP5        0.0000 
     45 CA          2.0488   -4.7927  -18.4923 C.3       2 GLC5        0.0000 
     46 CA          3.9940   -4.3350  -17.7880 C.3       6 GLL5        0.0000 
     47 CA          2.1943   -1.0648  -18.2335 C.3       2 GLC5        0.0000 
@<TRIPOS>BOND
@<TRIPOS>SUBSTRUCTURE
     1 ALC1        6 GROUP        1 X    ALC  0     ROOT ALC X 1
     2 GLC5        1 GROUP        1 X    GLC  0     **** GLC X 6
     3 ALP1        8 GROUP        1 Y    ALP  0     ROOT ALP Y 8
     4 GLP5        3 GROUP        1 Y    GLP  0     **** GLP Y 13
     5 ALL1        7 GROUP        1 Z    ALL  0     ROOT ALL Z 15
     6 GLL5        2 GROUP        1 Z    GLL  0     **** GLL Z 20
@<TRIPOS>SET

