#    Name: 4b70_WM9_1_ligand
#    Modification time : Tue Mar 25 06:49:01 2014

@<TRIPOS>MOLECULE
4b70_WM9_1_ligand
   39    41     1     0     0
SMALL
NO_CHARGES


@<TRIPOS>ATOM
      1 C1          5.1590    3.2290  -22.1330 C.3       1 WM91503     0.0000 
      2 C2          5.3060    2.4910  -20.8120 C.3       1 WM91503     0.0000 
      3 N3          4.0000    2.7320  -20.2080 N.pl3     1 WM91503     0.0000 
      4 C4          3.9710    3.1560  -18.9830 C.2       1 WM91503     0.0000 
      5 C5          5.1890    3.3470  -18.1090 C.3       1 WM91503     0.0000 
      6 C6          6.4300    2.7420  -18.7410 C.3       1 WM91503     0.0000 
      7 O7          6.4230    3.0850  -20.1310 O.3       1 WM91503     0.0000 
      8 N8          2.7830    3.4370  -18.3740 N.pl3     1 WM91503     0.0000 
      9 C9          5.6270    1.0350  -21.0740 C.ar      1 WM91503     0.0000 
     10 C10         6.5180    0.6920  -22.0750 C.ar      1 WM91503     0.0000 
     11 C11         6.8260   -0.6320  -22.3100 C.ar      1 WM91503     0.0000 
     12 C12         6.2790   -1.6340  -21.5300 C.ar      1 WM91503     0.0000 
     13 C13         5.3790   -1.3330  -20.5230 C.ar      1 WM91503     0.0000 
     14 C14         5.0750    0.0130  -20.3220 C.ar      1 WM91503     0.0000 
     15 C15         4.8630   -2.3730  -19.6370 C.ar      1 WM91503     0.0000 
     16 C16         5.5920   -3.5290  -19.3780 C.ar      1 WM91503     0.0000 
     17 C17         5.1790   -4.4970  -18.4770 C.ar      1 WM91503     0.0000 
     18 C18         3.9940   -4.3350  -17.7880 C.ar      1 WM91503     0.0000 
     19 C19         3.2430   -3.2060  -18.0530 C.ar      1 WM91503     0.0000 
     20 C20         3.6620   -2.2450  -18.9650 C.ar      1 WM91503     0.0000 
     21 CL          1.7800   -2.9500  -17.1960 Cl        1 WM91503     0.0000 
     22 H           3.1844    2.5503  -20.7921 H         1 WM91503     0.0000 
     23 H           5.0162    2.8767  -17.1356 H         1 WM91503     0.0000 
     24 H           5.3550    4.4165  -17.9444 H         1 WM91503     0.0000 
     25 H           6.3977    1.6644  -18.5912 H         1 WM91503     0.0000 
     26 H           7.3030    3.1445  -18.2305 H         1 WM91503     0.0000 
     27 H           2.8402    3.7968  -17.4427 H         1 WM91503     0.0000 
     28 H           1.9595    3.2585  -18.9124 H         1 WM91503     0.0000 
     29 H           6.9543    1.4327  -22.6489 H         1 WM91503     0.0000 
     30 H           7.4746   -0.8798  -23.0796 H         1 WM91503     0.0000 
     31 H           6.5453   -2.6200  -21.7008 H         1 WM91503     0.0000 
     32 H           4.3926    0.2587  -19.5609 H         1 WM91503     0.0000 
     33 H           6.4977   -3.6726  -19.8907 H         1 WM91503     0.0000 
     34 H           5.7571   -5.3357  -18.3231 H         1 WM91503     0.0000 
     35 H           3.6834   -5.0235  -17.1077 H         1 WM91503     0.0000 
     36 H           3.0605   -1.4181  -19.1424 H         1 WM91503     0.0000 
     37 H           5.9882    3.1653  -22.6883 H         1 WM91503     0.0000 
     38 H           4.4092    2.8608  -22.6827 H         1 WM91503     0.0000 
     39 H           4.9719    4.2018  -21.9961 H         1 WM91503     0.0000 
@<TRIPOS>BOND
     1    2    1 1    
     2   37    1 1    
     3   38    1 1    
     4   39    1 1    
     5    3    2 1    
     6    7    2 1    
     7    9    2 1    
     8    4    3 1    
     9   22    3 1    
    10    5    4 1    
    11    8    4 2    
    12    6    5 1    
    13   23    5 1    
    14   24    5 1    
    15    7    6 1    
    16   25    6 1    
    17   26    6 1    
    18   27    8 1    
    19   28    8 1    
    20   10    9 ar   
    21   14    9 ar   
    22   11   10 ar   
    23   29   10 1    
    24   12   11 ar   
    25   30   11 1    
    26   13   12 ar   
    27   31   12 1    
    28   14   13 ar   
    29   15   13 1    
    30   32   14 1    
    31   16   15 ar   
    32   20   15 ar   
    33   17   16 ar   
    34   33   16 1    
    35   18   17 ar   
    36   34   17 1    
    37   19   18 ar   
    38   35   18 1    
    39   20   19 ar   
    40   21   19 1    
    41   36   20 1    
@<TRIPOS>SUBSTRUCTURE
     1 WM91503     1 GROUP   
@<TRIPOS>SET

