#    Name: 1ix1_BB2_2_INTS_M
#    Modification time : Tue Mar 25 08:15:32 2014

@<TRIPOS>MOLECULE
1ix1_BB2_2_INTS_M
   63     0    12     0     0
SMALL
NO_CHARGES


@<TRIPOS>ATOM
      1 CA         49.0275   97.6055   39.9750 C.3       4 GLC5        0.0000 
      2 CA         49.2310   98.0200   38.1300 C.3      12 GLL5        0.0000 
      3 CA         48.8240   97.1910   41.8200 C.3       8 GLP5        0.0000 
      4 Zn         50.5455  100.8480   38.9590 Zn        3 ZIC7        0.0000 
      5 Zn         50.1100   99.8340   39.3510 Zn       11 ZIL7        0.0000 
      6 Zn         50.9810  101.8620   38.5670 Zn        7 ZIP7        0.0000 
      7 N          51.3180  100.1495   40.2630 N.am      2 SEC2        0.0000 
      8 N          50.1100   99.8340   39.3510 N.am     10 SEL2        0.0000 
      9 N          52.5260  100.4650   41.1750 N.am      6 SEP2        0.0000 
     10 N          49.2115  100.0235   40.3915 N.am      2 SEC2        0.0000 
     11 N          48.3130  100.2130   41.4320 N.am      6 SEP2        0.0000 
     12 O          51.9325   98.7180   36.5045 O.2       1 ALC1        0.0000 
     13 O          51.4350   99.0350   37.7160 O.2       9 ALL1        0.0000 
     14 O          52.4300   98.4010   35.2930 O.2       5 ALP1        0.0000 
     15 Zn         51.6595  100.8890   38.2505 Zn        3 ZIC7        0.0000 
     16 Zn         52.3380   99.9160   37.9340 Zn       11 ZIL7        0.0000 
     17 O          53.3415   99.5035   37.0350 O.2       1 ALC1        0.0000 
     18 O          52.3380   99.9160   37.9340 O.2       9 ALL1        0.0000 
     19 O          54.3450   99.0910   36.1360 O.2       5 ALP1        0.0000 
     20 N          47.5770   95.0735   36.9250 N.am      2 SEC2        0.0000 
     21 N          47.0880   96.3400   37.0820 N.am     10 SEL2        0.0000 
     22 N          48.0660   93.8070   36.7680 N.am      6 SEP2        0.0000 
     23 CA         50.4080   96.5775   35.6890 C.3       4 GLC5        0.0000 
     24 CA         48.9470   98.1310   35.5810 C.3      12 GLL5        0.0000 
     25 CA         51.8690   95.0240   35.7970 C.3       8 GLP5        0.0000 
     26 CA         50.0645  100.0810   35.5460 C.3       4 GLC5        0.0000 
     27 CA         51.1820  102.0310   35.5110 C.3       8 GLP5        0.0000 
     28 CA         46.8170   97.5660   32.8350 C.3       4 GLC5        0.0000 
     29 CA         46.8250   99.7080   32.8340 C.3      12 GLL5        0.0000 
     30 CA         46.8090   95.4240   32.8360 C.3       8 GLP5        0.0000 
     31 CA         44.0000  100.3135   31.7215 C.3       4 GLC5        0.0000 
     32 CA         45.4590  100.3740   32.6850 C.3      12 GLL5        0.0000 
     33 CA         42.5410  100.2530   30.7580 C.3       8 GLP5        0.0000 
     34 O          46.1815   99.9790   37.2510 O.2       1 ALC1        0.0000 
     35 O          45.9470   98.3000   37.2830 O.2       9 ALL1        0.0000 
     36 O          46.4160  101.6580   37.2190 O.2       5 ALP1        0.0000 
     37 CA         46.1750   97.2330   41.2160 C.3       4 GLC5        0.0000 
     38 CA         44.8420   97.7890   40.0650 C.3      12 GLL5        0.0000 
     39 CA         47.5080   96.6770   42.3670 C.3       8 GLP5        0.0000 
     40 CA         42.2245   97.9755   31.5315 C.3       4 GLC5        0.0000 
     41 CA         42.3630   96.6150   33.2360 C.3      12 GLL5        0.0000 
     42 CA         42.0860   99.3360   29.8270 C.3       8 GLP5        0.0000 
     43 CA         48.2488   96.8148   34.5312 C.3       4 GLC5        0.0000 
     44 CA         48.9240   99.0520   34.3400 C.3      12 GLL5        0.0000 
     45 CA         47.5620   95.0380   34.1020 C.3       8 GLP5        0.0000 
     46 CA         50.0217   97.7408   33.5678 C.3       4 GLC5        0.0000 
     47 CA         51.1080   96.8900   32.1750 C.3       8 GLP5        0.0000 
     48 CA         49.4405  100.9828   34.3160 C.3       4 GLC5        0.0000 
     49 CA         50.6170  102.5340   34.3870 C.3       8 GLP5        0.0000 
     50 CA         45.7975  101.9890   32.6138 C.3       4 GLC5        0.0000 
     51 CA         45.4530  103.9370   32.4680 C.3       8 GLP5        0.0000 
     52 CA         46.6265  100.9600   31.0802 C.3       4 GLC5        0.0000 
     53 CA         47.1110  101.8790   29.4010 C.3       8 GLP5        0.0000 
     54 CA         44.2275  100.0120   37.9793 C.3       4 GLC5        0.0000 
     55 CA         44.6070   97.7360   37.4390 C.3      12 GLL5        0.0000 
     56 CA         44.1720  102.1970   37.8250 C.3       8 GLP5        0.0000 
     57 CA         42.1208   99.0282   39.0452 C.3       4 GLC5        0.0000 
     58 CA         43.9590   97.9180   38.8280 C.3      12 GLL5        0.0000 
     59 CA         40.9660  100.4710   39.1460 C.3       8 GLP5        0.0000 
     60 CA         42.2057   99.2088   32.4890 C.3       4 GLC5        0.0000 
     61 CA         41.1770   98.4720   34.3390 C.3      12 GLL5        0.0000 
     62 CA         45.0455   95.5795   33.7270 C.3       4 GLC5        0.0000 
     63 CA         42.9830   95.4730   33.9780 C.3      12 GLL5        0.0000 
@<TRIPOS>BOND
@<TRIPOS>SUBSTRUCTURE
     1 ALC1       12 GROUP        1 X    ALC  0     ROOT ALC X 1
     2 SEC2        7 GROUP        1 X    SEC  0     **** SEC X 2
     3 ZIC7        4 GROUP        1 X    ZIC  0     **** ZIC X 5
     4 GLC5        1 GROUP        1 X    GLC  0     **** GLC X 6
     5 ALP1       14 GROUP        1 Y    ALP  0     ROOT ALP Y 8
     6 SEP2        9 GROUP        1 Y    SEP  0     **** SEP Y 9
     7 ZIP7        6 GROUP        1 Y    ZIP  0     **** ZIP Y 12
     8 GLP5        3 GROUP        1 Y    GLP  0     **** GLP Y 13
     9 ALL1       13 GROUP        1 Z    ALL  0     ROOT ALL Z 15
    10 SEL2        8 GROUP        1 Z    SEL  0     **** SEL Z 16
    11 ZIL7        5 GROUP        1 Z    ZIL  0     **** ZIL Z 19
    12 GLL5        2 GROUP        1 Z    GLL  0     **** GLL Z 20
@<TRIPOS>SET

