#    Name: 1ix1_BB2_2_ligand
#    Modification time : Tue Mar 25 08:15:32 2014

@<TRIPOS>MOLECULE
1ix1_BB2_2_ligand
   62    62     1     0     0
SMALL
NO_CHARGES


@<TRIPOS>ATOM
      1 C5         49.2310   98.0200   38.1300 C.3       1 BB22301     0.0000 
      2 C3         50.3200   99.0340   38.4420 C.2       1 BB22301     0.0000 
      3 O4         50.1100   99.8340   39.3510 O.2       1 BB22301     0.0000 
      4 N1         51.4350   99.0350   37.7160 N.am      1 BB22301     0.0000 
      5 O2         52.3380   99.9160   37.9340 O.3       1 BB22301     0.0000 
      6 C6         48.3150   98.4500   36.9540 C.3       1 BB22301     0.0000 
      7 C12        47.0580   97.5780   37.1060 C.2       1 BB22301     0.0000 
      8 O13        47.0880   96.3400   37.0820 O.2       1 BB22301     0.0000 
      9 C7         48.9470   98.1310   35.5810 C.3       1 BB22301     0.0000 
     10 C8         48.9240   99.0520   34.3400 C.3       1 BB22301     0.0000 
     11 C9         47.6040   99.8110   34.1500 C.3       1 BB22301     0.0000 
     12 C10        46.8250   99.7080   32.8340 C.3       1 BB22301     0.0000 
     13 C11        45.4590  100.3740   32.6850 C.3       1 BB22301     0.0000 
     14 N14        45.9470   98.3000   37.2830 N.am      1 BB22301     0.0000 
     15 C15        44.6070   97.7360   37.4390 C.3       1 BB22301     0.0000 
     16 C16        43.9590   97.9180   38.8280 C.3       1 BB22301     0.0000 
     17 C18        44.8420   97.7890   40.0650 C.3       1 BB22301     0.0000 
     18 C17        42.5920   97.2530   39.0610 C.3       1 BB22301     0.0000 
     19 C19        43.7390   98.2630   36.3050 C.2       1 BB22301     0.0000 
     20 O20        43.5360   99.4750   36.3220 O.2       1 BB22301     0.0000 
     21 N21        43.3130   97.4550   35.3030 N.am      1 BB22301     0.0000 
     22 C22        42.5640   97.8570   34.1010 C.3       1 BB22301     0.0000 
     23 C23        43.5810   95.9970   35.2580 C.3       1 BB22301     0.0000 
     24 C24        42.9830   95.4730   33.9780 C.3       1 BB22301     0.0000 
     25 C25        42.3630   96.6150   33.2360 C.3       1 BB22301     0.0000 
     26 C26        41.1770   98.4720   34.3390 C.3       1 BB22301     0.0000 
     27 O27        41.0690   99.6400   34.7510 O.3       1 BB22301     0.0000 
     28 H          48.6045   97.8686   39.0180 H         1 BB22301     0.0000 
     29 H          49.6887   97.0556   37.8762 H         1 BB22301     0.0000 
     30 H          51.5532   98.3003   36.9662 H         1 BB22301     0.0000 
     31 H          48.0603   99.4504   37.0377 H         1 BB22301     0.0000 
     32 H          48.5325   97.1053   35.2480 H         1 BB22301     0.0000 
     33 H          50.0513   97.8516   35.7737 H         1 BB22301     0.0000 
     34 H          49.1188   98.4414   33.4461 H         1 BB22301     0.0000 
     35 H          49.7461   99.7777   34.4262 H         1 BB22301     0.0000 
     36 H          47.7999  100.9071   34.3553 H         1 BB22301     0.0000 
     37 H          46.9077   99.5150   34.9923 H         1 BB22301     0.0000 
     38 H          46.7098   98.6094   32.5834 H         1 BB22301     0.0000 
     39 H          47.4943  100.0886   32.0033 H         1 BB22301     0.0000 
     40 H          45.9875   99.3579   37.3200 H         1 BB22301     0.0000 
     41 H          44.6817   96.6268   37.2628 H         1 BB22301     0.0000 
     42 H          43.6673   99.0816   38.8460 H         1 BB22301     0.0000 
     43 H          43.1481   98.5550   33.5036 H         1 BB22301     0.0000 
     44 H          43.1163   95.5029   36.1000 H         1 BB22301     0.0000 
     45 H          44.6459   95.8100   35.2597 H         1 BB22301     0.0000 
     46 H          42.2271   94.7290   34.2096 H         1 BB22301     0.0000 
     47 H          43.7623   95.0193   33.3736 H         1 BB22301     0.0000 
     48 H          42.8553   96.7594   32.2914 H         1 BB22301     0.0000 
     49 H          41.3101   96.4461   33.1003 H         1 BB22301     0.0000 
     50 H          40.6454   97.6757   35.0069 H         1 BB22301     0.0000 
     51 H          40.6189   98.2629   33.3352 H         1 BB22301     0.0000 
     52 H          45.5104  101.3626   32.8262 H         1 BB22301     0.0000 
     53 H          45.0718  100.2277   31.7747 H         1 BB22301     0.0000 
     54 H          44.7980  100.0176   33.3454 H         1 BB22301     0.0000 
     55 H          45.2662   96.8855   40.1259 H         1 BB22301     0.0000 
     56 H          45.5825   98.4611   40.0644 H         1 BB22301     0.0000 
     57 H          44.3223   97.9262   40.9082 H         1 BB22301     0.0000 
     58 H          42.6371   96.2608   38.9449 H         1 BB22301     0.0000 
     59 H          42.2479   97.4248   39.9841 H         1 BB22301     0.0000 
     60 H          41.9006   97.5916   38.4228 H         1 BB22301     0.0000 
     61 H          53.1214   99.6248   37.3849 H         1 BB22301     0.0000 
     62 H          41.8563   99.7760   35.3524 H         1 BB22301     0.0000 
@<TRIPOS>BOND
     1    2    1 1    
     2    6    1 1    
     3   28    1 1    
     4   29    1 1    
     5    3    2 2    
     6    4    2 am   
     7    5    4 1    
     8   30    4 1    
     9   61    5 1    
    10    7    6 1    
    11    9    6 1    
    12   31    6 1    
    13    8    7 2    
    14   14    7 am   
    15   10    9 1    
    16   32    9 1    
    17   33    9 1    
    18   11   10 1    
    19   34   10 1    
    20   35   10 1    
    21   12   11 1    
    22   36   11 1    
    23   37   11 1    
    24   13   12 1    
    25   38   12 1    
    26   39   12 1    
    27   52   13 1    
    28   53   13 1    
    29   54   13 1    
    30   15   14 1    
    31   40   14 1    
    32   16   15 1    
    33   19   15 1    
    34   41   15 1    
    35   17   16 1    
    36   18   16 1    
    37   42   16 1    
    38   55   17 1    
    39   56   17 1    
    40   57   17 1    
    41   58   18 1    
    42   59   18 1    
    43   60   18 1    
    44   20   19 2    
    45   21   19 am   
    46   22   21 1    
    47   23   21 1    
    48   25   22 1    
    49   26   22 1    
    50   43   22 1    
    51   24   23 1    
    52   44   23 1    
    53   45   23 1    
    54   25   24 1    
    55   46   24 1    
    56   47   24 1    
    57   48   25 1    
    58   49   25 1    
    59   27   26 1    
    60   50   26 1    
    61   51   26 1    
    62   62   27 1    
@<TRIPOS>SUBSTRUCTURE
     1 BB22301     1 GROUP   
@<TRIPOS>SET

