#    Name: 3qge_26F_3_INTS_M
#    Modification time : Tue Mar 25 09:44:42 2014

@<TRIPOS>MOLECULE
3qge_26F_3_INTS_M
  104     0     9     0     0
SMALL
NO_CHARGES


@<TRIPOS>ATOM
      1 CA         19.3860    6.8785   69.9165 C.3       3 GLC5        0.0000 
      2 CA         20.1110    6.3040   71.8560 C.3       9 GLL5        0.0000 
      3 CA         18.6610    7.4530   67.9770 C.3       6 GLP5        0.0000 
      4 CA         18.3365    7.2990   71.4385 C.3       3 GLC5        0.0000 
      5 CA         16.5620    8.2940   71.0210 C.3       6 GLP5        0.0000 
      6 CA         18.0230    7.9360   72.8535 C.3       3 GLC5        0.0000 
      7 CA         19.7430    7.1120   72.9590 C.3       9 GLL5        0.0000 
      8 CA         16.3030    8.7600   72.7480 C.3       6 GLP5        0.0000 
      9 CA         26.1745    0.9145   77.1035 C.3       3 GLC5        0.0000 
     10 CA         26.2150    0.5230   75.2260 C.3       9 GLL5        0.0000 
     11 CA         26.1340    1.3060   78.9810 C.3       6 GLP5        0.0000 
     12 CA         19.8950    0.5580   70.2495 C.3       3 GLC5        0.0000 
     13 CA         21.6750    0.0390   69.1390 C.3       9 GLL5        0.0000 
     14 CA         18.1150    1.0770   71.3600 C.3       6 GLP5        0.0000 
     15 CA         22.5435    1.9525   67.4540 C.3       3 GLC5        0.0000 
     16 CA         23.0510    0.3210   68.9010 C.3       9 GLL5        0.0000 
     17 CA         22.0360    3.5840   66.0070 C.3       6 GLP5        0.0000 
     18 CA         21.4440    1.7040   67.0035 C.3       3 GLC5        0.0000 
     19 CA         20.8520   -0.1760   68.0000 C.3       9 GLL5        0.0000 
     20 CA         19.6485   -1.6360   68.9140 C.3       3 GLC5        0.0000 
     21 CA         18.4450   -3.0960   69.8280 C.3       6 GLP5        0.0000 
     22 CA         22.3505    1.8355   66.3040 C.3       3 GLC5        0.0000 
     23 CA         22.6650    0.0870   66.6010 C.3       9 GLL5        0.0000 
     24 CA         24.7965   -0.8630   71.9810 C.3       3 GLC5        0.0000 
     25 CA         23.7170    0.8060   71.2950 C.3       9 GLL5        0.0000 
     26 CA         25.8760   -2.5320   72.6670 C.3       6 GLP5        0.0000 
     27 CA         19.8915    9.7800   73.5945 C.3       3 GLC5        0.0000 
     28 CA         18.8920    8.5770   75.1340 C.3       9 GLL5        0.0000 
     29 CA         20.8910   10.9830   72.0550 C.3       6 GLP5        0.0000 
     30 CA         17.5975    8.6685   73.9410 C.3       3 GLC5        0.0000 
     31 CA         18.0280    9.9330   76.1175 C.3       3 GLC5        0.0000 
     32 CA         17.1640   11.2890   77.1010 C.3       6 GLP5        0.0000 
     33 CA         19.9020    9.8105   75.5200 C.3       3 GLC5        0.0000 
     34 CA         20.9120   11.0440   75.9060 C.3       6 GLP5        0.0000 
     35 CA         18.3110    1.2760   67.1945 C.3       3 GLC5        0.0000 
     36 CA         18.6800   -0.6860   67.1000 C.3       9 GLL5        0.0000 
     37 CA         17.9420    3.2380   67.2890 C.3       6 GLP5        0.0000 
     38 CA         17.7110   -0.7730   65.6320 C.3       3 GLC5        0.0000 
     39 CA         16.7420   -0.8600   64.1640 C.3       6 GLP5        0.0000 
     40 CA         18.5625   -1.8910   68.4640 C.3       3 GLC5        0.0000 
     41 CA         18.2400   -2.4430   66.3050 C.3       3 GLC5        0.0000 
     42 CA         17.8000   -4.2000   65.5100 C.3       6 GLP5        0.0000 
     43 CA         23.2940    1.9985   65.5890 C.3       3 GLC5        0.0000 
     44 CA         24.5520    0.4130   65.1710 C.3       9 GLL5        0.0000 
     45 CA         25.4955   -1.2935   65.2825 C.3       3 GLC5        0.0000 
     46 CA         26.4390   -3.0000   65.3940 C.3       6 GLP5        0.0000 
     47 CA         21.0825    4.3850   69.0755 C.3       3 GLC5        0.0000 
     48 CA         21.8980    5.3530   70.3460 C.3       9 GLL5        0.0000 
     49 CA         20.2670    3.4170   67.8050 C.3       6 GLP5        0.0000 
     50 N          24.8835   -0.5605   70.7945 N.am      2 SEC2        0.0000 
     51 N          24.0020    0.4390   69.8880 N.am      8 SEL2        0.0000 
     52 N          25.7650   -1.5600   71.7010 N.am      5 SEP2        0.0000 
     53 O          24.0510    5.4070   70.5620 O.2       1 ALC1        0.0000 
     54 O          22.8420    4.3420   70.7670 O.2       7 ALL1        0.0000 
     55 O          25.2600    6.4720   70.3570 O.2       4 ALP1        0.0000 
     56 N          18.9890   -1.1135   69.3570 N.am      2 SEC2        0.0000 
     57 N          19.5140   -0.4130   68.2120 N.am      8 SEL2        0.0000 
     58 N          18.4640   -1.8140   70.5020 N.am      5 SEP2        0.0000 
     59 CA         28.9110    1.3245   76.6935 C.3       3 GLC5        0.0000 
     60 CA         29.4960   -0.5260   76.3550 C.3       9 GLL5        0.0000 
     61 CA         28.3260    3.1750   77.0320 C.3       6 GLP5        0.0000 
     62 CA         31.1550   -0.3470   75.6270 C.3       3 GLC5        0.0000 
     63 CA         32.8140   -0.1680   74.8990 C.3       6 GLP5        0.0000 
     64 CA         27.5140   -1.9905   78.8825 C.3       3 GLC5        0.0000 
     65 CA         28.8290   -2.4860   77.1580 C.3       9 GLL5        0.0000 
     66 CA         26.1990   -1.4950   80.6070 C.3       6 GLP5        0.0000 
     67 CA         29.9835   -2.4205   78.6895 C.3       3 GLC5        0.0000 
     68 CA         31.1380   -2.3550   80.2210 C.3       6 GLP5        0.0000 
     69 CA         23.6547    8.2285   73.8468 C.3       3 GLC5        0.0000 
     70 CA         22.0950    7.7130   73.3680 C.3       9 GLL5        0.0000 
     71 CA         25.0340    9.1480   74.8760 C.3       6 GLP5        0.0000 
     72 CA         21.5832    9.1460   72.4363 C.3       3 GLC5        0.0000 
     73 CA         20.5617    9.2242   72.7007 C.3       3 GLC5        0.0000 
     74 CA         20.7220    7.8190   73.7340 C.3       9 GLL5        0.0000 
     75 CA         21.1602    9.4050   74.7285 C.3       3 GLC5        0.0000 
     76 CA         24.7233    2.3138   75.6033 C.3       3 GLC5        0.0000 
     77 CA         25.9040    1.6380   74.4210 C.3       9 GLL5        0.0000 
     78 CA         23.3870    3.5470   76.3830 C.3       6 GLP5        0.0000 
     79 CA         22.6945   -1.6870   69.6940 C.3       3 GLC5        0.0000 
     80 CA         23.0260   -3.5540   70.3680 C.3       6 GLP5        0.0000 
     81 CA         25.1819   -0.1519   75.7706 C.3       3 GLC5        0.0000 
     82 CA         23.6980   -0.6790   76.6870 C.3       6 GLP5        0.0000 
     83 CA         27.4959    1.7751   75.9431 C.3       3 GLC5        0.0000 
     84 CA         28.4276    2.4531   74.1634 C.3       3 GLC5        0.0000 
     85 CA         26.6700    1.8850   73.2650 C.3       9 GLL5        0.0000 
     86 CA         29.5710    3.7110   75.0370 C.3       6 GLP5        0.0000 
     87 CA         22.8357    1.2612   72.9857 C.3       3 GLC5        0.0000 
     88 CA         23.8720    2.2970   71.6180 C.3       9 GLL5        0.0000 
     89 CA         21.8770    0.9710   74.5150 C.3       6 GLP5        0.0000 
     90 CA         27.9602   -3.2637   77.6990 C.3       3 GLC5        0.0000 
     91 CA         28.7840   -1.6570   76.0940 C.3       9 GLL5        0.0000 
     92 CA         27.1140   -4.4560   78.7720 C.3       6 GLP5        0.0000 
     93 CA         29.6595   -0.2243   77.7528 C.3       3 GLC5        0.0000 
     94 CA         30.1790    0.6430   79.2810 C.3       6 GLP5        0.0000 
     95 CA         30.9022   -1.7822   74.9613 C.3       3 GLC5        0.0000 
     96 CA         32.6900   -1.5930   74.3340 C.3       6 GLP5        0.0000 
     97 CA         28.1484   -3.2134   74.7963 C.3       3 GLC5        0.0000 
     98 CA         29.4450   -2.2860   75.0830 C.3       9 GLL5        0.0000 
     99 CA         27.1710   -4.2480   73.7380 C.3       6 GLP5        0.0000 
    100 CA         30.0814   -3.8329   75.9083 C.3       3 GLC5        0.0000 
    101 CA         31.0370   -5.4870   75.9620 C.3       6 GLP5        0.0000 
    102 CA         21.7487    5.7991   73.9267 C.3       3 GLC5        0.0000 
    103 CA         21.4730    6.2090   71.5110 C.3       9 GLL5        0.0000 
    104 CA         22.3980    4.5870   75.2360 C.3       6 GLP5        0.0000 
@<TRIPOS>BOND
@<TRIPOS>SUBSTRUCTURE
     1 ALC1       53 GROUP        1 X    ALC  0     ROOT ALC X 1
     2 SEC2       50 GROUP        1 X    SEC  0     **** SEC X 2
     3 GLC5        1 GROUP        1 X    GLC  0     **** GLC X 6
     4 ALP1       55 GROUP        1 Y    ALP  0     ROOT ALP Y 8
     5 SEP2       52 GROUP        1 Y    SEP  0     **** SEP Y 9
     6 GLP5        3 GROUP        1 Y    GLP  0     **** GLP Y 13
     7 ALL1       54 GROUP        1 Z    ALL  0     ROOT ALL Z 15
     8 SEL2       51 GROUP        1 Z    SEL  0     **** SEL Z 16
     9 GLL5        2 GROUP        1 Z    GLL  0     **** GLL Z 20
@<TRIPOS>SET

