#    Name: 3qge_26F_3_ligand
#    Modification time : Tue Mar 25 09:44:42 2014

@<TRIPOS>MOLECULE
3qge_26F_3_ligand
   70    73     1     0     0
SMALL
NO_CHARGES


@<TRIPOS>ATOM
      1 C1         20.1110    6.3040   71.8560 C.ar      1 26F602      0.0000 
      2 C2         22.4560    6.9050   72.2670 C.ar      1 26F602      0.0000 
      3 C3         19.7430    7.1120   72.9590 C.ar      1 26F602      0.0000 
      4 C4         22.0950    7.7130   73.3680 C.ar      1 26F602      0.0000 
      5 C5         28.0470   -0.0490   73.7180 C.ar      1 26F602      0.0000 
      6 C6         26.2150    0.5230   75.2260 C.ar      1 26F602      0.0000 
      7 C7         27.7500    1.0600   72.9110 C.ar      1 26F602      0.0000 
      8 C8         25.9040    1.6380   74.4210 C.ar      1 26F602      0.0000 
      9 C9         21.6750    0.0390   69.1390 C.ar      1 26F602      0.0000 
     10 C10        21.4730    6.2090   71.5110 C.ar      1 26F602      0.0000 
     11 C11        20.7220    7.8190   73.7340 C.ar      1 26F602      0.0000 
     12 C12        27.2720   -0.3300   74.8850 C.ar      1 26F602      0.0000 
     13 C13        26.6700    1.8850   73.2650 C.ar      1 26F602      0.0000 
     14 C14        23.0510    0.3210   68.9010 C.ar      1 26F602      0.0000 
     15 C15        20.8520   -0.1760   68.0000 C.ar      1 26F602      0.0000 
     16 C16        22.6650    0.0870   66.6010 C.ar      1 26F602      0.0000 
     17 C17        22.6190    3.1050   71.2600 C.2       1 26F602      0.0000 
     18 C18        25.3990    0.7810   69.6280 C.3       1 26F602      0.0000 
     19 C19        25.6730    2.2760   69.8180 C.3       1 26F602      0.0000 
     20 C20        23.7170    0.8060   71.2950 C.3       1 26F602      0.0000 
     21 C21        23.8720    2.2970   71.6180 C.3       1 26F602      0.0000 
     22 C22        18.8920    8.5770   75.1340 C.3       1 26F602      0.0000 
     23 C23        18.6800   -0.6860   67.1000 C.3       1 26F602      0.0000 
     24 C24        24.5520    0.4130   65.1710 C.3       1 26F602      0.0000 
     25 C25        21.8980    5.3530   70.3460 C.3       1 26F602      0.0000 
     26 C26        28.7840   -1.6570   76.0940 C.3       1 26F602      0.0000 
     27 N27        23.5150    0.3120   67.6210 N.ar      1 26F602      0.0000 
     28 N28        21.3490   -0.1580   66.7190 N.ar      1 26F602      0.0000 
     29 N29        24.0020    0.4390   69.8880 N.3       1 26F602      0.0000 
     30 N30        25.1390    2.8310   71.0870 N.pl3     1 26F602      0.0000 
     31 N31        22.8420    4.3420   70.7670 N.am      1 26F602      0.0000 
     32 O32        21.5090    2.5860   71.4340 O.2       1 26F602      0.0000 
     33 O33        27.5160    3.7210   71.6020 O.2       1 26F602      0.0000 
     34 O34        25.5640    4.2130   73.2020 O.2       1 26F602      0.0000 
     35 O35        20.2760    8.5760   74.8030 O.3       1 26F602      0.0000 
     36 O36        27.4940   -1.3760   75.7410 O.3       1 26F602      0.0000 
     37 O37        19.5140   -0.4130   68.2120 O.3       1 26F602      0.0000 
     38 O38        23.1580    0.1160   65.3390 O.3       1 26F602      0.0000 
     39 F39        29.4960   -0.5260   76.3550 F         1 26F602      0.0000 
     40 F40        28.8290   -2.4860   77.1580 F         1 26F602      0.0000 
     41 F41        29.4450   -2.2860   75.0830 F         1 26F602      0.0000 
     42 S42        26.2760    3.3030   72.2880 S.o2      1 26F602      0.0000 
     43 H          19.4060    5.8056   71.3278 H         1 26F602      0.0000 
     44 H          23.4457    6.8159   72.0044 H         1 26F602      0.0000 
     45 H          18.7514    7.1996   73.2176 H         1 26F602      0.0000 
     46 H          22.8008    8.2142   73.8955 H         1 26F602      0.0000 
     47 H          28.8255   -0.6704   73.4773 H         1 26F602      0.0000 
     48 H          25.6584    0.3381   76.0699 H         1 26F602      0.0000 
     49 H          28.3058    1.2628   72.0856 H         1 26F602      0.0000 
     50 H          25.1369    2.2552   74.6721 H         1 26F602      0.0000 
     51 H          21.3068   -0.0053   70.0641 H         1 26F602      0.0000 
     52 H          26.0692    0.2245   70.3025 H         1 26F602      0.0000 
     53 H          25.6814    0.5122   68.5976 H         1 26F602      0.0000 
     54 H          25.2389    2.8178   68.9558 H         1 26F602      0.0000 
     55 H          26.7673    2.4347   69.7665 H         1 26F602      0.0000 
     56 H          22.6819    0.5038   71.5635 H         1 26F602      0.0000 
     57 H          24.3840    0.2371   71.9778 H         1 26F602      0.0000 
     58 H          23.9462    2.3371   72.7552 H         1 26F602      0.0000 
     59 H          22.3389    6.0056   69.5772 H         1 26F602      0.0000 
     60 H          21.0000    4.8926   69.9065 H         1 26F602      0.0000 
     61 H          23.8859    4.6592   70.6564 H         1 26F602      0.0000 
     62 H          18.5631    7.6596   75.3581 H         1 26F602      0.0000 
     63 H          18.6996    9.1586   75.9244 H         1 26F602      0.0000 
     64 H          18.3297    8.9136   74.3786 H         1 26F602      0.0000 
     65 H          18.6760    0.0692   66.4445 H         1 26F602      0.0000 
     66 H          18.9769   -1.5024   66.6047 H         1 26F602      0.0000 
     67 H          17.7312   -0.8395   67.3762 H         1 26F602      0.0000 
     68 H          25.1328   -0.2557   65.6353 H         1 26F602      0.0000 
     69 H          24.8182    0.4132   64.2071 H         1 26F602      0.0000 
     70 H          24.7873    1.3121   65.5402 H         1 26F602      0.0000 
@<TRIPOS>BOND
     1    3    1 ar   
     2   10    1 ar   
     3   43    1 1    
     4    4    2 ar   
     5   10    2 ar   
     6   44    2 1    
     7   11    3 ar   
     8   45    3 1    
     9   11    4 ar   
    10   46    4 1    
    11    7    5 ar   
    12   12    5 ar   
    13   47    5 1    
    14    8    6 ar   
    15   12    6 ar   
    16   48    6 1    
    17   13    7 ar   
    18   49    7 1    
    19   13    8 ar   
    20   50    8 1    
    21   14    9 ar   
    22   15    9 ar   
    23   51    9 1    
    24   25   10 1    
    25   35   11 1    
    26   36   12 1    
    27   42   13 1    
    28   27   14 ar   
    29   29   14 1    
    30   28   15 ar   
    31   37   15 1    
    32   27   16 ar   
    33   28   16 ar   
    34   38   16 1    
    35   21   17 1    
    36   31   17 am   
    37   32   17 2    
    38   19   18 1    
    39   29   18 1    
    40   52   18 1    
    41   53   18 1    
    42   30   19 1    
    43   54   19 1    
    44   55   19 1    
    45   21   20 1    
    46   29   20 1    
    47   56   20 1    
    48   57   20 1    
    49   30   21 1    
    50   58   21 1    
    51   35   22 1    
    52   62   22 1    
    53   63   22 1    
    54   64   22 1    
    55   37   23 1    
    56   65   23 1    
    57   66   23 1    
    58   67   23 1    
    59   38   24 1    
    60   68   24 1    
    61   69   24 1    
    62   70   24 1    
    63   31   25 1    
    64   59   25 1    
    65   60   25 1    
    66   36   26 1    
    67   39   26 1    
    68   40   26 1    
    69   41   26 1    
    70   42   30 1    
    71   61   31 1    
    72   42   33 2    
    73   42   34 2    
@<TRIPOS>SUBSTRUCTURE
     1 26F602      1 GROUP   
@<TRIPOS>SET

