#    Name: 1l5m_7RA_1_INTS_M
#    Modification time : Mon Apr  7 13:57:28 2014

@<TRIPOS>MOLECULE
1l5m_7RA_1_INTS_M
   47     0     9     0     0
SMALL
NO_CHARGES


@<TRIPOS>ATOM
      1 CA         57.4605   40.3625   14.6340 C.3       3 GLC5        0.0000 
      2 CA         57.4670   42.2190   13.6950 C.3       9 GLL5        0.0000 
      3 CA         57.4540   38.5060   15.5730 C.3       6 GLP5        0.0000 
      4 CA         55.6740   43.1805   13.5875 C.3       3 GLC5        0.0000 
      5 CA         53.8810   44.1420   13.4800 C.3       6 GLP5        0.0000 
      6 CA         58.6970   42.7365    9.6765 C.3       3 GLC5        0.0000 
      7 CA         58.7840   42.2420   11.6450 C.3       9 GLL5        0.0000 
      8 CA         58.6100   43.2310    7.7080 C.3       6 GLP5        0.0000 
      9 CA         61.2280   42.7225   14.0540 C.3       3 GLC5        0.0000 
     10 CA         59.4320   43.4870   13.6030 C.3       9 GLL5        0.0000 
     11 CA         63.0240   41.9580   14.5050 C.3       6 GLP5        0.0000 
     12 CA         59.8100   42.6315   15.4845 C.3       3 GLC5        0.0000 
     13 CA         60.1880   41.7760   17.3660 C.3       6 GLP5        0.0000 
     14 N          58.3630   43.2195   15.8260 N.am      2 SEC2        0.0000 
     15 N          58.3480   43.0580   14.3140 N.am      8 SEL2        0.0000 
     16 N          58.3780   43.3810   17.3380 N.am      5 SEP2        0.0000 
     17 N          58.3375   36.8710    5.2795 N.am      2 SEC2        0.0000 
     18 N          59.1720   38.1860    5.4050 N.am      8 SEL2        0.0000 
     19 N          57.5030   35.5560    5.1540 N.am      5 SEP2        0.0000 
     20 N          58.2695   38.0830    4.4135 N.am      2 SEC2        0.0000 
     21 N          57.3670   37.9800    3.4220 N.am      5 SEP2        0.0000 
     22 N          58.6650   41.6570    5.4050 N.am      2 SEC2        0.0000 
     23 N          59.6340   40.6170    5.3180 N.am      8 SEL2        0.0000 
     24 N          57.6960   42.6970    5.4920 N.am      5 SEP2        0.0000 
     25 N          61.1470   38.0735    7.3065 N.am      2 SEC2        0.0000 
     26 N          60.5840   39.2580    7.0720 N.am      8 SEL2        0.0000 
     27 N          61.7100   36.8890    7.5410 N.am      5 SEP2        0.0000 
     28 N          57.8840   41.2090    6.2750 N.am      2 SEC2        0.0000 
     29 N          58.0720   39.7210    7.0580 N.am      8 SEL2        0.0000 
     30 CA         56.5960   38.3210    6.5450 C.3       3 GLC5        0.0000 
     31 CA         57.5600   38.7240    7.9780 C.3       9 GLL5        0.0000 
     32 CA         55.6320   37.9180    5.1120 C.3       6 GLP5        0.0000 
     33 CA         58.2675   41.1755    8.5480 C.3       3 GLC5        0.0000 
     34 CA         57.9250   39.1200    9.3880 C.3       9 GLL5        0.0000 
     35 CA         58.7345   36.5505   11.3065 C.3       3 GLC5        0.0000 
     36 CA         57.4630   38.1810   10.5040 C.3       9 GLL5        0.0000 
     37 CA         60.0060   34.9200   12.1090 C.3       6 GLP5        0.0000 
     38 CA         59.2725   38.7655   11.5980 C.3       3 GLC5        0.0000 
     39 CA         61.0820   39.3500   12.6920 C.3       6 GLP5        0.0000 
     40 N          58.5855   36.8945   12.2175 N.am      2 SEC2        0.0000 
     41 N          58.3000   38.2360   11.6690 N.am      8 SEL2        0.0000 
     42 N          58.8710   35.5530   12.7660 N.am      5 SEP2        0.0000 
     43 O          55.1640   37.0775   11.7300 O.2       1 ALC1        0.0000 
     44 O          55.5570   38.2820   12.0170 O.2       7 ALL1        0.0000 
     45 O          54.7710   35.8730   11.4430 O.2       4 ALP1        0.0000 
     46 CA         59.6462   40.6815   12.3495 C.3       3 GLC5        0.0000 
     47 CA         57.6370   41.7840   12.3690 C.3       9 GLL5        0.0000 
@<TRIPOS>BOND
@<TRIPOS>SUBSTRUCTURE
     1 ALC1       43 GROUP        1 X    ALC  0     ROOT ALC X 1
     2 SEC2       14 GROUP        1 X    SEC  0     **** SEC X 2
     3 GLC5        1 GROUP        1 X    GLC  0     **** GLC X 6
     4 ALP1       45 GROUP        1 Y    ALP  0     ROOT ALP Y 8
     5 SEP2       16 GROUP        1 Y    SEP  0     **** SEP Y 9
     6 GLP5        3 GROUP        1 Y    GLP  0     **** GLP Y 13
     7 ALL1       44 GROUP        1 Z    ALL  0     ROOT ALL Z 15
     8 SEL2       15 GROUP        1 Z    SEL  0     **** SEL Z 16
     9 GLL5        2 GROUP        1 Z    GLL  0     **** GLL Z 20
@<TRIPOS>SET

