#    Name: 1l5m_7RA_1_ligand
#    Modification time : Mon Apr  7 13:57:28 2014

@<TRIPOS>MOLECULE
1l5m_7RA_1_ligand
   35    37     1     0     0
SMALL
NO_CHARGES


@<TRIPOS>ATOM
      1 C4         57.4670   42.2190   13.6950 C.ar      1 7RA990      0.0000 
      2 C5         57.6370   41.7840   12.3690 C.ar      1 7RA990      0.0000 
      3 C6         58.7840   42.2420   11.6450 C.ar      1 7RA990      0.0000 
      4 N1         59.6460   43.0890   12.3010 N.ar      1 7RA990      0.0000 
      5 C2         59.4320   43.4870   13.6030 C.ar      1 7RA990      0.0000 
      6 N3         58.3480   43.0580   14.3140 N.ar      1 7RA990      0.0000 
      7 N9         56.3410   41.6650   14.1380 N.2       1 7RA990      0.0000 
      8 C8         55.8280   40.9360   13.1480 C.2       1 7RA990      0.0000 
      9 N7         56.5900   40.9610   12.0320 N.pl3     1 7RA990      0.0000 
     10 N10        60.3380   44.3490   14.2150 N.pl3     1 7RA990      0.0000 
     11 P          59.4020   39.4460    6.1920 P.3       1 7RA990      0.0000 
     12 O1P        59.1720   38.1860    5.4050 O.co2     1 7RA990      0.0000 
     13 O2P        59.6340   40.6170    5.3180 O.co2     1 7RA990      0.0000 
     14 O3P        60.5840   39.2580    7.0720 O.co2     1 7RA990      0.0000 
     15 O5'        58.0720   39.7210    7.0580 O.3       1 7RA990      0.0000 
     16 C5'        57.5600   38.7240    7.9780 C.3       1 7RA990      0.0000 
     17 C4'        57.9250   39.1200    9.3880 C.3       1 7RA990      0.0000 
     18 O4'        57.3510   40.4210    9.7870 O.3       1 7RA990      0.0000 
     19 C3'        57.4630   38.1810   10.5040 C.3       1 7RA990      0.0000 
     20 O3'        58.3000   38.2360   11.6690 O.3       1 7RA990      0.0000 
     21 C2'        56.0890   38.7450   10.7710 C.3       1 7RA990      0.0000 
     22 O2'        55.5570   38.2820   12.0170 O.3       1 7RA990      0.0000 
     23 C1'        56.2870   40.2540   10.6940 C.3       1 7RA990      0.0000 
     24 H          58.9294   41.9413   10.6970 H         1 7RA990      0.0000 
     25 H          54.9757   40.4241   13.2129 H         1 7RA990      0.0000 
     26 H          60.1433   44.5892   15.1660 H         1 7RA990      0.0000 
     27 H          61.1054   44.6537   13.6508 H         1 7RA990      0.0000 
     28 H          57.9890   37.7411    7.7695 H         1 7RA990      0.0000 
     29 H          56.4725   38.6473    7.9075 H         1 7RA990      0.0000 
     30 H          59.0166   39.2048    9.4817 H         1 7RA990      0.0000 
     31 H          57.3484   37.2147   10.0883 H         1 7RA990      0.0000 
     32 H          55.4631   38.4625    9.9265 H         1 7RA990      0.0000 
     33 H          55.3761   40.6826   10.2738 H         1 7RA990      0.0000 
     34 H          57.6899   38.5078   12.4133 H         1 7RA990      0.0000 
     35 H          55.6744   37.2892   11.9955 H         1 7RA990      0.0000 
@<TRIPOS>BOND
     1    2    1 ar   
     2    6    1 ar   
     3    7    1 1    
     4    3    2 ar   
     5    9    2 1    
     6    4    3 ar   
     7   24    3 1    
     8    5    4 ar   
     9    6    5 ar   
    10   10    5 1    
    11    8    7 2    
    12    9    8 1    
    13   25    8 1    
    14   23    9 1    
    15   26   10 1    
    16   27   10 1    
    17   12   11 ar   
    18   13   11 ar   
    19   14   11 ar   
    20   15   11 1    
    21   16   15 1    
    22   17   16 1    
    23   28   16 1    
    24   29   16 1    
    25   18   17 1    
    26   19   17 1    
    27   30   17 1    
    28   23   18 1    
    29   20   19 1    
    30   21   19 1    
    31   31   19 1    
    32   34   20 1    
    33   22   21 1    
    34   23   21 1    
    35   32   21 1    
    36   35   22 1    
    37   33   23 1    
@<TRIPOS>SUBSTRUCTURE
     1 7RA990      1 GROUP   
@<TRIPOS>SET

