#    Name: 1y91_CT9_1_INTS_M
#    Modification time : Tue Mar 25 10:53:07 2014

@<TRIPOS>MOLECULE
1y91_CT9_1_INTS_M
   84     0    12     0     0
SMALL
NO_CHARGES


@<TRIPOS>ATOM
      1 OD1        -3.8030   62.9335   14.0830 O.co2     3 ASC3        0.0000 
      2 OD1        -2.6880   61.9650   14.0510 O.co2    11 ASL3        0.0000 
      3 OD1        -4.9180   63.9020   14.1150 O.co2     7 ASP3        0.0000 
      4 O          -1.8700   62.6560   14.8920 O.2       1 ALC1        0.0000 
      5 O          -2.6880   61.9650   14.0510 O.2       9 ALL1        0.0000 
      6 O          -1.0520   63.3470   15.7330 O.2       5 ALP1        0.0000 
      7 O          -3.8030   62.9335   14.0830 O.2       1 ALC1        0.0000 
      8 O          -4.9180   63.9020   14.1150 O.2       5 ALP1        0.0000 
      9 CA          8.2345   58.7880    8.0385 C.3       4 GLC5        0.0000 
     10 CA          6.1040   58.4520    8.3930 C.3      12 GLL5        0.0000 
     11 CA         10.3650   59.1240    7.6840 C.3       8 GLP5        0.0000 
     12 N           9.1330   59.5200    5.2215 N.am      2 SEC2        0.0000 
     13 N           7.6140   60.0770    5.2870 N.am     10 SEL2        0.0000 
     14 N          10.6520   58.9630    5.1560 N.am      6 SEP2        0.0000 
     15 CA          0.2495   63.7275   14.1350 C.3       4 GLC5        0.0000 
     16 CA         -1.1140   63.0730   12.5240 C.3      12 GLL5        0.0000 
     17 CA          1.6130   64.3820   15.7460 C.3       8 GLP5        0.0000 
     18 CA         -3.8050   59.5905   12.3145 C.3       4 GLC5        0.0000 
     19 CA         -2.2510   60.9320   11.8630 C.3      12 GLL5        0.0000 
     20 CA         -5.3590   58.2490   12.7660 C.3       8 GLP5        0.0000 
     21 CA         -0.6585   63.1650    6.8420 C.3       4 GLC5        0.0000 
     22 CA          1.3490   63.3660    7.6900 C.3      12 GLL5        0.0000 
     23 CA         -2.6660   62.9640    5.9940 C.3       8 GLP5        0.0000 
     24 CA          2.5985   64.3750    9.2050 C.3       4 GLC5        0.0000 
     25 CA          3.8480   65.3840   10.7200 C.3       8 GLP5        0.0000 
     26 CA          0.1230   64.6345    6.0990 C.3       4 GLC5        0.0000 
     27 CA          0.0090   65.6570    7.9420 C.3      12 GLL5        0.0000 
     28 CA          0.2370   63.6120    4.2560 C.3       8 GLP5        0.0000 
     29 CA         -1.3285   64.3105    6.9680 C.3       4 GLC5        0.0000 
     30 CA         -2.6935   68.7235    7.6715 C.3       4 GLC5        0.0000 
     31 CA         -1.7870   67.3040    8.6150 C.3      12 GLL5        0.0000 
     32 CA         -3.6000   70.1430    6.7280 C.3       8 GLP5        0.0000 
     33 CA         -3.1650   68.8380    8.9915 C.3       4 GLC5        0.0000 
     34 CA         -1.7940   67.6710   10.0740 C.3      12 GLL5        0.0000 
     35 CA         -4.5360   70.0050    7.9090 C.3       8 GLP5        0.0000 
     36 CA          0.3600   67.4965   10.0100 C.3       4 GLC5        0.0000 
     37 CA          2.5140   67.3220    9.9460 C.3       8 GLP5        0.0000 
     38 CA         -0.6795   67.7040   11.6610 C.3       4 GLC5        0.0000 
     39 CA          0.4350   67.7370   13.2480 C.3       8 GLP5        0.0000 
     40 CA         -2.8205   64.7290    7.1170 C.3       4 GLC5        0.0000 
     41 CA         -2.9750   66.4940    8.2400 C.3      12 GLL5        0.0000 
     42 CA         -4.2165   67.7330    8.0970 C.3       4 GLC5        0.0000 
     43 CA         -5.4580   68.9720    7.9540 C.3       8 GLP5        0.0000 
     44 N           2.4620   67.8105    6.1035 N.am      2 SEC2        0.0000 
     45 N           1.3610   66.8780    6.7890 N.am     10 SEL2        0.0000 
     46 N           3.5630   68.7430    5.4180 N.am      6 SEP2        0.0000 
     47 CA          2.1765   65.9275    8.5205 C.3       4 GLC5        0.0000 
     48 CA          1.8390   64.5330    7.0950 C.3      12 GLL5        0.0000 
     49 O           3.8120   65.4835    5.8645 O.2       1 ALC1        0.0000 
     50 O           2.9990   64.5790    6.3820 O.2       9 ALL1        0.0000 
     51 O           4.6250   66.3880    5.3470 O.2       5 ALP1        0.0000 
     52 CA          4.0250   64.1795    9.1815 C.3       4 GLC5        0.0000 
     53 CA          4.2020   62.9750    7.6430 C.3      12 GLL5        0.0000 
     54 CA          5.5820   62.3090    9.7160 C.3       4 GLC5        0.0000 
     55 CA          5.1560   61.9770    7.6720 C.3      12 GLL5        0.0000 
     56 CA          6.0080   62.6410   11.7600 C.3       8 GLP5        0.0000 
     57 CA         -2.6658   64.2748   13.3648 C.3       4 GLC5        0.0000 
     58 CA         -3.5720   65.8870   14.1530 C.3       8 GLP5        0.0000 
     59 CA         -1.0577   60.0353    9.0095 C.3       4 GLC5        0.0000 
     60 CA         -0.5900   62.0090   10.3560 C.3      12 GLL5        0.0000 
     61 CA         -0.8750   58.4560    7.6380 C.3       8 GLP5        0.0000 
     62 CA         -2.7203   61.9342    9.1040 C.3       4 GLC5        0.0000 
     63 CA         -1.8910   61.2200   10.4060 C.3      12 GLL5        0.0000 
     64 CA         -4.2000   62.2540    7.8270 C.3       8 GLP5        0.0000 
     65 CA          0.9155   63.7808    5.8243 C.3       4 GLC5        0.0000 
     66 CA         -1.0105   66.6488    6.2648 C.3       4 GLC5        0.0000 
     67 CA         -1.7660   67.0090    4.5760 C.3       8 GLP5        0.0000 
     68 CA          1.1295   66.8053    8.9497 C.3       4 GLC5        0.0000 
     69 CA         -0.5190   66.9200    7.9650 C.3      12 GLL5        0.0000 
     70 CA         -2.0735   66.9540    6.5017 C.3       4 GLC5        0.0000 
     71 CA         -0.9567   69.2682    9.2365 C.3       4 GLC5        0.0000 
     72 CA         -0.4400   71.1450    9.2910 C.3       8 GLP5        0.0000 
     73 CA          3.2580   62.4303    5.5505 C.3       4 GLC5        0.0000 
     74 CA          3.9160   63.5980    6.4150 C.3      12 GLL5        0.0000 
     75 CA          2.4570   61.5740    4.0720 C.3       8 GLP5        0.0000 
     76 CA          6.4465   63.2750    7.7298 C.3       4 GLC5        0.0000 
     77 CA          8.2140   64.0740    7.8020 C.3       8 GLP5        0.0000 
     78 CA          6.2020   64.3605    4.9695 C.3       4 GLC5        0.0000 
     79 CA          4.5830   63.2140    5.2330 C.3      12 GLL5        0.0000 
     80 CA          7.3440   66.0140    4.6770 C.3       8 GLP5        0.0000 
     81 CA          6.9458   62.9853    6.8490 C.3       4 GLC5        0.0000 
     82 CA          5.5370   62.2000    5.2910 C.3      12 GLL5        0.0000 
     83 CA          3.9480   61.8620    4.9768 C.3       4 GLC5        0.0000 
     84 CA          5.8180   61.5930    6.5010 C.3      12 GLL5        0.0000 
@<TRIPOS>BOND
@<TRIPOS>SUBSTRUCTURE
     1 ALC1        4 GROUP        1 X    ALC  0     ROOT ALC X 1
     2 SEC2       12 GROUP        1 X    SEC  0     **** SEC X 2
     3 ASC3        1 GROUP        1 X    ASC  0     **** ASC X 3
     4 GLC5        9 GROUP        1 X    GLC  0     **** GLC X 6
     5 ALP1        6 GROUP        1 Y    ALP  0     ROOT ALP Y 8
     6 SEP2       14 GROUP        1 Y    SEP  0     **** SEP Y 9
     7 ASP3        3 GROUP        1 Y    ASP  0     **** ASP Y 10
     8 GLP5       11 GROUP        1 Y    GLP  0     **** GLP Y 13
     9 ALL1        5 GROUP        1 Z    ALL  0     ROOT ALL Z 15
    10 SEL2       13 GROUP        1 Z    SEL  0     **** SEL Z 16
    11 ASL3        2 GROUP        1 Z    ASL  0     **** ASL Z 17
    12 GLL5       10 GROUP        1 Z    GLL  0     **** GLL Z 20
@<TRIPOS>SET

