#    Name: 1y91_CT9_1_ligand
#    Modification time : Tue Mar 25 10:53:07 2014

@<TRIPOS>MOLECULE
1y91_CT9_1_ligand
   67    70     1     0     0
SMALL
NO_CHARGES


@<TRIPOS>ATOM
      1 N8         -2.6880   61.9650   14.0510 N.4       1 CT9401      0.0000 
      2 C61         5.7680   58.0480    5.9130 C.3       1 CT9401      0.0000 
      3 S1          7.0200   60.2790    6.6190 S.o2      1 CT9401      0.0000 
      4 N6          6.2790   58.8860    7.0020 N.pl3     1 CT9401      0.0000 
      5 C62         6.1040   58.4520    8.3930 C.3       1 CT9401      0.0000 
      6 O2          7.6140   60.0770    5.2870 O.2       1 CT9401      0.0000 
      7 C4         -2.4050   62.2520   12.6290 C.3       1 CT9401      0.0000 
      8 C5         -1.1140   63.0730   12.5240 C.3       1 CT9401      0.0000 
      9 C6         -0.7830   63.3330   11.0650 C.3       1 CT9401      0.0000 
     10 C3         -2.2510   60.9320   11.8630 C.3       1 CT9401      0.0000 
     11 C2         -1.8910   61.2200   10.4060 C.3       1 CT9401      0.0000 
     12 C1         -0.5900   62.0090   10.3560 C.3       1 CT9401      0.0000 
     13 N7         -0.4040   62.3440    8.9680 N.pl3     1 CT9401      0.0000 
     14 C7          0.1690   63.4270    8.4180 C.2       1 CT9401      0.0000 
     15 C8          1.3490   63.3660    7.6900 C.2       1 CT9401      0.0000 
     16 N1         -0.4940   64.5770    8.5140 N.2       1 CT9401      0.0000 
     17 C10         0.0090   65.6570    7.9420 C.2       1 CT9401      0.0000 
     18 C11        -0.5190   66.9200    7.9650 C.2       1 CT9401      0.0000 
     19 C20        -1.7870   67.3040    8.6150 C.3       1 CT9401      0.0000 
     20 C21        -1.7940   67.6710   10.0740 C.3       1 CT9401      0.0000 
     21 C22        -2.9750   66.4940    8.2400 C.3       1 CT9401      0.0000 
     22 C12         0.3630   67.6870    7.2210 C.2       1 CT9401      0.0000 
     23 N2          1.1210   65.6480    7.2390 N.pl3     1 CT9401      0.0000 
     24 N3          1.3610   66.8780    6.7890 N.2       1 CT9401      0.0000 
     25 C9          1.8390   64.5330    7.0950 C.2       1 CT9401      0.0000 
     26 N5          2.9990   64.5790    6.3820 N.pl3     1 CT9401      0.0000 
     27 C13         3.9160   63.5980    6.4150 C.ar      1 CT9401      0.0000 
     28 C18         4.2020   62.9750    7.6430 C.ar      1 CT9401      0.0000 
     29 C17         5.1560   61.9770    7.6720 C.ar      1 CT9401      0.0000 
     30 C14         4.5830   63.2140    5.2330 C.ar      1 CT9401      0.0000 
     31 C15         5.5370   62.2000    5.2910 C.ar      1 CT9401      0.0000 
     32 C16         5.8180   61.5930    6.5010 C.ar      1 CT9401      0.0000 
     33 O3          7.9370   60.7000    7.6690 O.2       1 CT9401      0.0000 
     34 H          -3.2063   62.8120   12.1942 H         1 CT9401      0.0000 
     35 H          -0.3038   62.5207   12.9895 H         1 CT9401      0.0000 
     36 H          -1.2513   64.0173   13.0413 H         1 CT9401      0.0000 
     37 H           0.1285   63.9165   11.0003 H         1 CT9401      0.0000 
     38 H          -1.5977   63.8783   10.6019 H         1 CT9401      0.0000 
     39 H          -3.1856   60.3854   11.9025 H         1 CT9401      0.0000 
     40 H          -1.4639   60.3441   12.3198 H         1 CT9401      0.0000 
     41 H          -2.6837   61.7990    9.9490 H         1 CT9401      0.0000 
     42 H          -1.7676   60.2840    9.8758 H         1 CT9401      0.0000 
     43 H           0.1882   61.4751   10.7519 H         1 CT9401      0.0000 
     44 H          -0.8002   61.5806    8.2861 H         1 CT9401      0.0000 
     45 H           1.8548   62.4859    7.5876 H         1 CT9401      0.0000 
     46 H          -2.0536   68.3680    8.0941 H         1 CT9401      0.0000 
     47 H           0.2686   68.6222    7.0520 H         1 CT9401      0.0000 
     48 H           3.1787   65.4312    5.7760 H         1 CT9401      0.0000 
     49 H           3.7097   63.2621    8.4861 H         1 CT9401      0.0000 
     50 H           5.3881   61.5059    8.5605 H         1 CT9401      0.0000 
     51 H           4.3647   63.6766    4.3523 H         1 CT9401      0.0000 
     52 H           6.0262   61.9085    4.4365 H         1 CT9401      0.0000 
     53 H          -1.9951   62.3594   14.6545 H         1 CT9401      0.0000 
     54 H          -3.5713   62.3371   14.3364 H         1 CT9401      0.0000 
     55 H          -2.7110   60.9821   14.2341 H         1 CT9401      0.0000 
     56 H           6.4976   57.7587    5.2933 H         1 CT9401      0.0000 
     57 H           5.3297   57.2178    6.2575 H         1 CT9401      0.0000 
     58 H           5.0884   58.5306    5.3606 H         1 CT9401      0.0000 
     59 H           6.5494   57.5737    8.5668 H         1 CT9401      0.0000 
     60 H           6.4913   59.1099    9.0388 H         1 CT9401      0.0000 
     61 H           5.1385   58.3429    8.6293 H         1 CT9401      0.0000 
     62 H          -1.4687   66.9193   10.6476 H         1 CT9401      0.0000 
     63 H          -1.2067   68.4583   10.2617 H         1 CT9401      0.0000 
     64 H          -2.7118   67.9072   10.3931 H         1 CT9401      0.0000 
     65 H          -3.1611   66.5400    7.2586 H         1 CT9401      0.0000 
     66 H          -2.8539   65.5285    8.4704 H         1 CT9401      0.0000 
     67 H          -3.8007   66.8062    8.7099 H         1 CT9401      0.0000 
@<TRIPOS>BOND
     1    7    1 1    
     2   53    1 1    
     3   54    1 1    
     4   55    1 1    
     5    4    2 1    
     6   56    2 1    
     7   57    2 1    
     8   58    2 1    
     9    4    3 1    
    10    6    3 2    
    11   32    3 1    
    12   33    3 2    
    13    5    4 1    
    14   59    5 1    
    15   60    5 1    
    16   61    5 1    
    17    8    7 1    
    18   10    7 1    
    19   34    7 1    
    20    9    8 1    
    21   35    8 1    
    22   36    8 1    
    23   12    9 1    
    24   37    9 1    
    25   38    9 1    
    26   11   10 1    
    27   39   10 1    
    28   40   10 1    
    29   12   11 1    
    30   41   11 1    
    31   42   11 1    
    32   13   12 1    
    33   43   12 1    
    34   14   13 1    
    35   44   13 1    
    36   15   14 1    
    37   16   14 2    
    38   25   15 2    
    39   45   15 1    
    40   17   16 1    
    41   18   17 2    
    42   23   17 1    
    43   19   18 1    
    44   22   18 1    
    45   20   19 1    
    46   21   19 1    
    47   46   19 1    
    48   62   20 1    
    49   63   20 1    
    50   64   20 1    
    51   65   21 1    
    52   66   21 1    
    53   67   21 1    
    54   24   22 2    
    55   47   22 1    
    56   24   23 1    
    57   25   23 1    
    58   26   25 1    
    59   27   26 1    
    60   48   26 1    
    61   28   27 ar   
    62   30   27 ar   
    63   29   28 ar   
    64   49   28 1    
    65   32   29 ar   
    66   50   29 1    
    67   31   30 ar   
    68   51   30 1    
    69   32   31 ar   
    70   52   31 1    
@<TRIPOS>SUBSTRUCTURE
     1 CT9401      1 GROUP   
@<TRIPOS>SET

