#    Name: 4alw_HY7_2_INTS_M
#    Modification time : Tue Mar 25 05:45:11 2014

@<TRIPOS>MOLECULE
4alw_HY7_2_INTS_M
   68     0     6     0     0
SMALL
NO_CHARGES


@<TRIPOS>ATOM
      1 CA         19.5020  -29.2870    3.0010 C.3       2 GLC5        0.0000 
      2 CA         21.0110  -29.2470    2.3750 C.3       6 GLL5        0.0000 
      3 CA         17.9930  -29.3270    3.6270 C.3       4 GLP5        0.0000 
      4 CA         19.9645  -29.6075    0.5265 C.3       2 GLC5        0.0000 
      5 CA         18.9180  -29.9680   -1.3220 C.3       4 GLP5        0.0000 
      6 CA         19.6455  -27.9720    3.1130 C.3       2 GLC5        0.0000 
      7 CA         21.5020  -27.9320    3.0820 C.3       6 GLL5        0.0000 
      8 CA         17.7890  -28.0120    3.1440 C.3       4 GLP5        0.0000 
      9 CA         24.9455  -26.1875    5.1040 C.3       2 GLC5        0.0000 
     10 CA         23.4870  -26.9970    4.2520 C.3       6 GLL5        0.0000 
     11 CA         26.4040  -25.3780    5.9560 C.3       4 GLP5        0.0000 
     12 CA         24.9615  -29.4115    5.5985 C.3       2 GLC5        0.0000 
     13 CA         23.2480  -29.3180    4.2800 C.3       6 GLL5        0.0000 
     14 CA         26.6750  -29.5050    6.9170 C.3       4 GLP5        0.0000 
     15 CA         24.1875  -31.6485    2.3000 C.3       2 GLC5        0.0000 
     16 CA         22.8760  -30.5710    3.4580 C.3       6 GLL5        0.0000 
     17 CA         25.4990  -32.7260    1.1420 C.3       4 GLP5        0.0000 
     18 CA         19.1625  -31.0415    2.7410 C.3       2 GLC5        0.0000 
     19 CA         20.8310  -31.6580    2.6000 C.3       6 GLL5        0.0000 
     20 CA         17.4940  -30.4250    2.8820 C.3       4 GLP5        0.0000 
     21 CA         19.4180  -32.6115    2.1445 C.3       2 GLC5        0.0000 
     22 CA         18.0050  -33.5650    1.6890 C.3       4 GLP5        0.0000 
     23 CA         21.5235  -38.1120    1.7070 C.3       2 GLC5        0.0000 
     24 CA         22.8930  -36.5780    0.8170 C.3       6 GLL5        0.0000 
     25 CA         20.1540  -39.6460    2.5970 C.3       4 GLP5        0.0000 
     26 CA         21.9430  -39.4505    1.8410 C.3       2 GLC5        0.0000 
     27 CA         23.7320  -39.2550    1.0850 C.3       6 GLL5        0.0000 
     28 CA         22.9215  -40.8625    0.4370 C.3       2 GLC5        0.0000 
     29 CA         22.1110  -42.4700   -0.2110 C.3       4 GLP5        0.0000 
     30 CA         25.1595  -40.4180    1.9585 C.3       2 GLC5        0.0000 
     31 CA         26.5870  -41.5810    2.8320 C.3       4 GLP5        0.0000 
     32 CA         25.3655  -37.2660   -2.8230 C.3       2 GLC5        0.0000 
     33 CA         23.8410  -37.6730   -1.2440 C.3       6 GLL5        0.0000 
     34 CA         26.8900  -36.8590   -4.4020 C.3       4 GLP5        0.0000 
     35 CA         24.1925  -39.5730   -2.1750 C.3       2 GLC5        0.0000 
     36 CA         24.5440  -41.4730   -3.1060 C.3       4 GLP5        0.0000 
     37 CA         25.4405  -39.1560   -1.6660 C.3       2 GLC5        0.0000 
     38 CA         27.0400  -40.6390   -2.0880 C.3       4 GLP5        0.0000 
     39 CA         24.8320  -36.1550   -3.5995 C.3       2 GLC5        0.0000 
     40 CA         23.7130  -36.5100   -2.0020 C.3       6 GLL5        0.0000 
     41 CA         25.9510  -35.8000   -5.1970 C.3       4 GLP5        0.0000 
     42 CA         22.7380  -36.4300   -3.7540 C.3       2 GLC5        0.0000 
     43 CA         21.7630  -36.3500   -5.5060 C.3       4 GLP5        0.0000 
     44 CA         21.9430  -34.8845   -2.8655 C.3       2 GLC5        0.0000 
     45 CA         23.1720  -35.4570   -1.3010 C.3       6 GLL5        0.0000 
     46 CA         20.7140  -34.3120   -4.4300 C.3       4 GLP5        0.0000 
     47 CA         21.5435  -33.8730   -2.6480 C.3       2 GLC5        0.0000 
     48 CA         22.3730  -33.4340   -0.8660 C.3       6 GLL5        0.0000 
     49 N          21.1280  -30.2950   -1.8730 N.am      1 SEC2        0.0000 
     50 N          22.1090  -31.3530   -1.9060 N.am      5 SEL2        0.0000 
     51 N          20.1470  -29.2370   -1.8400 N.am      3 SEP2        0.0000 
     52 CA         22.6982  -28.5433    1.1112 C.3       2 GLC5        0.0000 
     53 CA         24.1400  -28.4970   -0.5060 C.3       4 GLP5        0.0000 
     54 CA         20.4345  -35.0870    0.1660 C.3       2 GLC5        0.0000 
     55 CA         22.3040  -34.1560    0.3070 C.3       6 GLL5        0.0000 
     56 CA         18.3200  -35.3800    0.1580 C.3       4 GLP5        0.0000 
     57 CA         21.6307  -37.2010   -0.7125 C.3       2 GLC5        0.0000 
     58 CA         22.7940  -35.4320    0.0410 C.3       6 GLL5        0.0000 
     59 CA         20.4180  -38.3970   -1.8540 C.3       4 GLP5        0.0000 
     60 CA         22.0280  -38.0255   -1.2072 C.3       2 GLC5        0.0000 
     61 CA         23.4350  -37.6350    0.1230 C.3       6 GLL5        0.0000 
     62 CA         25.2657  -37.7040    0.3320 C.3       2 GLC5        0.0000 
     63 CA         26.9480  -36.9630    0.0600 C.3       4 GLP5        0.0000 
     64 CA         21.9303  -37.1902   -1.7528 C.3       2 GLC5        0.0000 
     65 CA         25.1418  -34.9108   -1.6087 C.3       2 GLC5        0.0000 
     66 CA         26.8410  -33.8380   -1.5660 C.3       4 GLP5        0.0000 
     67 CA         23.9800  -33.4200    0.3980 C.3       2 GLC5        0.0000 
     68 CA         25.1702  -36.6871   -0.4847 C.3       2 GLC5        0.0000 
@<TRIPOS>BOND
@<TRIPOS>SUBSTRUCTURE
     1 SEC2       49 GROUP        1 X    SEC  0     ROOT SEC X 2
     2 GLC5        1 GROUP        1 X    GLC  0     **** GLC X 6
     3 SEP2       51 GROUP        1 Y    SEP  0     ROOT SEP Y 9
     4 GLP5        3 GROUP        1 Y    GLP  0     **** GLP Y 13
     5 SEL2       50 GROUP        1 Z    SEL  0     ROOT SEL Z 16
     6 GLL5        2 GROUP        1 Z    GLL  0     **** GLL Z 20
@<TRIPOS>SET

