#    Name: 4alw_HY7_2_ligand
#    Modification time : Tue Mar 25 05:45:11 2014

@<TRIPOS>MOLECULE
4alw_HY7_2_ligand
   41    44     1     0     0
SMALL
NO_CHARGES


@<TRIPOS>ATOM
      1 C5         21.0110  -29.2470    2.3750 C.3       1 HY71308     0.0000 
      2 C6         21.5020  -27.9320    3.0820 C.3       1 HY71308     0.0000 
      3 N3         22.9420  -28.1280    3.4290 N.3       1 HY71308     0.0000 
      4 C7         23.4870  -26.9970    4.2520 C.3       1 HY71308     0.0000 
      5 C8         23.2480  -29.3180    4.2800 C.3       1 HY71308     0.0000 
      6 C9         22.8760  -30.5710    3.4580 C.3       1 HY71308     0.0000 
      7 N2         21.4060  -30.4220    3.1590 N.4       1 HY71308     0.0000 
      8 C4         20.8310  -31.6580    2.6000 C.3       1 HY71308     0.0000 
      9 C3         21.4500  -32.2870    1.3920 C.2       1 HY71308     0.0000 
     10 N4         21.8170  -33.5270    1.4230 N.2       1 HY71308     0.0000 
     11 C10        22.3040  -34.1560    0.3070 C.2       1 HY71308     0.0000 
     12 C11        22.7940  -35.4320    0.0410 C.ar      1 HY71308     0.0000 
     13 C12        22.8930  -36.5780    0.8170 C.ar      1 HY71308     0.0000 
     14 C13        23.4350  -37.6350    0.1230 C.ar      1 HY71308     0.0000 
     15 BR1        23.7320  -39.2550    1.0850 Br        1 HY71308     0.0000 
     16 C14        23.8410  -37.6730   -1.2440 C.ar      1 HY71308     0.0000 
     17 C15        23.7130  -36.5100   -2.0020 C.ar      1 HY71308     0.0000 
     18 C16        23.1720  -35.4570   -1.3010 C.ar      1 HY71308     0.0000 
     19 O2         22.9490  -34.2080   -1.7630 O.3       1 HY71308     0.0000 
     20 C1         22.3730  -33.4340   -0.8660 C.2       1 HY71308     0.0000 
     21 C2         22.0120  -32.0730   -0.9000 C.2       1 HY71308     0.0000 
     22 O1         22.1090  -31.3530   -1.9060 O.2       1 HY71308     0.0000 
     23 N1         21.4560  -31.5810    0.2370 N.am      1 HY71308     0.0000 
     24 H          21.4536  -29.2641    1.3802 H         1 HY71308     0.0000 
     25 H          19.9285  -29.1775    2.2783 H         1 HY71308     0.0000 
     26 H          20.9080  -27.7889    3.9642 H         1 HY71308     0.0000 
     27 H          21.3780  -27.1193    2.3923 H         1 HY71308     0.0000 
     28 H          22.6547  -29.3060    5.1767 H         1 HY71308     0.0000 
     29 H          24.2969  -29.3583    4.5132 H         1 HY71308     0.0000 
     30 H          23.0501  -31.4395    4.0509 H         1 HY71308     0.0000 
     31 H          23.4421  -30.5744    2.5549 H         1 HY71308     0.0000 
     32 H          20.9010  -30.3031    4.1887 H         1 HY71308     0.0000 
     33 H          19.7288  -31.4811    2.3766 H         1 HY71308     0.0000 
     34 H          20.7867  -32.4455    3.4209 H         1 HY71308     0.0000 
     35 H          22.6075  -36.6230    1.7526 H         1 HY71308     0.0000 
     36 H          24.2091  -38.5261   -1.6377 H         1 HY71308     0.0000 
     37 H          23.9861  -36.4569   -2.9470 H         1 HY71308     0.0000 
     38 H          21.0181  -30.6243    0.2178 H         1 HY71308     0.0000 
     39 H          24.4506  -27.1349    4.4809 H         1 HY71308     0.0000 
     40 H          23.4222  -26.1227    3.7709 H         1 HY71308     0.0000 
     41 H          22.9926  -26.8939    5.1151 H         1 HY71308     0.0000 
@<TRIPOS>BOND
     1    2    1 1    
     2    7    1 1    
     3   24    1 1    
     4   25    1 1    
     5    3    2 1    
     6   26    2 1    
     7   27    2 1    
     8    4    3 1    
     9    5    3 1    
    10   39    4 1    
    11   40    4 1    
    12   41    4 1    
    13    6    5 1    
    14   28    5 1    
    15   29    5 1    
    16    7    6 1    
    17   30    6 1    
    18   31    6 1    
    19    8    7 1    
    20   32    7 1    
    21    9    8 1    
    22   33    8 1    
    23   34    8 1    
    24   10    9 2    
    25   23    9 1    
    26   11   10 1    
    27   12   11 1    
    28   20   11 2    
    29   13   12 ar   
    30   18   12 ar   
    31   14   13 ar   
    32   35   13 1    
    33   15   14 1    
    34   16   14 ar   
    35   17   16 ar   
    36   36   16 1    
    37   18   17 ar   
    38   37   17 1    
    39   19   18 1    
    40   20   19 1    
    41   21   20 1    
    42   22   21 2    
    43   23   21 am   
    44   38   23 1    
@<TRIPOS>SUBSTRUCTURE
     1 HY71308     1 GROUP   
@<TRIPOS>SET

