#    Name: 2qz4_ADP_1_INTS_M
#    Modification time : Mon Mar 24 22:58:33 2014

@<TRIPOS>MOLECULE
2qz4_ADP_1_INTS_M
   72     0    12     0     0
SMALL
NO_CHARGES


@<TRIPOS>ATOM
      1 N           8.3760   25.7100    7.7895 N.am      2 SEC2        0.0000 
      2 N           7.9770   24.3850    8.1550 N.am     10 SEL2        0.0000 
      3 N           8.7750   27.0350    7.4240 N.am      6 SEP2        0.0000 
      4 N           7.2625   25.1565    7.1110 N.am      2 SEC2        0.0000 
      5 N           6.5480   25.9280    6.0670 N.am      6 SEP2        0.0000 
      6 NZ         10.4435   22.5575    9.0115 N.4       3 LYC4        0.0000 
      7 NZ          9.6320   23.3880    9.6440 N.4      11 LYL4        0.0000 
      8 NZ         11.2550   21.7270    8.3790 N.4       7 LYP4        0.0000 
      9 N           9.7480   23.1500   11.2130 N.am      2 SEC2        0.0000 
     10 N           9.6320   23.3880    9.6440 N.am     10 SEL2        0.0000 
     11 N           9.8640   22.9120   12.7820 N.am      6 SEP2        0.0000 
     12 N          10.1480   24.8150    9.5250 N.am      2 SEC2        0.0000 
     13 N          10.6640   26.2420    9.4060 N.am      6 SEP2        0.0000 
     14 N          10.4435   22.5575    9.0115 N.am      2 SEC2        0.0000 
     15 N          11.2550   21.7270    8.3790 N.am      6 SEP2        0.0000 
     16 NZ          9.5050   21.8640    8.8780 N.4       3 LYC4        0.0000 
     17 NZ          7.7550   22.0010    9.3770 N.4      11 LYL4        0.0000 
     18 N           7.9945   21.4520   10.6705 N.am      2 SEC2        0.0000 
     19 N           7.7550   22.0010    9.3770 N.am     10 SEL2        0.0000 
     20 N           8.2340   20.9030   11.9640 N.am      6 SEP2        0.0000 
     21 N           7.0955   27.9260    9.5520 N.am      2 SEC2        0.0000 
     22 N           6.5810   26.6060   10.2990 N.am     10 SEL2        0.0000 
     23 N           7.6100   29.2460    8.8050 N.am      6 SEP2        0.0000 
     24 N           8.8660   24.9360   11.3405 N.am      2 SEC2        0.0000 
     25 N           7.6310   24.3780   10.5530 N.am     10 SEL2        0.0000 
     26 N          10.1010   25.4940   12.1280 N.am      6 SEP2        0.0000 
     27 CA          6.2415   23.3520   12.9470 C.3       4 GLC5        0.0000 
     28 CA          4.7300   24.9680   12.8610 C.3      12 GLL5        0.0000 
     29 CA          7.7530   21.7360   13.0330 C.3       8 GLP5        0.0000 
     30 CA          5.3710   29.3945   12.9835 C.3       4 GLC5        0.0000 
     31 CA          4.8980   27.4190   13.6930 C.3      12 GLL5        0.0000 
     32 CA          5.8440   31.3700   12.2740 C.3       8 GLP5        0.0000 
     33 CA          6.5125   29.2740   14.3455 C.3       4 GLC5        0.0000 
     34 CA          5.1100   27.9950   15.1080 C.3      12 GLL5        0.0000 
     35 CA          7.9150   30.5530   13.5830 C.3       8 GLP5        0.0000 
     36 CA          7.3690   25.7270   16.9125 C.3       4 GLC5        0.0000 
     37 CA          5.8500   26.8620   15.8130 C.3      12 GLL5        0.0000 
     38 CA          8.8880   24.5920   18.0120 C.3       8 GLP5        0.0000 
     39 CA          5.6910   25.0005   16.4255 C.3       4 GLC5        0.0000 
     40 CA          5.5320   23.1390   17.0380 C.3       8 GLP5        0.0000 
     41 CA          4.6530   26.5700   17.5520 C.3       4 GLC5        0.0000 
     42 CA          3.4560   26.2780   19.2910 C.3       8 GLP5        0.0000 
     43 CA          9.6810   27.4360   13.7500 C.3       4 GLC5        0.0000 
     44 CA          9.2980   27.9940   15.7750 C.3      12 GLL5        0.0000 
     45 CA         10.0640   26.8780   11.7250 C.3       8 GLP5        0.0000 
     46 CA         10.8345   28.6480   18.0070 C.3       4 GLC5        0.0000 
     47 CA         10.2250   29.0350   16.1950 C.3      12 GLL5        0.0000 
     48 CA         11.4440   28.2610   19.8190 C.3       8 GLP5        0.0000 
     49 O          12.4585   29.7745   16.4910 O.2       1 ALC1        0.0000 
     50 O          11.5260   28.8990   15.8580 O.2       9 ALL1        0.0000 
     51 O          13.3910   30.6500   17.1240 O.2       5 ALP1        0.0000 
     52 N          10.5720   31.3525   16.9020 N.am      2 SEC2        0.0000 
     53 N           9.7410   30.1060   16.8200 N.am     10 SEL2        0.0000 
     54 N          11.4030   32.5990   16.9840 N.am      6 SEP2        0.0000 
     55 CA         10.0110   31.1485   18.2480 C.3       4 GLC5        0.0000 
     56 CA          8.4400   30.2020   17.1370 C.3      12 GLL5        0.0000 
     57 CA         11.5820   32.0950   19.3590 C.3       8 GLP5        0.0000 
     58 CA          8.1775   30.3775   15.3600 C.3       4 GLC5        0.0000 
     59 CA          8.7455   28.9780   18.7800 C.3       4 GLC5        0.0000 
     60 CA          9.0510   27.7540   20.4230 C.3       8 GLP5        0.0000 
     61 CA          7.1355   29.8840   18.6555 C.3       4 GLC5        0.0000 
     62 CA          5.8310   29.5660   20.1740 C.3       8 GLP5        0.0000 
     63 N           6.5240   29.3945   17.8405 N.am      2 SEC2        0.0000 
     64 N           7.5400   29.2540   16.8530 N.am     10 SEL2        0.0000 
     65 N           5.5080   29.5350   18.8280 N.am      6 SEP2        0.0000 
     66 CA          8.4865   27.9600   18.2795 C.3       4 GLC5        0.0000 
     67 CA          7.9220   28.1660   16.1360 C.3      12 GLL5        0.0000 
     68 CA          4.9400   23.8920   14.6197 C.3       4 GLC5        0.0000 
     69 CA          4.5700   25.9720   14.0160 C.3      12 GLL5        0.0000 
     70 CA          5.2300   22.3140   15.8010 C.3       8 GLP5        0.0000 
     71 CA          8.7490   26.3360   16.9838 C.3       4 GLC5        0.0000 
     72 CA          8.3784   29.4466   14.8217 C.3       4 GLC5        0.0000 
@<TRIPOS>BOND
@<TRIPOS>SUBSTRUCTURE
     1 ALC1       49 GROUP        1 X    ALC  0     ROOT ALC X 1
     2 SEC2        1 GROUP        1 X    SEC  0     **** SEC X 2
     3 LYC4        6 GROUP        1 X    LYC  0     **** LYC X 4
     4 GLC5       27 GROUP        1 X    GLC  0     **** GLC X 6
     5 ALP1       51 GROUP        1 Y    ALP  0     ROOT ALP Y 8
     6 SEP2        3 GROUP        1 Y    SEP  0     **** SEP Y 9
     7 LYP4        8 GROUP        1 Y    LYP  0     **** LYP Y 11
     8 GLP5       29 GROUP        1 Y    GLP  0     **** GLP Y 13
     9 ALL1       50 GROUP        1 Z    ALL  0     ROOT ALL Z 15
    10 SEL2        2 GROUP        1 Z    SEL  0     **** SEL Z 16
    11 LYL4        7 GROUP        1 Z    LYL  0     **** LYL Z 18
    12 GLL5       28 GROUP        1 Z    GLL  0     **** GLL Z 20
@<TRIPOS>SET

