#    Name: 2qz4_ADP_1_ligand
#    Modification time : Mon Mar 24 22:58:33 2014

@<TRIPOS>MOLECULE
2qz4_ADP_1_ligand
   39    41     1     0     0
SMALL
NO_CHARGES


@<TRIPOS>ATOM
      1 PB          8.2050   23.4370    9.3480 P.3       1 ADP700      0.0000 
      2 O1B         7.9770   24.3850    8.1550 O.co2     1 ADP700      0.0000 
      3 O2B         9.6320   23.3880    9.6440 O.co2     1 ADP700      0.0000 
      4 O3B         7.7550   22.0010    9.3770 O.co2     1 ADP700      0.0000 
      5 PA          6.2970   25.2140   10.6600 P.3       1 ADP700      0.0000 
      6 O1A         6.5810   26.6060   10.2990 O.co2     1 ADP700      0.0000 
      7 O2A         5.1320   24.4730   10.0790 O.co2     1 ADP700      0.0000 
      8 O3A         7.6310   24.3780   10.5530 O.3       1 ADP700      0.0000 
      9 O5'         6.0500   25.1170   12.3020 O.3       1 ADP700      0.0000 
     10 C5'         4.7300   24.9680   12.8610 C.3       1 ADP700      0.0000 
     11 C4'         4.5700   25.9720   14.0160 C.3       1 ADP700      0.0000 
     12 O4'         5.4790   25.6690   15.1240 O.3       1 ADP700      0.0000 
     13 C3'         4.8980   27.4190   13.6930 C.3       1 ADP700      0.0000 
     14 O3'         3.8450   28.0900   13.0040 O.3       1 ADP700      0.0000 
     15 C2'         5.1100   27.9950   15.1080 C.3       1 ADP700      0.0000 
     16 O2'         3.8430   28.2800   15.7800 O.3       1 ADP700      0.0000 
     17 C1'         5.8500   26.8620   15.8130 C.3       1 ADP700      0.0000 
     18 N9          7.3020   27.0750   15.6810 N.pl3     1 ADP700      0.0000 
     19 C8          8.1920   26.2690   15.0980 C.2       1 ADP700      0.0000 
     20 N7          9.4290   26.8180   15.1270 N.2       1 ADP700      0.0000 
     21 C5          9.2980   27.9940   15.7750 C.ar      1 ADP700      0.0000 
     22 C6         10.2250   29.0350   16.1950 C.ar      1 ADP700      0.0000 
     23 N6         11.5260   28.8990   15.8580 N.pl3     1 ADP700      0.0000 
     24 N1          9.7410   30.1060   16.8200 N.ar      1 ADP700      0.0000 
     25 C2          8.4400   30.2020   17.1370 C.ar      1 ADP700      0.0000 
     26 N3          7.5400   29.2540   16.8530 N.ar      1 ADP700      0.0000 
     27 C4          7.9220   28.1660   16.1360 C.ar      1 ADP700      0.0000 
     28 H           4.5728   23.9689   13.2640 H         1 ADP700      0.0000 
     29 H           3.9545   25.1789   12.1266 H         1 ADP700      0.0000 
     30 H           3.5523   25.9368   14.3910 H         1 ADP700      0.0000 
     31 H           5.8372   27.4449   13.2004 H         1 ADP700      0.0000 
     32 H           5.7509   28.8251   15.0390 H         1 ADP700      0.0000 
     33 H           5.5533   26.8435   16.8254 H         1 ADP700      0.0000 
     34 H           7.9876   25.3942   14.6990 H         1 ADP700      0.0000 
     35 H          11.7670   28.0654   15.3609 H         1 ADP700      0.0000 
     36 H          12.1326   29.6440   16.1355 H         1 ADP700      0.0000 
     37 H           8.1079   31.0828   17.6428 H         1 ADP700      0.0000 
     38 H           3.5210   27.4327   12.3236 H         1 ADP700      0.0000 
     39 H           3.1506   28.2258   15.0604 H         1 ADP700      0.0000 
@<TRIPOS>BOND
     1    2    1 ar   
     2    3    1 ar   
     3    4    1 ar   
     4    8    1 1    
     5    6    5 ar   
     6    7    5 ar   
     7    8    5 1    
     8    9    5 1    
     9   10    9 1    
    10   11   10 1    
    11   28   10 1    
    12   29   10 1    
    13   12   11 1    
    14   13   11 1    
    15   30   11 1    
    16   17   12 1    
    17   14   13 1    
    18   15   13 1    
    19   31   13 1    
    20   38   14 1    
    21   16   15 1    
    22   17   15 1    
    23   32   15 1    
    24   39   16 1    
    25   18   17 1    
    26   33   17 1    
    27   19   18 1    
    28   27   18 1    
    29   20   19 2    
    30   34   19 1    
    31   21   20 1    
    32   22   21 ar   
    33   27   21 ar   
    34   23   22 1    
    35   24   22 ar   
    36   35   23 1    
    37   36   23 1    
    38   25   24 ar   
    39   26   25 ar   
    40   37   25 1    
    41   27   26 ar   
@<TRIPOS>SUBSTRUCTURE
     1 ADP700      1 GROUP   
@<TRIPOS>SET

