#    Name: 2pa3_NAI_1_INTS_M
#    Modification time : Mon Mar 24 18:34:23 2014

@<TRIPOS>MOLECULE
2pa3_NAI_1_INTS_M
   97     0     9     0     0
SMALL
NO_CHARGES


@<TRIPOS>ATOM
      1 N          51.9890  -64.8570  -35.3290 N.am      2 SEC2        0.0000 
      2 N          52.5960  -64.7090  -34.0700 N.am      8 SEL2        0.0000 
      3 N          51.3820  -65.0050  -36.5880 N.am      5 SEP2        0.0000 
      4 CA         58.0315  -66.2565  -34.9270 C.3       3 GLC5        0.0000 
      5 CA         55.9950  -66.5850  -34.1850 C.3       9 GLL5        0.0000 
      6 CA         60.0680  -65.9280  -35.6690 C.3       6 GLP5        0.0000 
      7 CA         58.0950  -66.6535  -33.4575 C.3       3 GLC5        0.0000 
      8 CA         60.1950  -66.7220  -32.7300 C.3       6 GLP5        0.0000 
      9 CA         56.7305  -68.4810  -36.5840 C.3       3 GLC5        0.0000 
     10 CA         56.0090  -68.0080  -34.7560 C.3       9 GLL5        0.0000 
     11 CA         57.4520  -68.9540  -38.4120 C.3       6 GLP5        0.0000 
     12 CA         53.5055  -70.4045  -34.4825 C.3       3 GLC5        0.0000 
     13 CA         55.0850  -68.9420  -33.9850 C.3       9 GLL5        0.0000 
     14 CA         51.9260  -71.8670  -34.9800 C.3       6 GLP5        0.0000 
     15 O          54.5765  -70.5570  -35.7430 O.2       1 ALC1        0.0000 
     16 O          54.1980  -69.4880  -34.9390 O.2       7 ALL1        0.0000 
     17 O          54.9550  -71.6260  -36.5470 O.2       4 ALP1        0.0000 
     18 O          55.9105  -71.9810  -34.2435 O.2       1 ALC1        0.0000 
     19 O          55.5040  -71.2740  -33.2850 O.2       7 ALL1        0.0000 
     20 O          56.3170  -72.6880  -35.2020 O.2       4 ALP1        0.0000 
     21 O          55.2295  -71.4500  -34.9160 O.2       1 ALC1        0.0000 
     22 CA         57.3070  -69.4535  -36.3745 C.3       3 GLC5        0.0000 
     23 CA         57.1620  -69.9530  -34.3370 C.3       9 GLL5        0.0000 
     24 CA         60.4010  -68.8000  -33.2555 C.3       3 GLC5        0.0000 
     25 CA         60.6070  -70.8780  -33.7810 C.3       9 GLL5        0.0000 
     26 CA         61.4145  -73.2365  -33.9190 C.3       3 GLC5        0.0000 
     27 CA         61.7580  -71.5020  -34.2890 C.3       9 GLL5        0.0000 
     28 CA         61.0710  -74.9710  -33.5490 C.3       6 GLP5        0.0000 
     29 CA         63.0680  -71.4875  -35.7040 C.3       3 GLC5        0.0000 
     30 CA         64.3780  -71.4730  -37.1190 C.3       6 GLP5        0.0000 
     31 O          63.3480  -71.3155  -31.9455 O.2       1 ALC1        0.0000 
     32 O          62.8430  -71.6750  -33.5360 O.2       7 ALL1        0.0000 
     33 O          63.8530  -70.9560  -30.3550 O.2       4 ALP1        0.0000 
     34 CA         61.1265  -71.1775  -38.0545 C.3       3 GLC5        0.0000 
     35 CA         60.5470  -72.0630  -36.2770 C.3       9 GLL5        0.0000 
     36 CA         61.7060  -70.2920  -39.8320 C.3       6 GLP5        0.0000 
     37 CA         58.9565  -73.0775  -36.8725 C.3       3 GLC5        0.0000 
     38 CA         57.3660  -74.0920  -37.4680 C.3       6 GLP5        0.0000 
     39 CA         60.8090  -73.5170  -34.9130 C.3       3 GLC5        0.0000 
     40 CA         60.7440  -70.0585  -36.4985 C.3       3 GLC5        0.0000 
     41 CA         60.9410  -68.0540  -36.7200 C.3       6 GLP5        0.0000 
     42 CA         62.4625  -71.7680  -36.6980 C.3       3 GLC5        0.0000 
     43 N          58.9165  -73.0765  -35.5475 N.am      2 SEC2        0.0000 
     44 N          59.4170  -71.4380  -35.7670 N.am      8 SEL2        0.0000 
     45 N          58.4160  -74.7150  -35.3280 N.am      5 SEP2        0.0000 
     46 N          53.0000  -63.2180  -37.4735 N.am      2 SEC2        0.0000 
     47 N          53.8190  -63.3590  -36.3700 N.am      8 SEL2        0.0000 
     48 N          52.1810  -63.0770  -38.5770 N.am      5 SEP2        0.0000 
     49 CA         55.9550  -61.2080  -37.1260 C.3       3 GLC5        0.0000 
     50 CA         56.9530  -62.6460  -35.8830 C.3       9 GLL5        0.0000 
     51 CA         54.9570  -59.7700  -38.3690 C.3       6 GLP5        0.0000 
     52 CA         59.1395  -63.8820  -35.6405 C.3       3 GLC5        0.0000 
     53 CA         58.2110  -61.8360  -35.6120 C.3       9 GLL5        0.0000 
     54 CA         59.9675  -61.9595  -36.7295 C.3       3 GLC5        0.0000 
     55 CA         61.7240  -62.0830  -37.8470 C.3       6 GLP5        0.0000 
     56 CA         59.4085  -62.8750  -33.1830 C.3       3 GLC5        0.0000 
     57 CA         58.2620  -61.3590  -34.1630 C.3       9 GLL5        0.0000 
     58 CA         60.5550  -64.3910  -32.2030 C.3       6 GLP5        0.0000 
     59 N          60.5465  -60.6235  -32.9200 N.am      2 SEC2        0.0000 
     60 N          59.5900  -61.5470  -33.7020 N.am      8 SEL2        0.0000 
     61 N          61.5030  -59.7000  -32.1380 N.am      5 SEP2        0.0000 
     62 O          60.0370  -62.6285  -34.2390 O.2       1 ALC1        0.0000 
     63 O          59.5900  -61.5470  -33.7020 O.2       7 ALL1        0.0000 
     64 O          60.4840  -63.7100  -34.7760 O.2       4 ALP1        0.0000 
     65 CA         60.1695  -60.0690  -36.8175 C.3       3 GLC5        0.0000 
     66 CA         58.6280  -59.5630  -35.5920 C.3       9 GLL5        0.0000 
     67 CA         61.7110  -60.5750  -38.0430 C.3       6 GLP5        0.0000 
     68 CA         60.4090  -59.0165  -37.4190 C.3       3 GLC5        0.0000 
     69 CA         59.1070  -57.4580  -36.7950 C.3       9 GLL5        0.0000 
     70 N          58.2665  -53.4305  -38.8170 N.am      2 SEC2        0.0000 
     71 N          59.3350  -53.9310  -37.9160 N.am      8 SEL2        0.0000 
     72 N          57.1980  -52.9300  -39.7180 N.am      5 SEP2        0.0000 
     73 O          60.5120  -57.1805  -39.2040 O.2       1 ALC1        0.0000 
     74 O          60.4120  -55.8340  -38.9630 O.2       7 ALL1        0.0000 
     75 O          60.6120  -58.5270  -39.4450 O.2       4 ALP1        0.0000 
     76 O          61.1685  -55.0085  -39.8645 O.2       1 ALC1        0.0000 
     77 O          61.9250  -54.1830  -40.7660 O.2       4 ALP1        0.0000 
     78 CA         56.6260  -54.1685  -38.0955 C.3       3 GLC5        0.0000 
     79 CA         57.3840  -55.7080  -36.9940 C.3       9 GLL5        0.0000 
     80 CA         55.8680  -52.6290  -39.1970 C.3       6 GLP5        0.0000 
     81 CA         54.0478  -67.6276  -35.4689 C.3       3 GLC5        0.0000 
     82 CA         52.5520  -67.1360  -36.7100 C.3       6 GLP5        0.0000 
     83 CA         59.5203  -72.3120  -33.3662 C.3       3 GLC5        0.0000 
     84 CA         59.4440  -70.8680  -34.5380 C.3       9 GLL5        0.0000 
     85 CA         59.0150  -73.7510  -32.5730 C.3       6 GLP5        0.0000 
     86 CA         62.5173  -69.6980  -33.5030 C.3       3 GLC5        0.0000 
     87 CA         63.8520  -68.2060  -32.9710 C.3       6 GLP5        0.0000 
     88 CA         60.6271  -69.5415  -35.5032 C.3       3 GLC5        0.0000 
     89 CA         58.2415  -63.3870  -37.3942 C.3       3 GLC5        0.0000 
     90 CA         58.9010  -64.5330  -39.0410 C.3       6 GLP5        0.0000 
     91 CA         56.5839  -56.3628  -38.4841 C.3       3 GLC5        0.0000 
     92 CA         56.4960  -56.5270  -36.3020 C.3       9 GLL5        0.0000 
     93 CA         55.9060  -56.4880  -40.2600 C.3       6 GLP5        0.0000 
     94 CA         55.8375  -58.4620  -37.2212 C.3       3 GLC5        0.0000 
     95 CA         56.2775  -56.0241  -34.8407 C.3       3 GLC5        0.0000 
     96 CA         56.9400  -57.7810  -35.8450 C.3       9 GLL5        0.0000 
     97 CA         55.6150  -55.0990  -33.4350 C.3       6 GLP5        0.0000 
@<TRIPOS>BOND
@<TRIPOS>SUBSTRUCTURE
     1 ALC1       15 GROUP        1 X    ALC  0     ROOT ALC X 1
     2 SEC2        1 GROUP        1 X    SEC  0     **** SEC X 2
     3 GLC5        4 GROUP        1 X    GLC  0     **** GLC X 6
     4 ALP1       17 GROUP        1 Y    ALP  0     ROOT ALP Y 8
     5 SEP2        3 GROUP        1 Y    SEP  0     **** SEP Y 9
     6 GLP5        6 GROUP        1 Y    GLP  0     **** GLP Y 13
     7 ALL1       16 GROUP        1 Z    ALL  0     ROOT ALL Z 15
     8 SEL2        2 GROUP        1 Z    SEL  0     **** SEL Z 16
     9 GLL5        5 GROUP        1 Z    GLL  0     **** GLL Z 20
@<TRIPOS>SET

