#    Name: 2pa3_NAI_1_ligand
#    Modification time : Mon Mar 24 18:34:23 2014

@<TRIPOS>MOLECULE
2pa3_NAI_1_ligand
   71    75     1     0     0
SMALL
NO_CHARGES


@<TRIPOS>ATOM
      1 PA         54.0560  -64.9240  -33.7660 P.3       1 NAI450      0.0000 
      2 O1A        54.3670  -65.1330  -32.3140 O.co2     1 NAI450      0.0000 
      3 O2A        52.5960  -64.7090  -34.0700 O.co2     1 NAI450      0.0000 
      4 O5B        54.6770  -66.1830  -34.5180 O.3       1 NAI450      0.0000 
      5 C5B        55.9950  -66.5850  -34.1850 C.3       1 NAI450      0.0000 
      6 C4B        56.0090  -68.0080  -34.7560 C.3       1 NAI450      0.0000 
      7 O4B        57.2900  -68.5970  -34.7250 O.3       1 NAI450      0.0000 
      8 C3B        55.0850  -68.9420  -33.9850 C.3       1 NAI450      0.0000 
      9 O3B        54.1980  -69.4880  -34.9390 O.3       1 NAI450      0.0000 
     10 C2B        56.0280  -69.9680  -33.3490 C.3       1 NAI450      0.0000 
     11 O2B        55.5040  -71.2740  -33.2850 O.3       1 NAI450      0.0000 
     12 C1B        57.1620  -69.9530  -34.3370 C.3       1 NAI450      0.0000 
     13 N9A        58.4800  -70.2270  -33.8100 N.pl3     1 NAI450      0.0000 
     14 C8A        59.0180  -69.8010  -32.6340 C.2       1 NAI450      0.0000 
     15 N7A        60.3150  -70.2350  -32.6270 N.2       1 NAI450      0.0000 
     16 C5A        60.6070  -70.8780  -33.7810 C.ar      1 NAI450      0.0000 
     17 C6A        61.7580  -71.5020  -34.2890 C.ar      1 NAI450      0.0000 
     18 N6A        62.8430  -71.6750  -33.5360 N.pl3     1 NAI450      0.0000 
     19 N1A        61.7220  -72.0960  -35.5460 N.ar      1 NAI450      0.0000 
     20 C2A        60.5470  -72.0630  -36.2770 C.ar      1 NAI450      0.0000 
     21 N3A        59.4170  -71.4380  -35.7670 N.ar      1 NAI450      0.0000 
     22 C4A        59.4440  -70.8680  -34.5380 C.ar      1 NAI450      0.0000 
     23 O3         55.0170  -63.7160  -34.2980 O.3       1 NAI450      0.0000 
     24 PN         54.4350  -62.5600  -35.2640 P.3       1 NAI450      0.0000 
     25 O1N        53.5780  -61.5440  -34.5610 O.co2     1 NAI450      0.0000 
     26 O2N        53.8190  -63.3590  -36.3700 O.co2     1 NAI450      0.0000 
     27 O5D        55.8360  -61.8350  -35.6460 O.3       1 NAI450      0.0000 
     28 C5D        56.9530  -62.6460  -35.8830 C.3       1 NAI450      0.0000 
     29 C4D        58.2110  -61.8360  -35.6120 C.3       1 NAI450      0.0000 
     30 O4D        58.2530  -60.6660  -36.4120 O.3       1 NAI450      0.0000 
     31 C3D        58.2620  -61.3590  -34.1630 C.3       1 NAI450      0.0000 
     32 O3D        59.5900  -61.5470  -33.7020 O.3       1 NAI450      0.0000 
     33 C2D        57.9880  -59.8690  -34.2460 C.3       1 NAI450      0.0000 
     34 O2D        58.6560  -59.2040  -33.2090 O.3       1 NAI450      0.0000 
     35 C1D        58.6280  -59.5630  -35.5920 C.3       1 NAI450      0.0000 
     36 N1N        58.2170  -58.2400  -36.0960 N.pl3     1 NAI450      0.0000 
     37 C2N        59.1070  -57.4580  -36.7950 C.2       1 NAI450      0.0000 
     38 C3N        58.6710  -56.1880  -37.2350 C.2       1 NAI450      0.0000 
     39 C7N        59.5370  -55.3130  -38.0780 C.2       1 NAI450      0.0000 
     40 O7N        59.3350  -53.9310  -37.9160 O.2       1 NAI450      0.0000 
     41 N7N        60.4120  -55.8340  -38.9630 N.am      1 NAI450      0.0000 
     42 C4N        57.3840  -55.7080  -36.9940 C.3       1 NAI450      0.0000 
     43 C5N        56.4960  -56.5270  -36.3020 C.2       1 NAI450      0.0000 
     44 C6N        56.9400  -57.7810  -35.8450 C.2       1 NAI450      0.0000 
     45 H          56.1561  -66.6478  -33.1375 H         1 NAI450      0.0000 
     46 H          56.7395  -66.0197  -34.6884 H         1 NAI450      0.0000 
     47 H          55.6320  -67.9662  -35.7815 H         1 NAI450      0.0000 
     48 H          54.6159  -68.3775  -33.2287 H         1 NAI450      0.0000 
     49 H          56.3835  -69.5782  -32.4384 H         1 NAI450      0.0000 
     50 H          56.9388  -70.5478  -35.1773 H         1 NAI450      0.0000 
     51 H          58.5848  -69.3043  -31.9555 H         1 NAI450      0.0000 
     52 H          62.8072  -71.2840  -32.6163 H         1 NAI450      0.0000 
     53 H          63.5956  -72.1803  -33.9582 H         1 NAI450      0.0000 
     54 H          60.5087  -72.5063  -37.2095 H         1 NAI450      0.0000 
     55 H          57.0026  -62.9975  -36.9203 H         1 NAI450      0.0000 
     56 H          56.9781  -63.5255  -35.2289 H         1 NAI450      0.0000 
     57 H          59.0754  -62.4548  -35.7834 H         1 NAI450      0.0000 
     58 H          57.5344  -61.8319  -33.6100 H         1 NAI450      0.0000 
     59 H          56.9648  -59.7175  -34.3136 H         1 NAI450      0.0000 
     60 H          59.7083  -59.5820  -35.4205 H         1 NAI450      0.0000 
     61 H          60.0504  -57.7674  -36.9971 H         1 NAI450      0.0000 
     62 H          60.4576  -56.8322  -39.0011 H         1 NAI450      0.0000 
     63 H          60.9371  -55.1756  -39.5022 H         1 NAI450      0.0000 
     64 H          56.9073  -55.3923  -37.9922 H         1 NAI450      0.0000 
     65 H          57.4555  -54.6918  -36.4596 H         1 NAI450      0.0000 
     66 H          55.5384  -56.2288  -36.1260 H         1 NAI450      0.0000 
     67 H          56.2767  -58.3723  -35.3020 H         1 NAI450      0.0000 
     68 H          54.7191  -70.2109  -35.3928 H         1 NAI450      0.0000 
     69 H          55.4763  -71.5884  -34.2339 H         1 NAI450      0.0000 
     70 H          60.0567  -62.0255  -34.4458 H         1 NAI450      0.0000 
     71 H          59.3743  -59.8356  -32.9172 H         1 NAI450      0.0000 
@<TRIPOS>BOND
     1    2    1 ar   
     2    3    1 ar   
     3    4    1 1    
     4   23    1 1    
     5    5    4 1    
     6    6    5 1    
     7   45    5 1    
     8   46    5 1    
     9    7    6 1    
    10    8    6 1    
    11   47    6 1    
    12   12    7 1    
    13    9    8 1    
    14   10    8 1    
    15   48    8 1    
    16   68    9 1    
    17   11   10 1    
    18   12   10 1    
    19   49   10 1    
    20   69   11 1    
    21   13   12 1    
    22   50   12 1    
    23   14   13 1    
    24   22   13 1    
    25   15   14 2    
    26   51   14 1    
    27   16   15 1    
    28   17   16 ar   
    29   22   16 ar   
    30   18   17 1    
    31   19   17 ar   
    32   52   18 1    
    33   53   18 1    
    34   20   19 ar   
    35   21   20 ar   
    36   54   20 1    
    37   22   21 ar   
    38   24   23 1    
    39   25   24 ar   
    40   26   24 ar   
    41   27   24 1    
    42   28   27 1    
    43   29   28 1    
    44   55   28 1    
    45   56   28 1    
    46   30   29 1    
    47   31   29 1    
    48   57   29 1    
    49   35   30 1    
    50   32   31 1    
    51   33   31 1    
    52   58   31 1    
    53   70   32 1    
    54   34   33 1    
    55   35   33 1    
    56   59   33 1    
    57   71   34 1    
    58   36   35 1    
    59   60   35 1    
    60   37   36 1    
    61   44   36 1    
    62   38   37 2    
    63   61   37 1    
    64   39   38 1    
    65   42   38 1    
    66   40   39 2    
    67   41   39 am   
    68   62   41 1    
    69   63   41 1    
    70   43   42 1    
    71   64   42 1    
    72   65   42 1    
    73   44   43 2    
    74   66   43 1    
    75   67   44 1    
@<TRIPOS>SUBSTRUCTURE
     1 NAI450      1 GROUP   
@<TRIPOS>SET

