#    Name: 2g26_3LG_1_INTS_M
#    Modification time : Tue Mar 25 13:30:53 2014

@<TRIPOS>MOLECULE
2g26_3LG_1_INTS_M
   86     0     6     0     0
SMALL
NO_CHARGES


@<TRIPOS>ATOM
      1 CA         20.2060   44.3690  128.5360 C.3       2 GLC5        0.0000 
      2 CA         18.3530   43.9710  127.5310 C.3       6 GLL5        0.0000 
      3 CA         22.0590   44.7670  129.5410 C.3       4 GLP5        0.0000 
      4 CA         17.5790   44.0490  126.0865 C.3       2 GLC5        0.0000 
      5 CA         16.8050   44.1270  124.6420 C.3       4 GLP5        0.0000 
      6 CA         16.7770   43.4200  127.9260 C.3       2 GLC5        0.0000 
      7 CA         15.2010   42.8690  128.3210 C.3       4 GLP5        0.0000 
      8 CA         16.3155   46.2285  131.9300 C.3       2 GLC5        0.0000 
      9 CA         17.8400   46.5190  130.6520 C.3       6 GLL5        0.0000 
     10 CA         14.7910   45.9380  133.2080 C.3       4 GLP5        0.0000 
     11 CA         17.9985   47.6095  132.3190 C.3       2 GLC5        0.0000 
     12 CA         18.1570   48.7000  133.9860 C.3       4 GLP5        0.0000 
     13 CA         21.0935   48.0815  129.0975 C.3       2 GLC5        0.0000 
     14 CA         20.2080   47.7750  127.2080 C.3       6 GLL5        0.0000 
     15 CA         21.9790   48.3880  130.9870 C.3       4 GLP5        0.0000 
     16 CA         20.8795   49.4320  129.3755 C.3       2 GLC5        0.0000 
     17 CA         19.8010   48.7420  128.1530 C.3       6 GLL5        0.0000 
     18 CA         21.9580   50.1220  130.5980 C.3       4 GLP5        0.0000 
     19 OD1        15.1350   36.3865  128.9915 O.co2     1 ASC3        0.0000 
     20 OD1        16.0640   35.2040  128.5550 O.co2     5 ASL3        0.0000 
     21 OD1        14.2060   37.5690  129.4280 O.co2     3 ASP3        0.0000 
     22 OD1        14.7185   35.6630  128.2780 O.co2     1 ASC3        0.0000 
     23 OD1        13.3730   36.1220  128.0010 O.co2     3 ASP3        0.0000 
     24 OD1        15.9910   34.0635  127.9230 O.co2     1 ASC3        0.0000 
     25 OD1        15.9180   32.9230  127.2910 O.co2     3 ASP3        0.0000 
     26 OD1        15.0455   34.5430  127.6095 O.co2     1 ASC3        0.0000 
     27 OD1        14.0270   33.8820  126.6640 O.co2     3 ASP3        0.0000 
     28 CA         14.9825   34.4995  129.9930 C.3       2 GLC5        0.0000 
     29 CA         16.8180   35.1190  129.7980 C.3       6 GLL5        0.0000 
     30 CA         13.1470   33.8800  130.1880 C.3       4 GLP5        0.0000 
     31 CA         15.1465   38.7115  131.5225 C.3       2 GLC5        0.0000 
     32 CA         16.5590   39.7000  130.4480 C.3       6 GLL5        0.0000 
     33 CA         13.7340   37.7230  132.5970 C.3       4 GLP5        0.0000 
     34 CA         14.9245   40.6620  129.8855 C.3       2 GLC5        0.0000 
     35 CA         13.2900   41.6240  129.3230 C.3       4 GLP5        0.0000 
     36 CA         16.8695   42.9910  133.8670 C.3       2 GLC5        0.0000 
     37 CA         18.4430   42.8860  132.9490 C.3       6 GLL5        0.0000 
     38 CA         15.2960   43.0960  134.7850 C.3       4 GLP5        0.0000 
     39 CA         20.2060   43.3325  131.7315 C.3       2 GLC5        0.0000 
     40 CA         21.9690   43.7790  130.5140 C.3       4 GLP5        0.0000 
     41 CA         16.7600   44.3965  134.1565 C.3       2 GLC5        0.0000 
     42 CA         18.0900   44.3790  133.0870 C.3       6 GLL5        0.0000 
     43 CA         15.4300   44.4140  135.2260 C.3       4 GLP5        0.0000 
     44 CA         16.9160   45.6360  132.7615 C.3       2 GLC5        0.0000 
     45 CA         19.0410   45.3340  132.3150 C.3       6 GLL5        0.0000 
     46 CA         20.5100   46.8610  131.6510 C.3       2 GLC5        0.0000 
     47 CA         20.5050   44.5565  131.4145 C.3       2 GLC5        0.0000 
     48 CA         22.5075   44.1365  125.6815 C.3       2 GLC5        0.0000 
     49 CA         21.4420   42.6560  124.7750 C.3       6 GLL5        0.0000 
     50 CA         23.5730   45.6170  126.5880 C.3       4 GLP5        0.0000 
     51 CA         23.8380   42.1295  124.4780 C.3       2 GLC5        0.0000 
     52 CA         21.9680   42.6890  123.4910 C.3       6 GLL5        0.0000 
     53 CA         25.7080   41.5700  125.4650 C.3       4 GLP5        0.0000 
     54 CA         23.5040   43.4700  122.3855 C.3       2 GLC5        0.0000 
     55 CA         25.0400   44.2510  121.2800 C.3       4 GLP5        0.0000 
     56 CA         20.4490   41.6650  120.1560 C.3       2 GLC5        0.0000 
     57 CA         22.0980   41.3280  121.4050 C.3       6 GLL5        0.0000 
     58 CA         18.8000   42.0020  118.9070 C.3       4 GLP5        0.0000 
     59 CA         23.5690   42.7895  121.3425 C.3       2 GLC5        0.0000 
     60 CA         21.4250   46.2290  127.9700 C.3       2 GLC5        0.0000 
     61 CA         19.0760   46.0300  128.5230 C.3       6 GLL5        0.0000 
     62 CA         23.3870   46.2310  127.9830 C.3       4 GLP5        0.0000 
     63 CA         16.5095   47.0443  128.9688 C.3       2 GLC5        0.0000 
     64 CA         18.6600   47.0000  129.4790 C.3       6 GLL5        0.0000 
     65 CA         14.7690   47.3290  127.8720 C.3       4 GLP5        0.0000 
     66 CA         20.0835   46.4198  125.3108 C.3       2 GLC5        0.0000 
     67 CA         19.8500   46.4240  127.3910 C.3       6 GLL5        0.0000 
     68 CA         20.1380   45.7400  123.3220 C.3       4 GLP5        0.0000 
     69 CA         19.8762   49.3633  126.0252 C.3       2 GLC5        0.0000 
     70 CA         19.7480   50.4680  124.3700 C.3       4 GLP5        0.0000 
     71 CA         21.6958   47.2447  127.8317 C.3       2 GLC5        0.0000 
     72 CA         18.5880   50.1010  129.0023 C.3       2 GLC5        0.0000 
     73 CA         17.7600   51.6510  129.2860 C.3       4 GLP5        0.0000 
     74 CA         20.4642   47.9128  130.0648 C.3       2 GLC5        0.0000 
     75 CA         19.0310   48.3600  129.2840 C.3       6 GLL5        0.0000 
     76 CA         15.4917   36.6650  126.1420 C.3       2 GLC5        0.0000 
     77 CA         16.9280   37.4500  127.9310 C.3       6 GLL5        0.0000 
     78 CA         14.2290   36.6000  124.5870 C.3       4 GLP5        0.0000 
     79 CA         16.3970   42.0165  129.6770 C.3       2 GLC5        0.0000 
     80 CA         16.9070   40.9630  130.9930 C.3       6 GLL5        0.0000 
     81 CA         19.7372   45.4933  134.1590 C.3       2 GLC5        0.0000 
     82 CA         20.9090   46.1300  135.6170 C.3       4 GLP5        0.0000 
     83 CA         18.3612   46.7782  133.3435 C.3       2 GLC5        0.0000 
     84 CA         22.9487   41.6472  125.7265 C.3       2 GLC5        0.0000 
     85 CA         24.8010   41.2630  126.6170 C.3       4 GLP5        0.0000 
     86 CA         20.9215   44.2062  123.7275 C.3       2 GLC5        0.0000 
@<TRIPOS>BOND
@<TRIPOS>SUBSTRUCTURE
     1 ASC3       19 GROUP        1 X    ASC  0     ROOT ASC X 3
     2 GLC5        1 GROUP        1 X    GLC  0     **** GLC X 6
     3 ASP3       21 GROUP        1 Y    ASP  0     ROOT ASP Y 10
     4 GLP5        3 GROUP        1 Y    GLP  0     **** GLP Y 13
     5 ASL3       20 GROUP        1 Z    ASL  0     ROOT ASL Z 17
     6 GLL5        2 GROUP        1 Z    GLL  0     **** GLL Z 20
@<TRIPOS>SET

