#    Name: 2g26_3LG_1_ligand
#    Modification time : Tue Mar 25 13:30:53 2014

@<TRIPOS>MOLECULE
2g26_3LG_1_ligand
   75    79     1     0     0
SMALL
NO_CHARGES


@<TRIPOS>ATOM
      1 C1         18.3530   43.9710  127.5310 C.3       1 3LG805      0.0000 
      2 O1         18.7240   44.6730  128.7080 O.3       1 3LG805      0.0000 
      3 C2         19.0760   46.0300  128.5230 C.ar      1 3LG805      0.0000 
      4 C3         18.6600   47.0000  129.4790 C.ar      1 3LG805      0.0000 
      5 C4         17.8400   46.5190  130.6520 C.3       1 3LG805      0.0000 
      6 O2         18.4450   46.5680  131.9210 O.3       1 3LG805      0.0000 
      7 C5         19.8500   46.4240  127.3910 C.ar      1 3LG805      0.0000 
      8 C6         20.2080   47.7750  127.2080 C.ar      1 3LG805      0.0000 
      9 C7         19.8010   48.7420  128.1530 C.ar      1 3LG805      0.0000 
     10 C8         19.0310   48.3600  129.2840 C.ar      1 3LG805      0.0000 
     11 C20        16.9280   37.4500  127.9310 C.3       1 3LG805      0.0000 
     12 C21        16.5810   36.0100  127.4630 C.3       1 3LG805      0.0000 
     13 N2         16.0640   35.2040  128.5550 N.4       1 3LG805      0.0000 
     14 C22        16.8180   35.1190  129.7980 C.3       1 3LG805      0.0000 
     15 C23        17.1960   36.5190  130.3340 C.2       1 3LG805      0.0000 
     16 N3         17.2350   37.5820  129.4320 N.am      1 3LG805      0.0000 
     17 O5         17.4400   36.6310  131.5350 O.2       1 3LG805      0.0000 
     18 C24        18.0620   37.9420  126.9290 C.3       1 3LG805      0.0000 
     19 O6         18.7690   39.1550  126.9880 O.3       1 3LG805      0.0000 
     20 C25        18.9400   39.2320  130.0660 C.ar      1 3LG805      0.0000 
     21 C26        17.5740   38.8200  129.9740 C.ar      1 3LG805      0.0000 
     22 C27        16.5590   39.7000  130.4480 C.ar      1 3LG805      0.0000 
     23 C28        16.9070   40.9630  130.9930 C.ar      1 3LG805      0.0000 
     24 C29        18.2790   41.3650  131.0730 C.ar      1 3LG805      0.0000 
     25 C30        19.2820   40.4870  130.6060 C.ar      1 3LG805      0.0000 
     26 O7         18.6870   42.5990  131.5840 O.3       1 3LG805      0.0000 
     27 C31        18.4430   42.8860  132.9490 C.3       1 3LG805      0.0000 
     28 C32        18.0900   44.3790  133.0870 C.3       1 3LG805      0.0000 
     29 C33        19.0410   45.3340  132.3150 C.3       1 3LG805      0.0000 
     30 N1         21.6550   41.5570  122.8110 N.pl3     1 3LG805      0.0000 
     31 C9         20.8980   40.7110  123.6420 C.ar      1 3LG805      0.0000 
     32 C10        20.7510   41.4070  124.8970 C.ar      1 3LG805      0.0000 
     33 C11        21.4420   42.6560  124.7750 C.2       1 3LG805      0.0000 
     34 C12        21.9680   42.6890  123.4910 C.2       1 3LG805      0.0000 
     35 C13        20.2940   39.4440  123.5190 C.ar      1 3LG805      0.0000 
     36 C14        19.5720   38.8660  124.6000 C.ar      1 3LG805      0.0000 
     37 C15        19.4430   39.5830  125.8410 C.ar      1 3LG805      0.0000 
     38 C16        20.0510   40.8540  125.9540 C.ar      1 3LG805      0.0000 
     39 C17        22.0980   41.3280  121.4050 C.3       1 3LG805      0.0000 
     40 C18        23.2670   40.3730  121.1080 C.2       1 3LG805      0.0000 
     41 O3         23.2890   40.0310  119.7990 O.co2     1 3LG805      0.0000 
     42 O4         24.0480   39.9710  121.9060 O.co2     1 3LG805      0.0000 
     43 H          17.4992   45.4673  130.4066 H         1 3LG805      0.0000 
     44 H          16.8730   47.1083  130.6417 H         1 3LG805      0.0000 
     45 H          20.1427   45.7173  126.7136 H         1 3LG805      0.0000 
     46 H          20.7589   48.0541  126.3965 H         1 3LG805      0.0000 
     47 H          20.0597   49.7226  128.0261 H         1 3LG805      0.0000 
     48 H          18.7410   49.0658  129.9629 H         1 3LG805      0.0000 
     49 H          16.0382   38.0664  127.6824 H         1 3LG805      0.0000 
     50 H          17.4960   35.5732  127.0411 H         1 3LG805      0.0000 
     51 H          15.8495   36.0975  126.6486 H         1 3LG805      0.0000 
     52 H          17.7503   34.5541  129.6587 H         1 3LG805      0.0000 
     53 H          16.2377   34.6097  130.5800 H         1 3LG805      0.0000 
     54 H          17.5743   37.8046  125.8722 H         1 3LG805      0.0000 
     55 H          18.8059   37.0373  126.8893 H         1 3LG805      0.0000 
     56 H          19.6737   38.5987  129.7318 H         1 3LG805      0.0000 
     57 H          15.5806   39.4193  130.3944 H         1 3LG805      0.0000 
     58 H          16.1796   41.5925  131.3314 H         1 3LG805      0.0000 
     59 H          20.2669   40.7673  130.6614 H         1 3LG805      0.0000 
     60 H          19.3179   42.6988  133.5762 H         1 3LG805      0.0000 
     61 H          17.6029   42.3142  133.3506 H         1 3LG805      0.0000 
     62 H          18.1080   44.6543  134.1515 H         1 3LG805      0.0000 
     63 H          17.0644   44.5395  132.7240 H         1 3LG805      0.0000 
     64 H          19.9281   45.4968  132.9688 H         1 3LG805      0.0000 
     65 H          19.4216   44.7632  131.4373 H         1 3LG805      0.0000 
     66 H          21.5095   43.3002  125.4407 H         1 3LG805      0.0000 
     67 H          22.4892   43.4322  123.1412 H         1 3LG805      0.0000 
     68 H          20.3729   38.9240  122.6360 H         1 3LG805      0.0000 
     69 H          19.1463   37.9507  124.5034 H         1 3LG805      0.0000 
     70 H          19.9636   41.3679  126.8463 H         1 3LG805      0.0000 
     71 H          22.3507   42.3261  120.9301 H         1 3LG805      0.0000 
     72 H          21.2121   40.9755  120.7913 H         1 3LG805      0.0000 
     73 H          19.0913   43.9605  126.8566 H         1 3LG805      0.0000 
     74 H          18.1195   43.0182  127.7249 H         1 3LG805      0.0000 
     75 H          17.5571   44.3835  127.0879 H         1 3LG805      0.0000 
@<TRIPOS>BOND
     1    2    1 1    
     2   73    1 1    
     3   74    1 1    
     4   75    1 1    
     5    3    2 1    
     6    4    3 ar   
     7    7    3 ar   
     8    5    4 1    
     9   10    4 ar   
    10    6    5 1    
    11   43    5 1    
    12   44    5 1    
    13   29    6 1    
    14    8    7 ar   
    15   45    7 1    
    16    9    8 ar   
    17   46    8 1    
    18   10    9 ar   
    19   47    9 1    
    20   48   10 1    
    21   12   11 1    
    22   16   11 1    
    23   18   11 1    
    24   49   11 1    
    25   13   12 1    
    26   50   12 1    
    27   51   12 1    
    28   14   13 1    
    29   15   14 1    
    30   52   14 1    
    31   53   14 1    
    32   16   15 am   
    33   17   15 2    
    34   21   16 1    
    35   19   18 1    
    36   54   18 1    
    37   55   18 1    
    38   37   19 1    
    39   21   20 ar   
    40   25   20 ar   
    41   56   20 1    
    42   22   21 ar   
    43   23   22 ar   
    44   57   22 1    
    45   24   23 ar   
    46   58   23 1    
    47   25   24 ar   
    48   26   24 1    
    49   59   25 1    
    50   27   26 1    
    51   28   27 1    
    52   60   27 1    
    53   61   27 1    
    54   29   28 1    
    55   62   28 1    
    56   63   28 1    
    57   64   29 1    
    58   65   29 1    
    59   31   30 1    
    60   34   30 1    
    61   39   30 1    
    62   32   31 ar   
    63   35   31 ar   
    64   33   32 1    
    65   38   32 ar   
    66   34   33 2    
    67   66   33 1    
    68   67   34 1    
    69   36   35 ar   
    70   68   35 1    
    71   37   36 ar   
    72   69   36 1    
    73   38   37 ar   
    74   70   38 1    
    75   40   39 1    
    76   71   39 1    
    77   72   39 1    
    78   41   40 ar   
    79   42   40 ar   
@<TRIPOS>SUBSTRUCTURE
     1 3LG805      1 GROUP   
@<TRIPOS>SET

