#    Name: 4anp_3QI_1_INTS_M
#    Modification time : Tue Mar 25 05:49:57 2014

@<TRIPOS>MOLECULE
4anp_3QI_1_INTS_M
   39     0     6     0     0
SMALL
NO_CHARGES


@<TRIPOS>ATOM
      1 CA         -9.0985   27.8735    7.8590 C.3       2 GLC5        0.0000 
      2 CA         -7.0990   27.9020    7.0710 C.3       6 GLL5        0.0000 
      3 CA        -11.0980   27.8450    8.6470 C.3       4 GLP5        0.0000 
      4 CA         -6.4750   27.1000    8.8970 C.3       2 GLC5        0.0000 
      5 CA         -5.8510   26.2980   10.7230 C.3       4 GLP5        0.0000 
      6 CA         -5.2435   29.0530    7.2970 C.3       2 GLC5        0.0000 
      7 CA         -3.3880   30.2040    7.5230 C.3       4 GLP5        0.0000 
      8 CA         -3.6645   25.7125    1.1785 C.3       2 GLC5        0.0000 
      9 CA         -4.2190   23.9640    0.5680 C.3       6 GLL5        0.0000 
     10 CA         -3.1100   27.4610    1.7890 C.3       4 GLP5        0.0000 
     11 CA         -3.1580   24.9520    9.0665 C.3       2 GLC5        0.0000 
     12 CA         -2.5290   24.8160    7.4210 C.3       6 GLL5        0.0000 
     13 CA         -3.7870   25.0880   10.7120 C.3       4 GLP5        0.0000 
     14 CA         -1.5305   24.3135    9.2810 C.3       2 GLC5        0.0000 
     15 CA         -0.5320   23.8110   11.1410 C.3       4 GLP5        0.0000 
     16 CA         -2.4135   26.7110    8.1955 C.3       2 GLC5        0.0000 
     17 CA         -2.2980   28.6060    8.9700 C.3       4 GLP5        0.0000 
     18 CA         -7.9310   23.3440    5.4965 C.3       2 GLC5        0.0000 
     19 CA         -7.0190   24.0520    7.1730 C.3       6 GLL5        0.0000 
     20 CA         -8.8430   22.6360    3.8200 C.3       4 GLP5        0.0000 
     21 Zn         -0.7540   24.6935    5.4835 Zn        1 ZIC7        0.0000 
     22 Zn         -1.6190   24.4400    4.9300 Zn        5 ZIL7        0.0000 
     23 Zn          0.1110   24.9470    6.0370 Zn        3 ZIP7        0.0000 
     24 CA         -0.6270   21.9710    2.6950 C.3       2 GLC5        0.0000 
     25 CA         -0.5700   24.0040    2.3430 C.3       6 GLL5        0.0000 
     26 CA         -0.6840   19.9380    3.0470 C.3       4 GLP5        0.0000 
     27 CA         -2.3095   22.3830    3.7910 C.3       2 GLC5        0.0000 
     28 CA         -1.7800   24.2540    3.5460 C.3       6 GLL5        0.0000 
     29 CA         -2.8390   20.5120    4.0360 C.3       4 GLP5        0.0000 
     30 CA         -1.9085   21.7420    0.0122 C.3       2 GLC5        0.0000 
     31 CA         -1.6770   23.8900    1.0190 C.3       6 GLL5        0.0000 
     32 CA         -2.3450   19.7080   -0.2550 C.3       4 GLP5        0.0000 
     33 CA          0.3010   23.2920    3.9352 C.3       2 GLC5        0.0000 
     34 CA          1.7770   22.4550    4.9260 C.3       4 GLP5        0.0000 
     35 CA         -7.5162   25.3466    8.8866 C.3       2 GLC5        0.0000 
     36 CA         -8.0780   25.1160   10.7080 C.3       4 GLP5        0.0000 
     37 CA         -2.9339   22.3169    2.2586 C.3       2 GLC5        0.0000 
     38 CA         -2.9900   24.0270    1.5150 C.3       6 GLL5        0.0000 
     39 CA         -3.0110   20.5500    2.5370 C.3       4 GLP5        0.0000 
@<TRIPOS>BOND
@<TRIPOS>SUBSTRUCTURE
     1 ZIC7       21 GROUP        1 X    ZIC  0     ROOT ZIC X 5
     2 GLC5        1 GROUP        1 X    GLC  0     **** GLC X 6
     3 ZIP7       23 GROUP        1 Y    ZIP  0     ROOT ZIP Y 12
     4 GLP5        3 GROUP        1 Y    GLP  0     **** GLP Y 13
     5 ZIL7       22 GROUP        1 Z    ZIL  0     ROOT ZIL Z 19
     6 GLL5        2 GROUP        1 Z    GLL  0     **** GLL Z 20
@<TRIPOS>SET

