#    Name: 4anp_3QI_1_ligand
#    Modification time : Tue Mar 25 05:49:57 2014

@<TRIPOS>MOLECULE
4anp_3QI_1_ligand
   32    34     1     0     0
SMALL
NO_CHARGES


@<TRIPOS>ATOM
      1 CAA        -7.0990   27.9020    7.0710 C.3       1 3QI1427     0.0000 
      2 CAB        -1.2670   23.6620   -0.4600 C.3       1 3QI1427     0.0000 
      3 CAC        -4.2190   23.9640    0.5680 C.3       1 3QI1427     0.0000 
      4 OAD        -5.3590   24.4160    3.3150 O.2       1 3QI1427     0.0000 
      5 SAE        -2.5290   24.8160    7.4210 S.3       1 3QI1427     0.0000 
      6 CAF        -7.0190   24.0520    7.1730 C.ar      1 3QI1427     0.0000 
      7 CAG        -7.4290   25.3790    7.3820 C.ar      1 3QI1427     0.0000 
      8 CAH        -5.5350   26.1510    6.1260 C.ar      1 3QI1427     0.0000 
      9 NAI        -5.9140   23.7990    6.4650 N.ar      1 3QI1427     0.0000 
     10 NAJ        -1.6190   24.4400    4.9300 N.2       1 3QI1427     0.0000 
     11 SAK        -0.5700   24.0040    2.3430 S.3       1 3QI1427     0.0000 
     12 CAL        -6.6850   26.4390    6.8530 C.ar      1 3QI1427     0.0000 
     13 CAM        -1.6770   23.8900    1.0190 C.2       1 3QI1427     0.0000 
     14 CAN        -2.9900   24.0270    1.5150 C.2       1 3QI1427     0.0000 
     15 CAO        -5.1670   24.8050    5.9540 C.ar      1 3QI1427     0.0000 
     16 CAP        -2.7480   24.6200    5.7490 C.2       1 3QI1427     0.0000 
     17 CAQ        -4.1990   24.4060    3.7710 C.2       1 3QI1427     0.0000 
     18 CAR        -1.7800   24.2540    3.5460 C.2       1 3QI1427     0.0000 
     19 CAS        -3.0730   24.2250    2.9300 C.2       1 3QI1427     0.0000 
     20 NAT        -4.0250   24.5890    5.1830 N.am      1 3QI1427     0.0000 
     21 H          -7.5927   23.2925    7.5794 H         1 3QI1427     0.0000 
     22 H          -8.2788   25.5693    7.9257 H         1 3QI1427     0.0000 
     23 H          -4.9681   26.8924    5.7249 H         1 3QI1427     0.0000 
     24 H          -7.1276   28.1391    8.0421 H         1 3QI1427     0.0000 
     25 H          -6.4630   28.5372    6.6328 H         1 3QI1427     0.0000 
     26 H          -8.0067   28.0909    6.6963 H         1 3QI1427     0.0000 
     27 H          -0.6707   24.3907   -0.7967 H         1 3QI1427     0.0000 
     28 H          -0.7736   22.8005   -0.5800 H         1 3QI1427     0.0000 
     29 H          -2.0624   23.6310   -1.0653 H         1 3QI1427     0.0000 
     30 H          -4.1878   24.6803   -0.1291 H         1 3QI1427     0.0000 
     31 H          -4.2727   23.0890    0.0869 H         1 3QI1427     0.0000 
     32 H          -5.0783   24.0775    1.0667 H         1 3QI1427     0.0000 
@<TRIPOS>BOND
     1   12    1 1    
     2   24    1 1    
     3   25    1 1    
     4   26    1 1    
     5   13    2 1    
     6   27    2 1    
     7   28    2 1    
     8   29    2 1    
     9   14    3 1    
    10   30    3 1    
    11   31    3 1    
    12   32    3 1    
    13   17    4 2    
    14   16    5 1    
    15    7    6 ar   
    16    9    6 ar   
    17   21    6 1    
    18   12    7 ar   
    19   22    7 1    
    20   12    8 ar   
    21   15    8 ar   
    22   23    8 1    
    23   15    9 ar   
    24   16   10 2    
    25   18   10 1    
    26   13   11 1    
    27   18   11 1    
    28   14   13 2    
    29   19   14 1    
    30   20   15 1    
    31   20   16 1    
    32   19   17 1    
    33   20   17 am   
    34   19   18 2    
@<TRIPOS>SUBSTRUCTURE
     1 3QI1427     1 GROUP   
@<TRIPOS>SET

