#    Name: 3att_ATP_1_INTS_M
#    Modification time : Mon Mar 24 18:12:14 2014

@<TRIPOS>MOLECULE
3att_ATP_1_INTS_M
   51     0    15     0     0
SMALL
NO_CHARGES


@<TRIPOS>ATOM
      1 Zn          5.9535   33.1520   69.0350 Zn        4 ZIC7        0.0000 
      2 Zn          5.3070   33.7840   68.3550 Zn       14 ZIL7        0.0000 
      3 Zn          6.6000   32.5200   69.7150 Zn        9 ZIP7        0.0000 
      4 NZ          3.4830   29.5190   71.0525 N.4       3 LYC4        0.0000 
      5 NZ          3.4170   30.7530   70.2140 N.4      13 LYL4        0.0000 
      6 NZ          2.4620   27.5280   71.6780 N.4       8 LYP4        0.0000 
      7 Zn          3.6435   30.6420   69.0645 Zn        4 ZIC7        0.0000 
      8 Zn          3.4170   30.7530   70.2140 Zn       14 ZIL7        0.0000 
      9 Zn          3.8700   30.5310   67.9150 Zn        9 ZIP7        0.0000 
     10 N           3.4830   29.5190   71.0525 N.am      2 SEC2        0.0000 
     11 N           3.4170   30.7530   70.2140 N.am     12 SEL2        0.0000 
     12 N           3.5490   28.2850   71.8910 N.am      7 SEP2        0.0000 
     13 Zn          5.4525   32.5960   69.8895 Zn        4 ZIC7        0.0000 
     14 Zn          4.3050   32.6720   70.0640 Zn       14 ZIL7        0.0000 
     15 Zn          6.6040   32.2230   70.7815 Zn        4 ZIC7        0.0000 
     16 Zn          6.6080   31.9260   71.8480 Zn       14 ZIL7        0.0000 
     17 CA          3.5305   31.7970   74.1550 C.3       5 GLC5        0.0000 
     18 CA          5.2270   33.2630   74.2680 C.3      15 GLL5        0.0000 
     19 CA          1.8340   30.3310   74.0420 C.3      10 GLP5        0.0000 
     20 CA          9.5100   33.2795   78.0685 C.3       5 GLC5        0.0000 
     21 CA          7.5240   33.6530   77.1380 C.3      15 GLL5        0.0000 
     22 CA         11.4960   32.9060   78.9990 C.3      10 GLP5        0.0000 
     23 CA          5.1485   33.7150   79.4190 C.3       5 GLC5        0.0000 
     24 CA          6.1600   33.2710   77.6470 C.3      15 GLL5        0.0000 
     25 CA          4.1370   34.1590   81.1910 C.3      10 GLP5        0.0000 
     26 CA          7.0855   28.5810   82.0255 C.3       5 GLC5        0.0000 
     27 CA          7.1430   28.9180   79.9060 C.3      15 GLL5        0.0000 
     28 CA          7.0280   28.2440   84.1450 C.3      10 GLP5        0.0000 
     29 O           6.8650   26.7575   81.1725 O.2       1 ALC1        0.0000 
     30 O           7.0510   27.5540   79.9260 O.2      11 ALL1        0.0000 
     31 O           6.6790   25.9610   82.4190 O.2       6 ALP1        0.0000 
     32 N           8.4725   29.1250   82.1525 N.am      2 SEC2        0.0000 
     33 N           7.6940   29.5610   80.9610 N.am     12 SEL2        0.0000 
     34 N           9.2510   28.6890   83.3440 N.am      7 SEP2        0.0000 
     35 CA          6.0100   30.0605   81.2970 C.3       5 GLC5        0.0000 
     36 CA          7.8030   30.9050   81.0820 C.3      15 GLL5        0.0000 
     37 CA          4.2170   29.2160   81.5120 C.3      10 GLP5        0.0000 
     38 CA          7.4155   29.5745   82.6135 C.3       5 GLC5        0.0000 
     39 CA          9.2490   29.8190   82.2265 C.3       5 GLC5        0.0000 
     40 CA         10.6950   28.7330   83.3710 C.3      10 GLP5        0.0000 
     41 CA          9.3335   30.7255   80.1335 C.3       5 GLC5        0.0000 
     42 CA         10.8640   30.5460   79.1850 C.3      10 GLP5        0.0000 
     43 CA          7.9345   30.7940   77.2590 C.3       5 GLC5        0.0000 
     44 CA          6.7650   31.2310   78.9850 C.3      15 GLL5        0.0000 
     45 CA          9.1040   30.3570   75.5330 C.3      10 GLP5        0.0000 
     46 CA          8.2780   31.9870   75.9530 C.3       5 GLC5        0.0000 
     47 CA          8.0685   28.6470   77.7830 C.3       5 GLC5        0.0000 
     48 CA          9.2510   27.9520   76.2080 C.3      10 GLP5        0.0000 
     49 CA          5.5213   29.7512   80.3418 C.3       5 GLC5        0.0000 
     50 CA          6.6290   29.7660   78.8100 C.3      15 GLL5        0.0000 
     51 CA          8.8448   30.4162   79.1783 C.3       5 GLC5        0.0000 
@<TRIPOS>BOND
@<TRIPOS>SUBSTRUCTURE
     1 ALC1       29 GROUP        1 X    ALC  0     ROOT ALC X 1
     2 SEC2       10 GROUP        1 X    SEC  0     **** SEC X 2
     3 LYC4        4 GROUP        1 X    LYC  0     **** LYC X 4
     4 ZIC7        1 GROUP        1 X    ZIC  0     **** ZIC X 5
     5 GLC5       17 GROUP        1 X    GLC  0     **** GLC X 6
     6 ALP1       31 GROUP        1 Y    ALP  0     ROOT ALP Y 8
     7 SEP2       12 GROUP        1 Y    SEP  0     **** SEP Y 9
     8 LYP4        6 GROUP        1 Y    LYP  0     **** LYP Y 11
     9 ZIP7        3 GROUP        1 Y    ZIP  0     **** ZIP Y 12
    10 GLP5       19 GROUP        1 Y    GLP  0     **** GLP Y 13
    11 ALL1       30 GROUP        1 Z    ALL  0     ROOT ALL Z 15
    12 SEL2       11 GROUP        1 Z    SEL  0     **** SEL Z 16
    13 LYL4        5 GROUP        1 Z    LYL  0     **** LYL Z 18
    14 ZIL7        2 GROUP        1 Z    ZIL  0     **** ZIL Z 19
    15 GLL5       18 GROUP        1 Z    GLL  0     **** GLL Z 20
@<TRIPOS>SET

