#    Name: 3att_ATP_1_ligand
#    Modification time : Mon Mar 24 18:12:14 2014

@<TRIPOS>MOLECULE
3att_ATP_1_ligand
   43    45     1     0     0
SMALL
NO_CHARGES


@<TRIPOS>ATOM
      1 PG          4.5640   34.2230   69.6660 P.3       1 ATP510      0.0000 
      2 O1G         5.3070   33.7840   68.3550 O.co2     1 ATP510      0.0000 
      3 O2G         5.4440   34.9230   70.6950 O.co2     1 ATP510      0.0000 
      4 O3G         3.1420   34.7700   69.5160 O.co2     1 ATP510      0.0000 
      5 PB          3.3410   31.9800   71.0900 P.3       1 ATP510      0.0000 
      6 O1B         1.8740   32.0840   71.2860 O.co2     1 ATP510      0.0000 
      7 O2B         3.4170   30.7530   70.2140 O.co2     1 ATP510      0.0000 
      8 O3B         4.3050   32.6720   70.0640 O.3       1 ATP510      0.0000 
      9 PA          5.5990   31.2100   72.7390 P.3       1 ATP510      0.0000 
     10 O1A         5.6840   29.7050   72.9970 O.co2     1 ATP510      0.0000 
     11 O2A         6.6080   31.9260   71.8480 O.co2     1 ATP510      0.0000 
     12 O3A         4.0860   31.6080   72.4480 O.3       1 ATP510      0.0000 
     13 O5'         5.6890   31.9160   74.1730 O.3       1 ATP510      0.0000 
     14 C5'         5.2270   33.2630   74.2680 C.3       1 ATP510      0.0000 
     15 C4'         5.9470   33.9980   75.3920 C.3       1 ATP510      0.0000 
     16 O4'         5.2790   33.4990   76.5660 O.3       1 ATP510      0.0000 
     17 C3'         7.3800   33.5810   75.6080 C.3       1 ATP510      0.0000 
     18 O3'         8.2990   34.4760   75.0180 O.3       1 ATP510      0.0000 
     19 C2'         7.5240   33.6530   77.1380 C.3       1 ATP510      0.0000 
     20 O2'         7.7290   34.9820   77.6050 O.3       1 ATP510      0.0000 
     21 C1'         6.1600   33.2710   77.6470 C.3       1 ATP510      0.0000 
     22 N9          6.2350   31.7910   77.8930 N.pl3     1 ATP510      0.0000 
     23 C8          5.7930   30.8180   77.0700 C.2       1 ATP510      0.0000 
     24 N7          6.0260   29.5890   77.6040 N.2       1 ATP510      0.0000 
     25 C5          6.6290   29.7660   78.8100 C.ar      1 ATP510      0.0000 
     26 C6          7.1430   28.9180   79.9060 C.ar      1 ATP510      0.0000 
     27 N6          7.0510   27.5540   79.9260 N.pl3     1 ATP510      0.0000 
     28 N1          7.6940   29.5610   80.9610 N.ar      1 ATP510      0.0000 
     29 C2          7.8030   30.9050   81.0820 C.ar      1 ATP510      0.0000 
     30 N3          7.3330   31.7280   80.1210 N.ar      1 ATP510      0.0000 
     31 C4          6.7650   31.2310   78.9850 C.ar      1 ATP510      0.0000 
     32 H           4.1476   33.3079   74.4753 H         1 ATP510      0.0000 
     33 H           5.4045   33.8194   73.3358 H         1 ATP510      0.0000 
     34 H           5.8415   35.0191   75.3083 H         1 ATP510      0.0000 
     35 H           7.4990   32.5737   75.3243 H         1 ATP510      0.0000 
     36 H           8.2206   32.9620   77.4677 H         1 ATP510      0.0000 
     37 H           5.9368   33.7853   78.5047 H         1 ATP510      0.0000 
     38 H           5.3618   30.9696   76.2037 H         1 ATP510      0.0000 
     39 H           7.0128   27.1024   79.0346 H         1 ATP510      0.0000 
     40 H           7.0300   27.1277   80.8303 H         1 ATP510      0.0000 
     41 H           8.2586   31.3099   81.9338 H         1 ATP510      0.0000 
     42 H           8.9200   33.8977   74.4889 H         1 ATP510      0.0000 
     43 H           8.0702   35.4854   76.8111 H         1 ATP510      0.0000 
@<TRIPOS>BOND
     1    2    1 ar   
     2    3    1 ar   
     3    4    1 ar   
     4    8    1 1    
     5    6    5 ar   
     6    7    5 ar   
     7    8    5 1    
     8   12    5 1    
     9   10    9 ar   
    10   11    9 ar   
    11   12    9 1    
    12   13    9 1    
    13   14   13 1    
    14   15   14 1    
    15   32   14 1    
    16   33   14 1    
    17   16   15 1    
    18   17   15 1    
    19   34   15 1    
    20   21   16 1    
    21   18   17 1    
    22   19   17 1    
    23   35   17 1    
    24   42   18 1    
    25   20   19 1    
    26   21   19 1    
    27   36   19 1    
    28   43   20 1    
    29   22   21 1    
    30   37   21 1    
    31   23   22 1    
    32   31   22 1    
    33   24   23 2    
    34   38   23 1    
    35   25   24 1    
    36   26   25 ar   
    37   31   25 ar   
    38   27   26 1    
    39   28   26 ar   
    40   39   27 1    
    41   40   27 1    
    42   29   28 ar   
    43   30   29 ar   
    44   41   29 1    
    45   31   30 ar   
@<TRIPOS>SUBSTRUCTURE
     1 ATP510      1 GROUP   
@<TRIPOS>SET

