#    Name: 1nq7_ARL_1_INTS_M
#    Modification time : Mon Mar 24 18:36:02 2014

@<TRIPOS>MOLECULE
1nq7_ARL_1_INTS_M
   79     0     6     0     0
SMALL
NO_CHARGES


@<TRIPOS>ATOM
      1 CA         31.3435   25.5585   10.5845 C.3       2 GLC5        0.0000 
      2 CA         29.4730   25.8200   10.5960 C.3       6 GLL5        0.0000 
      3 CA         33.2140   25.2970   10.5730 C.3       4 GLP5        0.0000 
      4 CA         29.9120   26.9925   12.2550 C.3       2 GLC5        0.0000 
      5 CA         30.3510   28.1650   13.9140 C.3       4 GLP5        0.0000 
      6 CA         25.8785   27.5825   10.7850 C.3       2 GLC5        0.0000 
      7 CA         27.0650   27.1570    9.3530 C.3       6 GLL5        0.0000 
      8 CA         24.6920   28.0080   12.2170 C.3       4 GLP5        0.0000 
      9 CA         28.4600   31.2330    6.5290 C.3       2 GLC5        0.0000 
     10 CA         27.4130   29.8680    7.8650 C.3       6 GLL5        0.0000 
     11 CA         29.5070   32.5980    5.1930 C.3       4 GLP5        0.0000 
     12 CA         23.5635   27.1060    7.8330 C.3       2 GLC5        0.0000 
     13 CA         23.4430   29.2410    7.6550 C.3       6 GLL5        0.0000 
     14 CA         23.6840   24.9710    8.0110 C.3       4 GLP5        0.0000 
     15 CA         22.7040   30.2495    4.7005 C.3       2 GLC5        0.0000 
     16 CA         22.3610   31.2370    6.6270 C.3       6 GLL5        0.0000 
     17 CA         23.0470   29.2620    2.7740 C.3       4 GLP5        0.0000 
     18 CA         24.3940   30.8475    9.1320 C.3       2 GLC5        0.0000 
     19 CA         24.8180   31.2110    7.0160 C.3       6 GLL5        0.0000 
     20 CA         23.9700   30.4840   11.2480 C.3       4 GLP5        0.0000 
     21 CA         22.9140   35.4585    4.0070 C.3       2 GLC5        0.0000 
     22 CA         22.4540   34.1230    5.5530 C.3       6 GLL5        0.0000 
     23 CA         23.3740   36.7940    2.4610 C.3       4 GLP5        0.0000 
     24 CA         20.4570   34.0820    4.9215 C.3       2 GLC5        0.0000 
     25 CA         18.4600   34.0410    4.2900 C.3       4 GLP5        0.0000 
     26 CA         22.1835   36.0755    6.1225 C.3       2 GLC5        0.0000 
     27 CA         21.9130   38.0280    6.6920 C.3       4 GLP5        0.0000 
     28 CA         25.4655   33.7965    3.1170 C.3       2 GLC5        0.0000 
     29 CA         24.6250   33.3620    4.6300 C.3       6 GLL5        0.0000 
     30 CA         26.3060   34.2310    1.6040 C.3       4 GLP5        0.0000 
     31 CA         26.0820   34.6295    4.9720 C.3       2 GLC5        0.0000 
     32 CA         27.5390   35.8970    5.3140 C.3       4 GLP5        0.0000 
     33 CA         23.9995   35.0780    3.5455 C.3       2 GLC5        0.0000 
     34 CA         26.1375   35.0825    6.8115 C.3       2 GLC5        0.0000 
     35 CA         24.4790   34.3340    6.9430 C.3       6 GLL5        0.0000 
     36 CA         27.7960   35.8310    6.6800 C.3       4 GLP5        0.0000 
     37 CA         21.5420   29.1415    4.3560 C.3       2 GLC5        0.0000 
     38 CA         20.0370   29.0210    5.9380 C.3       6 GLL5        0.0000 
     39 CA         18.9590   27.7155    5.2815 C.3       2 GLC5        0.0000 
     40 CA         17.8810   26.4100    4.6250 C.3       4 GLP5        0.0000 
     41 CA         19.4435   29.4785    4.1240 C.3       2 GLC5        0.0000 
     42 CA         18.8500   29.9360    2.3100 C.3       4 GLP5        0.0000 
     43 CA         19.8955   29.4725   10.0900 C.3       2 GLC5        0.0000 
     44 CA         19.8360   29.9690    8.1910 C.3       6 GLL5        0.0000 
     45 CA         19.9550   28.9760   11.9890 C.3       4 GLP5        0.0000 
     46 CA         19.9910   31.6155    9.4395 C.3       2 GLC5        0.0000 
     47 CA         20.1460   33.2620   10.6880 C.3       4 GLP5        0.0000 
     48 CA         18.2375   30.4920    9.0045 C.3       2 GLC5        0.0000 
     49 CA         16.6390   31.0150    9.8180 C.3       4 GLP5        0.0000 
     50 CA         22.2955   26.3805    7.9485 C.3       2 GLC5        0.0000 
     51 CA         20.9070   27.7900    7.8860 C.3       6 GLL5        0.0000 
     52 CA         20.2130   27.1830    9.6455 C.3       2 GLC5        0.0000 
     53 CA         19.5190   26.5760   11.4050 C.3       4 GLP5        0.0000 
     54 CA         29.7490   22.8300    9.3570 C.3       2 GLC5        0.0000 
     55 CA         28.0320   23.6710   10.2480 C.3       6 GLL5        0.0000 
     56 CA         31.4660   21.9890    8.4660 C.3       4 GLP5        0.0000 
     57 CA         26.7370   23.1510   11.5745 C.3       2 GLC5        0.0000 
     58 CA         25.4420   22.6310   12.9010 C.3       4 GLP5        0.0000 
     59 N          31.4565   22.2995   11.2755 N.am      1 SEC2        0.0000 
     60 N          30.0230   22.8100   11.2630 N.am      5 SEL2        0.0000 
     61 N          32.8900   21.7890   11.2880 N.am      3 SEP2        0.0000 
     62 N          29.8030   20.8420   10.4455 N.am      1 SEC2        0.0000 
     63 N          28.5350   21.4670   10.7540 N.am      5 SEL2        0.0000 
     64 N          31.0710   20.2170   10.1370 N.am      3 SEP2        0.0000 
     65 CA         26.6423   26.2862   11.4548 C.3       2 GLC5        0.0000 
     66 CA         27.1010   25.8300    9.5470 C.3       6 GLL5        0.0000 
     67 CA         25.6280   27.1440   13.0630 C.3       4 GLP5        0.0000 
     68 CA         25.1058   26.0959    8.5627 C.3       2 GLC5        0.0000 
     69 CA         25.6227   28.9748   10.1790 C.3       2 GLC5        0.0000 
     70 CA         25.9720   27.9480    8.7790 C.3       6 GLL5        0.0000 
     71 CA         25.2400   29.3940   11.9170 C.3       4 GLP5        0.0000 
     72 CA         23.5616   30.1045    9.3260 C.3       2 GLC5        0.0000 
     73 CA         24.7640   29.8650    7.5910 C.3       6 GLL5        0.0000 
     74 CA         20.5250   27.0025    6.2227 C.3       2 GLC5        0.0000 
     75 CA         20.7870   29.1800    7.2770 C.3       6 GLL5        0.0000 
     76 CA         20.2030   25.5200    4.8640 C.3       4 GLP5        0.0000 
     77 CA         27.3336   24.0154    8.1991 C.3       2 GLC5        0.0000 
     78 CA         28.2120   25.0270   10.1460 C.3       6 GLL5        0.0000 
     79 CA         26.8230   23.4810    6.3510 C.3       4 GLP5        0.0000 
@<TRIPOS>BOND
@<TRIPOS>SUBSTRUCTURE
     1 SEC2       59 GROUP        1 X    SEC  0     ROOT SEC X 2
     2 GLC5        1 GROUP        1 X    GLC  0     **** GLC X 6
     3 SEP2       61 GROUP        1 Y    SEP  0     ROOT SEP Y 9
     4 GLP5        3 GROUP        1 Y    GLP  0     **** GLP Y 13
     5 SEL2       60 GROUP        1 Z    SEL  0     ROOT SEL Z 16
     6 GLL5        2 GROUP        1 Z    GLL  0     **** GLL Z 20
@<TRIPOS>SET

