#    Name: 1nq7_ARL_1_ligand
#    Modification time : Mon Mar 24 18:36:02 2014

@<TRIPOS>MOLECULE
1nq7_ARL_1_ligand
   56    56     1     0     0
SMALL
NO_CHARGES


@<TRIPOS>ATOM
      1 C16        29.4730   25.8200   10.5960 C.3       1 ARL800      0.0000 
      2 C9         28.2120   25.0270   10.1460 C.2       1 ARL800      0.0000 
      3 C13        27.1010   25.8300    9.5470 C.2       1 ARL800      0.0000 
      4 C8         27.0650   27.1570    9.3530 C.2       1 ARL800      0.0000 
      5 C44        25.9720   27.9480    8.7790 C.2       1 ARL800      0.0000 
      6 C42        26.0390   29.1630    8.1030 C.2       1 ARL800      0.0000 
      7 C7         27.4130   29.8680    7.8650 C.3       1 ARL800      0.0000 
      8 C3         24.7640   29.8650    7.5910 C.ar      1 ARL800      0.0000 
      9 C4         23.4430   29.2410    7.6550 C.ar      1 ARL800      0.0000 
     10 C5         22.2030   29.8970    7.1850 C.ar      1 ARL800      0.0000 
     11 C6         22.3610   31.2370    6.6270 C.ar      1 ARL800      0.0000 
     12 C1         23.6410   31.9390    6.5230 C.ar      1 ARL800      0.0000 
     13 C2         24.8180   31.2110    7.0160 C.ar      1 ARL800      0.0000 
     14 C10        23.7890   33.4010    5.9150 C.3       1 ARL800      0.0000 
     15 C11        22.4540   34.1230    5.5530 C.3       1 ARL800      0.0000 
     16 C15        24.6250   33.3620    4.6300 C.3       1 ARL800      0.0000 
     17 C19        24.4790   34.3340    6.9430 C.3       1 ARL800      0.0000 
     18 C23        20.7870   29.1800    7.2770 C.3       1 ARL800      0.0000 
     19 C24        20.0370   29.0210    5.9380 C.3       1 ARL800      0.0000 
     20 C28        19.8360   29.9690    8.1910 C.3       1 ARL800      0.0000 
     21 C32        20.9070   27.7900    7.8860 C.3       1 ARL800      0.0000 
     22 C14        28.0320   23.6710   10.2480 C.2       1 ARL800      0.0000 
     23 C12        28.9430   22.6070   10.8000 C.2       1 ARL800      0.0000 
     24 O2         30.0230   22.8100   11.2630 O.co2     1 ARL800      0.0000 
     25 O3         28.5350   21.4670   10.7540 O.co2     1 ARL800      0.0000 
     26 H          26.2618   25.2229    9.2574 H         1 ARL800      0.0000 
     27 H          27.9190   27.7535    9.6380 H         1 ARL800      0.0000 
     28 H          24.9954   27.5070    8.9121 H         1 ARL800      0.0000 
     29 H          23.3643   28.2933    8.0475 H         1 ARL800      0.0000 
     30 H          21.5138   31.7230    6.2823 H         1 ARL800      0.0000 
     31 H          25.7364   31.6771    6.9526 H         1 ARL800      0.0000 
     32 H          27.0939   23.2522    9.8837 H         1 ARL800      0.0000 
     33 H          30.1717   25.2182   10.9828 H         1 ARL800      0.0000 
     34 H          29.8965   26.3083    9.8330 H         1 ARL800      0.0000 
     35 H          29.2537   26.5013   11.2944 H         1 ARL800      0.0000 
     36 H          27.8745   30.0824    8.7259 H         1 ARL800      0.0000 
     37 H          28.0368   29.2957    7.3327 H         1 ARL800      0.0000 
     38 H          27.3075   30.7286    7.3667 H         1 ARL800      0.0000 
     39 H          22.6153   35.0363    5.1789 H         1 ARL800      0.0000 
     40 H          21.9303   33.6146    4.8695 H         1 ARL800      0.0000 
     41 H          21.8631   34.2337    6.3521 H         1 ARL800      0.0000 
     42 H          25.5446   33.0060    4.7959 H         1 ARL800      0.0000 
     43 H          24.2069   32.7802    3.9324 H         1 ARL800      0.0000 
     44 H          24.7309   34.2715    4.2281 H         1 ARL800      0.0000 
     45 H          25.3927   34.0080    7.1857 H         1 ARL800      0.0000 
     46 H          24.5838   35.2634    6.5892 H         1 ARL800      0.0000 
     47 H          23.9564   34.4011    7.7929 H         1 ARL800      0.0000 
     48 H          20.5610   28.4790    5.2809 H         1 ARL800      0.0000 
     49 H          19.1556   28.5642    6.0580 H         1 ARL800      0.0000 
     50 H          19.8529   29.9050    5.5082 H         1 ARL800      0.0000 
     51 H          20.1952   30.0483    9.1209 H         1 ARL800      0.0000 
     52 H          19.6842   30.8986    7.8552 H         1 ARL800      0.0000 
     53 H          18.9391   29.5321    8.2595 H         1 ARL800      0.0000 
     54 H          21.5038   27.1976    7.3447 H         1 ARL800      0.0000 
     55 H          21.2858   27.8212    8.8110 H         1 ARL800      0.0000 
     56 H          20.0193   27.3338    7.9480 H         1 ARL800      0.0000 
@<TRIPOS>BOND
     1    2    1 1    
     2   33    1 1    
     3   34    1 1    
     4   35    1 1    
     5    3    2 1    
     6   22    2 2    
     7    4    3 2    
     8   26    3 1    
     9    5    4 1    
    10   27    4 1    
    11    6    5 2    
    12   28    5 1    
    13    7    6 1    
    14    8    6 1    
    15   36    7 1    
    16   37    7 1    
    17   38    7 1    
    18    9    8 ar   
    19   13    8 ar   
    20   10    9 ar   
    21   29    9 1    
    22   11   10 ar   
    23   18   10 1    
    24   12   11 ar   
    25   30   11 1    
    26   13   12 ar   
    27   14   12 1    
    28   31   13 1    
    29   15   14 1    
    30   16   14 1    
    31   17   14 1    
    32   39   15 1    
    33   40   15 1    
    34   41   15 1    
    35   42   16 1    
    36   43   16 1    
    37   44   16 1    
    38   45   17 1    
    39   46   17 1    
    40   47   17 1    
    41   19   18 1    
    42   20   18 1    
    43   21   18 1    
    44   48   19 1    
    45   49   19 1    
    46   50   19 1    
    47   51   20 1    
    48   52   20 1    
    49   53   20 1    
    50   54   21 1    
    51   55   21 1    
    52   56   21 1    
    53   23   22 1    
    54   32   22 1    
    55   24   23 ar   
    56   25   23 ar   
@<TRIPOS>SUBSTRUCTURE
     1 ARL800      1 GROUP   
@<TRIPOS>SET

