#    Name: 2rcu_BUJ_2_INTS_M
#    Modification time : Mon Mar 24 23:39:26 2014

@<TRIPOS>MOLECULE
2rcu_BUJ_2_INTS_M
   96     0     9     0     0
SMALL
NO_CHARGES


@<TRIPOS>ATOM
      1 N          37.4915  -22.7145   14.3360 N.am      2 SEC2        0.0000 
      2 N          37.7010  -21.6430   15.0640 N.am      8 SEL2        0.0000 
      3 N          37.2820  -23.7860   13.6080 N.am      5 SEP2        0.0000 
      4 N          35.6820  -22.2360   16.6075 N.am      2 SEC2        0.0000 
      5 N          36.8920  -22.2210   17.0390 N.am      8 SEL2        0.0000 
      6 N          34.4720  -22.2510   16.1760 N.am      5 SEP2        0.0000 
      7 N          37.5340  -23.4430   17.4455 N.am      2 SEC2        0.0000 
      8 N          38.1760  -24.6650   17.8520 N.am      5 SEP2        0.0000 
      9 CA         39.9550  -18.8455   17.1485 C.3       3 GLC5        0.0000 
     10 CA         38.7660  -20.7450   16.9860 C.3       9 GLL5        0.0000 
     11 CA         41.1440  -16.9460   17.3110 C.3       6 GLP5        0.0000 
     12 CA         39.0720  -22.5650   15.8010 C.3       3 GLC5        0.0000 
     13 CA         39.3780  -24.3850   14.6160 C.3       6 GLP5        0.0000 
     14 CA         38.0995  -22.7555   18.8175 C.3       3 GLC5        0.0000 
     15 CA         38.6390  -20.7370   18.5120 C.3       9 GLL5        0.0000 
     16 CA         37.5600  -24.7740   19.1230 C.3       6 GLP5        0.0000 
     17 CA         35.1655  -21.7175   19.5095 C.3       3 GLC5        0.0000 
     18 CA         36.3540  -20.6820   20.5640 C.3       9 GLL5        0.0000 
     19 CA         33.9770  -22.7530   18.4550 C.3       6 GLP5        0.0000 
     20 CA         37.6075  -21.9350   21.7855 C.3       3 GLC5        0.0000 
     21 CA         38.8610  -23.1880   23.0070 C.3       6 GLP5        0.0000 
     22 CA         36.6465  -20.1675   22.6875 C.3       3 GLC5        0.0000 
     23 CA         36.9390  -19.6530   24.8110 C.3       6 GLP5        0.0000 
     24 CA         36.3225  -18.3775   22.2935 C.3       3 GLC5        0.0000 
     25 CA         36.2530  -18.3150   20.1950 C.3       9 GLL5        0.0000 
     26 CA         36.3920  -18.4400   24.3920 C.3       6 GLP5        0.0000 
     27 CA         34.9230  -17.0765   20.5120 C.3       3 GLC5        0.0000 
     28 CA         33.5930  -15.8380   20.8290 C.3       6 GLP5        0.0000 
     29 CA         38.5475  -21.2830   22.1260 C.3       3 GLC5        0.0000 
     30 CA         38.2340  -19.3780   21.2450 C.3       9 GLL5        0.0000 
     31 CA         38.6865  -19.0155   22.9975 C.3       3 GLC5        0.0000 
     32 CA         39.1390  -18.6530   24.7500 C.3       6 GLP5        0.0000 
     33 O          40.6250  -19.3735   18.1425 O.2       1 ALC1        0.0000 
     34 O          40.0080  -20.4280   18.9110 O.2       7 ALL1        0.0000 
     35 O          41.2420  -18.3190   17.3740 O.2       4 ALP1        0.0000 
     36 N          40.1285  -22.9700   21.3575 N.am      2 SEC2        0.0000 
     37 N          40.2890  -22.1280   20.3860 N.am      8 SEL2        0.0000 
     38 N          39.9680  -23.8120   22.3290 N.am      5 SEP2        0.0000 
     39 CA         42.6715  -18.6020   20.2775 C.3       3 GLC5        0.0000 
     40 CA         42.1580  -20.6460   19.9860 C.3       9 GLL5        0.0000 
     41 CA         43.1850  -16.5580   20.5690 C.3       6 GLP5        0.0000 
     42 CA         44.0800  -22.3955   22.1765 C.3       3 GLC5        0.0000 
     43 CA         42.7780  -21.0910   21.3060 C.3       9 GLL5        0.0000 
     44 CA         45.3820  -23.7000   23.0470 C.3       6 GLP5        0.0000 
     45 CA         40.7835  -19.3835   23.5980 C.3       3 GLC5        0.0000 
     46 CA         42.4280  -20.1140   22.4460 C.3       9 GLL5        0.0000 
     47 CA         40.7380  -22.3090   23.8010 C.3       3 GLC5        0.0000 
     48 CA         42.6150  -21.4300   24.5950 C.3       9 GLL5        0.0000 
     49 CA         40.8770  -20.0415   24.6725 C.3       3 GLC5        0.0000 
     50 CA         44.3030  -20.4330   27.1470 C.3       3 GLC5        0.0000 
     51 CA         43.4710  -21.6410   25.8450 C.3       9 GLL5        0.0000 
     52 CA         45.1350  -19.2250   28.4490 C.3       6 GLP5        0.0000 
     53 CA         41.9605  -24.6845   25.9970 C.3       3 GLC5        0.0000 
     54 CA         43.1080  -22.9470   26.5360 C.3       9 GLL5        0.0000 
     55 CA         40.8130  -26.4220   25.4580 C.3       6 GLP5        0.0000 
     56 CA         44.7305  -24.5990   25.9910 C.3       3 GLC5        0.0000 
     57 CA         44.0860  -23.3050   27.6540 C.3       9 GLL5        0.0000 
     58 CA         45.3750  -25.8930   24.3280 C.3       6 GLP5        0.0000 
     59 CA         43.8710  -25.4745   30.4285 C.3       3 GLC5        0.0000 
     60 CA         44.0900  -23.4670   30.1670 C.3       9 GLL5        0.0000 
     61 CA         43.6520  -27.4820   30.6900 C.3       6 GLP5        0.0000 
     62 CA         42.2600  -20.7775   33.1200 C.3       3 GLC5        0.0000 
     63 CA         43.4880  -22.3940   33.7800 C.3       9 GLL5        0.0000 
     64 CA         41.0320  -19.1610   32.4600 C.3       6 GLP5        0.0000 
     65 CA         44.1160  -24.6885   36.0565 C.3       3 GLC5        0.0000 
     66 CA         43.8630  -22.9710   35.1370 C.3       9 GLL5        0.0000 
     67 CA         44.3690  -26.4060   36.9760 C.3       6 GLP5        0.0000 
     68 CA         42.3505  -20.5180   36.5095 C.3       3 GLC5        0.0000 
     69 CA         43.6020  -21.9400   36.2110 C.3       9 GLL5        0.0000 
     70 CA         41.0990  -19.0960   36.8080 C.3       6 GLP5        0.0000 
     71 CA         43.9595  -19.6397   19.7890 C.3       3 GLC5        0.0000 
     72 CA         45.4510  -18.4110   18.9320 C.3       6 GLP5        0.0000 
     73 CA         43.9765  -21.9928   19.5505 C.3       3 GLC5        0.0000 
     74 CA         45.4850  -23.1170   18.4550 C.3       6 GLP5        0.0000 
     75 CA         42.8540  -18.3162   22.5720 C.3       3 GLC5        0.0000 
     76 CA         42.8810  -16.4000   22.0600 C.3       6 GLP5        0.0000 
     77 CA         44.1513  -22.2952   23.6028 C.3       3 GLC5        0.0000 
     78 CA         43.2260  -20.3510   23.7220 C.3       9 GLL5        0.0000 
     79 CA         41.7530  -21.1232   26.6920 C.3       3 GLC5        0.0000 
     80 CA         40.4630  -20.7110   28.1640 C.3       6 GLP5        0.0000 
     81 CA         44.3357  -22.9970   24.6187 C.3       3 GLC5        0.0000 
     82 CA         44.4900  -21.1135   28.3760 C.3       3 GLC5        0.0000 
     83 CA         43.6040  -22.6990   28.9520 C.3       9 GLL5        0.0000 
     84 CA         42.0318  -21.8117   28.0938 C.3       3 GLC5        0.0000 
     85 CA         41.7923  -24.0508   30.5025 C.3       3 GLC5        0.0000 
     86 CA         39.8820  -24.8900   30.2370 C.3       6 GLP5        0.0000 
     87 CA         45.2250  -21.9437   30.9281 C.3       3 GLC5        0.0000 
     88 CA         43.3150  -22.9560   31.3690 C.3       9 GLL5        0.0000 
     89 CA         46.8690  -20.8680   31.3920 C.3       6 GLP5        0.0000 
     90 CA         45.0132  -21.4305   32.8753 C.3       3 GLC5        0.0000 
     91 CA         44.0890  -23.2080   32.6490 C.3       9 GLL5        0.0000 
     92 CA         46.2380  -20.0600   32.5360 C.3       6 GLP5        0.0000 
     93 CA         43.6268  -23.0778   37.5860 C.3       3 GLC5        0.0000 
     94 CA         43.5210  -23.7000   39.4980 C.3       6 GLP5        0.0000 
     95 CA         42.4429  -23.9986   35.4319 C.3       3 GLC5        0.0000 
     96 CA         41.2470  -25.6860   35.5290 C.3       6 GLP5        0.0000 
@<TRIPOS>BOND
@<TRIPOS>SUBSTRUCTURE
     1 ALC1       33 GROUP        1 X    ALC  0     ROOT ALC X 1
     2 SEC2        1 GROUP        1 X    SEC  0     **** SEC X 2
     3 GLC5        9 GROUP        1 X    GLC  0     **** GLC X 6
     4 ALP1       35 GROUP        1 Y    ALP  0     ROOT ALP Y 8
     5 SEP2        3 GROUP        1 Y    SEP  0     **** SEP Y 9
     6 GLP5       11 GROUP        1 Y    GLP  0     **** GLP Y 13
     7 ALL1       34 GROUP        1 Z    ALL  0     ROOT ALL Z 15
     8 SEL2        2 GROUP        1 Z    SEL  0     **** SEL Z 16
     9 GLL5       10 GROUP        1 Z    GLL  0     **** GLL Z 20
@<TRIPOS>SET

