#    Name: 2rcu_BUJ_2_ligand
#    Modification time : Mon Mar 24 23:39:26 2014

@<TRIPOS>MOLECULE
2rcu_BUJ_2_ligand
   74    73     1     0     0
SMALL
NO_CHARGES


@<TRIPOS>ATOM
      1 O14        37.7010  -21.6430   15.0640 O.co2     1 BUJ0        0.0000 
      2 C7         37.7080  -21.5990   16.3230 C.2       1 BUJ0        0.0000 
      3 O13        36.8920  -22.2210   17.0390 O.co2     1 BUJ0        0.0000 
      4 C4         38.7660  -20.7450   16.9860 C.3       1 BUJ0        0.0000 
      5 C1         38.6390  -20.7370   18.5120 C.3       1 BUJ0        0.0000 
      6 C3         37.7210  -19.5580   18.8510 C.3       1 BUJ0        0.0000 
      7 N6         37.1560  -19.4980   20.2260 N.4       1 BUJ0        0.0000 
      8 C12        36.3540  -20.6820   20.5640 C.3       1 BUJ0        0.0000 
      9 C11        36.2530  -18.3150   20.1950 C.3       1 BUJ0        0.0000 
     10 C10        38.2340  -19.3780   21.2450 C.3       1 BUJ0        0.0000 
     11 N2         40.0080  -20.4280   18.9110 N.am      1 BUJ0        0.0000 
     12 C5         40.7270  -21.1410   19.7890 C.2       1 BUJ0        0.0000 
     13 O9         40.2890  -22.1280   20.3860 O.2       1 BUJ0        0.0000 
     14 C8         42.1580  -20.6460   19.9860 C.3       1 BUJ0        0.0000 
     15 C15        42.7780  -21.0910   21.3060 C.3       1 BUJ0        0.0000 
     16 C16        42.4280  -20.1140   22.4460 C.3       1 BUJ0        0.0000 
     17 C17        43.2260  -20.3510   23.7220 C.3       1 BUJ0        0.0000 
     18 C18        42.6150  -21.4300   24.5950 C.3       1 BUJ0        0.0000 
     19 C19        43.4710  -21.6410   25.8450 C.3       1 BUJ0        0.0000 
     20 C20        43.1080  -22.9470   26.5360 C.3       1 BUJ0        0.0000 
     21 C21        44.0860  -23.3050   27.6540 C.3       1 BUJ0        0.0000 
     22 C22        43.6040  -22.6990   28.9520 C.3       1 BUJ0        0.0000 
     23 C23        44.0900  -23.4670   30.1670 C.3       1 BUJ0        0.0000 
     24 C24        43.3150  -22.9560   31.3690 C.3       1 BUJ0        0.0000 
     25 C25        44.0890  -23.2080   32.6490 C.3       1 BUJ0        0.0000 
     26 C26        43.4880  -22.3940   33.7800 C.3       1 BUJ0        0.0000 
     27 C27        43.8630  -22.9710   35.1370 C.3       1 BUJ0        0.0000 
     28 C28        43.6020  -21.9400   36.2110 C.3       1 BUJ0        0.0000 
     29 H          38.6869  -19.7140   16.6199 H         1 BUJ0        0.0000 
     30 H          39.7611  -21.1199   16.7167 H         1 BUJ0        0.0000 
     31 H          38.2935  -21.6198   18.8466 H         1 BUJ0        0.0000 
     32 H          36.8838  -19.5514   18.1030 H         1 BUJ0        0.0000 
     33 H          38.2877  -18.6123   18.6389 H         1 BUJ0        0.0000 
     34 H          40.4217  -19.5691   18.4469 H         1 BUJ0        0.0000 
     35 H          42.1655  -19.5465   19.9385 H         1 BUJ0        0.0000 
     36 H          42.7804  -21.0124   19.1555 H         1 BUJ0        0.0000 
     37 H          43.8616  -21.1366   21.2020 H         1 BUJ0        0.0000 
     38 H          42.4078  -22.0822   21.5661 H         1 BUJ0        0.0000 
     39 H          41.3541  -20.2043   22.6673 H         1 BUJ0        0.0000 
     40 H          42.6038  -19.0869   22.0933 H         1 BUJ0        0.0000 
     41 H          43.2800  -19.4131   24.2892 H         1 BUJ0        0.0000 
     42 H          44.2508  -20.6382   23.4546 H         1 BUJ0        0.0000 
     43 H          42.5609  -22.3622   24.0394 H         1 BUJ0        0.0000 
     44 H          41.6138  -21.1333   24.8954 H         1 BUJ0        0.0000 
     45 H          43.3104  -20.8107   26.5317 H         1 BUJ0        0.0000 
     46 H          44.5218  -21.6623   25.5584 H         1 BUJ0        0.0000 
     47 H          43.0990  -23.7565   25.7971 H         1 BUJ0        0.0000 
     48 H          42.0994  -22.8649   26.9571 H         1 BUJ0        0.0000 
     49 H          45.0665  -22.9136   27.4076 H         1 BUJ0        0.0000 
     50 H          44.1379  -24.3837   27.7491 H         1 BUJ0        0.0000 
     51 H          42.5054  -22.6772   28.9569 H         1 BUJ0        0.0000 
     52 H          43.9548  -21.6599   29.0202 H         1 BUJ0        0.0000 
     53 H          45.1420  -23.2881   30.3123 H         1 BUJ0        0.0000 
     54 H          43.8974  -24.5180   30.0327 H         1 BUJ0        0.0000 
     55 H          42.3530  -23.4657   31.4213 H         1 BUJ0        0.0000 
     56 H          43.1393  -21.8862   31.2568 H         1 BUJ0        0.0000 
     57 H          45.1268  -22.9193   32.5074 H         1 BUJ0        0.0000 
     58 H          44.0416  -24.2643   32.8988 H         1 BUJ0        0.0000 
     59 H          42.3998  -22.3854   33.6815 H         1 BUJ0        0.0000 
     60 H          43.8475  -21.3641   33.7157 H         1 BUJ0        0.0000 
     61 H          44.9149  -23.2384   35.1346 H         1 BUJ0        0.0000 
     62 H          43.2655  -23.8568   35.3275 H         1 BUJ0        0.0000 
     63 H          36.8944  -21.5222   20.5178 H         1 BUJ0        0.0000 
     64 H          35.9794  -20.6250   21.4894 H         1 BUJ0        0.0000 
     65 H          35.5801  -20.7966   19.9411 H         1 BUJ0        0.0000 
     66 H          36.7482  -17.4756   19.9710 H         1 BUJ0        0.0000 
     67 H          35.5285  -18.4186   19.5136 H         1 BUJ0        0.0000 
     68 H          35.8065  -18.1654   21.0772 H         1 BUJ0        0.0000 
     69 H          38.8645  -20.1535   21.2118 H         1 BUJ0        0.0000 
     70 H          38.7798  -18.5506   21.1125 H         1 BUJ0        0.0000 
     71 H          37.8648  -19.3400   22.1736 H         1 BUJ0        0.0000 
     72 H          43.8342  -22.2844   37.1207 H         1 BUJ0        0.0000 
     73 H          44.1390  -21.1089   36.0663 H         1 BUJ0        0.0000 
     74 H          42.6404  -21.6668   36.2377 H         1 BUJ0        0.0000 
@<TRIPOS>BOND
     1    2    1 ar   
     2    3    2 ar   
     3    4    2 1    
     4    5    4 1    
     5   29    4 1    
     6   30    4 1    
     7    6    5 1    
     8   11    5 1    
     9   31    5 1    
    10    7    6 1    
    11   32    6 1    
    12   33    6 1    
    13    8    7 1    
    14    9    7 1    
    15   10    7 1    
    16   63    8 1    
    17   64    8 1    
    18   65    8 1    
    19   66    9 1    
    20   67    9 1    
    21   68    9 1    
    22   69   10 1    
    23   70   10 1    
    24   71   10 1    
    25   12   11 am   
    26   34   11 1    
    27   13   12 2    
    28   14   12 1    
    29   15   14 1    
    30   35   14 1    
    31   36   14 1    
    32   16   15 1    
    33   37   15 1    
    34   38   15 1    
    35   17   16 1    
    36   39   16 1    
    37   40   16 1    
    38   18   17 1    
    39   41   17 1    
    40   42   17 1    
    41   19   18 1    
    42   43   18 1    
    43   44   18 1    
    44   20   19 1    
    45   45   19 1    
    46   46   19 1    
    47   21   20 1    
    48   47   20 1    
    49   48   20 1    
    50   22   21 1    
    51   49   21 1    
    52   50   21 1    
    53   23   22 1    
    54   51   22 1    
    55   52   22 1    
    56   24   23 1    
    57   53   23 1    
    58   54   23 1    
    59   25   24 1    
    60   55   24 1    
    61   56   24 1    
    62   26   25 1    
    63   57   25 1    
    64   58   25 1    
    65   27   26 1    
    66   59   26 1    
    67   60   26 1    
    68   28   27 1    
    69   61   27 1    
    70   62   27 1    
    71   72   28 1    
    72   73   28 1    
    73   74   28 1    
@<TRIPOS>SUBSTRUCTURE
     1 BUJ0        1 GROUP   
@<TRIPOS>SET

