#    Name: 3t5i_SER_SER_CMT_FAR_1_INTS_M
#    Modification time : Mon Mar 24 19:12:00 2014

@<TRIPOS>MOLECULE
3t5i_SER_SER_CMT_FAR_1_INTS_M
  102     0     9     0     0
SMALL
NO_CHARGES


@<TRIPOS>ATOM
      1 OD1        44.7970  -17.8435   57.1195 O.co2     2 ASC3        0.0000 
      2 OD1        43.0890  -18.1970   57.1000 O.co2     8 ASL3        0.0000 
      3 OD1        46.5050  -17.4900   57.1390 O.co2     5 ASP3        0.0000 
      4 OD1        44.2225  -16.9170   56.9295 O.co2     2 ASC3        0.0000 
      5 OD1        45.3560  -15.6370   56.7590 O.co2     5 ASP3        0.0000 
      6 O          44.7970  -17.8435   57.1195 O.2       1 ALC1        0.0000 
      7 O          43.0890  -18.1970   57.1000 O.2       7 ALL1        0.0000 
      8 O          46.5050  -17.4900   57.1390 O.2       4 ALP1        0.0000 
      9 O          44.2225  -16.9170   56.9295 O.2       1 ALC1        0.0000 
     10 O          45.3560  -15.6370   56.7590 O.2       4 ALP1        0.0000 
     11 CA         40.4725  -18.1355   56.0930 C.3       3 GLC5        0.0000 
     12 CA         41.9360  -17.4380   57.6420 C.3       9 GLL5        0.0000 
     13 CA         39.0090  -18.8330   54.5440 C.3       6 GLP5        0.0000 
     14 CA         42.8060  -15.4640   59.9165 C.3       3 GLC5        0.0000 
     15 CA         42.1990  -16.9340   59.0740 C.3       9 GLL5        0.0000 
     16 CA         43.4130  -13.9940   60.7590 C.3       6 GLP5        0.0000 
     17 O          43.9335  -15.5550   56.5200 O.2       1 ALC1        0.0000 
     18 O          42.5110  -15.4730   56.2810 O.2       7 ALL1        0.0000 
     19 CA         40.1015  -13.7925   55.3270 C.3       3 GLC5        0.0000 
     20 CA         42.2230  -14.3710   55.3850 C.3       9 GLL5        0.0000 
     21 CA         37.9800  -13.2140   55.2690 C.3       6 GLP5        0.0000 
     22 CA         44.5865  -12.5005   56.3495 C.3       3 GLC5        0.0000 
     23 CA         43.3450  -13.3830   55.4290 C.3       9 GLL5        0.0000 
     24 CA         45.8280  -11.6180   57.2700 C.3       6 GLP5        0.0000 
     25 CA         43.4705  -11.2215   55.4965 C.3       3 GLC5        0.0000 
     26 CA         43.5960   -9.0600   55.5640 C.3       6 GLP5        0.0000 
     27 O          44.8920  -14.7345   55.7260 O.2       1 ALC1        0.0000 
     28 O          44.4280  -13.8320   54.6930 O.2       7 ALL1        0.0000 
     29 CA         46.0305  -16.5070   53.1220 C.3       3 GLC5        0.0000 
     30 CA         44.4880  -17.1410   52.0550 C.3       9 GLL5        0.0000 
     31 CA         47.5730  -15.8730   54.1890 C.3       6 GLP5        0.0000 
     32 CA         44.8360  -18.6275   48.6460 C.3       3 GLC5        0.0000 
     33 CA         44.9870  -17.5340   50.3190 C.3       9 GLL5        0.0000 
     34 CA         44.6850  -19.7210   46.9730 C.3       6 GLP5        0.0000 
     35 CA         39.4885  -18.6935   50.5590 C.3       3 GLC5        0.0000 
     36 CA         41.5500  -19.4880   50.7510 C.3       9 GLL5        0.0000 
     37 CA         37.4270  -17.8990   50.3670 C.3       6 GLP5        0.0000 
     38 CA         42.3595  -19.6405   48.9510 C.3       3 GLC5        0.0000 
     39 CA         43.1690  -19.7930   47.1510 C.3       6 GLP5        0.0000 
     40 CA         42.8760  -16.1725   48.2290 C.3       3 GLC5        0.0000 
     41 CA         44.6780  -16.1020   49.1160 C.3       9 GLL5        0.0000 
     42 CA         41.0740  -16.2430   47.3420 C.3       6 GLP5        0.0000 
     43 CA         44.8860  -17.2495   47.7125 C.3       3 GLC5        0.0000 
     44 CA         45.0940  -18.3970   46.3090 C.3       6 GLP5        0.0000 
     45 CA         47.4490  -16.0845   48.6955 C.3       3 GLC5        0.0000 
     46 CA         45.7270  -15.0860   49.5120 C.3       9 GLL5        0.0000 
     47 CA         49.1710  -17.0830   47.8790 C.3       6 GLP5        0.0000 
     48 CA         46.6025  -13.3355   47.5040 C.3       3 GLC5        0.0000 
     49 CA         46.5970  -12.0080   49.1400 C.3       9 GLL5        0.0000 
     50 CA         46.6080  -14.6630   45.8680 C.3       6 GLP5        0.0000 
     51 CA         47.8610   -6.9215   49.1665 C.3       3 GLC5        0.0000 
     52 CA         48.7030   -8.7760   48.7730 C.3       9 GLL5        0.0000 
     53 CA         47.0190   -5.0670   49.5600 C.3       6 GLP5        0.0000 
     54 CA         50.3155   -6.5870   49.3455 C.3       3 GLC5        0.0000 
     55 CA         51.1240   -8.4640   48.9560 C.3       9 GLL5        0.0000 
     56 CA         49.5070   -4.7100   49.7350 C.3       6 GLP5        0.0000 
     57 CA         53.1580  -10.6975   46.0500 C.3       3 GLC5        0.0000 
     58 CA         52.8050   -9.7950   47.6630 C.3       9 GLL5        0.0000 
     59 CA         53.5110  -11.6000   44.4370 C.3       6 GLP5        0.0000 
     60 CA         55.1285   -7.1510   48.5405 C.3       3 GLC5        0.0000 
     61 CA         53.3380   -7.4600   48.6710 C.3       9 GLL5        0.0000 
     62 CA         56.9190   -6.8420   48.4100 C.3       6 GLP5        0.0000 
     63 CA         43.7495  -11.6830   51.0200 C.3       3 GLC5        0.0000 
     64 CA         43.9610  -13.4900   50.2360 C.3       9 GLL5        0.0000 
     65 CA         43.5380   -9.8760   51.8040 C.3       6 GLP5        0.0000 
     66 CA         46.2400   -9.4470   45.8140 C.3       3 GLC5        0.0000 
     67 CA         46.3270   -9.3780   47.8950 C.3       9 GLL5        0.0000 
     68 CA         46.1530   -9.5160   43.7330 C.3       6 GLP5        0.0000 
     69 CA         45.3515   -7.7905   47.4480 C.3       3 GLC5        0.0000 
     70 CA         44.3760   -6.2030   47.0010 C.3       6 GLP5        0.0000 
     71 CA         44.3115   -9.7105   47.2540 C.3       3 GLC5        0.0000 
     72 CA         42.2960  -10.0430   46.6130 C.3       6 GLP5        0.0000 
     73 CA         42.7365  -13.5675   57.5220 C.3       3 GLC5        0.0000 
     74 CA         42.6890  -13.2580   59.6370 C.3       6 GLP5        0.0000 
     75 CA         45.9052  -15.1285   47.5910 C.3       3 GLC5        0.0000 
     76 CA         44.4998  -13.5972   47.9562 C.3       3 GLC5        0.0000 
     77 CA         45.3980  -13.8850   50.0210 C.3       9 GLL5        0.0000 
     78 CA         44.3200  -13.5070   45.7840 C.3       6 GLP5        0.0000 
     79 CA         46.8031  -14.1836   51.7951 C.3       3 GLC5        0.0000 
     80 CA         47.5670  -14.6610   53.5320 C.3       6 GLP5        0.0000 
     81 CA         46.8158  -11.2873   51.1685 C.3       3 GLC5        0.0000 
     82 CA         46.5160  -12.9270   50.3500 C.3       9 GLL5        0.0000 
     83 CA         47.0750  -10.1070   52.5920 C.3       6 GLP5        0.0000 
     84 CA         48.4140  -11.9085   47.7330 C.3       3 GLC5        0.0000 
     85 CA         47.6930  -10.9740   49.2380 C.3       9 GLL5        0.0000 
     86 CA         49.6830  -12.3260   46.2770 C.3       6 GLP5        0.0000 
     87 CA         45.7625   -8.6967   49.5483 C.3       3 GLC5        0.0000 
     88 CA         47.5710   -9.7670   48.6540 C.3       9 GLL5        0.0000 
     89 CA         44.5760   -7.8210   50.8220 C.3       6 GLP5        0.0000 
     90 CA         47.6213   -9.8401   50.7258 C.3       3 GLC5        0.0000 
     91 CA         50.1953   -9.8428   47.1957 C.3       3 GLC5        0.0000 
     92 CA         50.0410   -9.5070   48.8250 C.3       9 GLL5        0.0000 
     93 CA         49.8080  -10.7000   45.5010 C.3       6 GLP5        0.0000 
     94 CA         49.8940   -7.5794   47.2963 C.3       3 GLC5        0.0000 
     95 CA         49.5400   -6.3560   45.7150 C.3       6 GLP5        0.0000 
     96 CA         51.1962   -9.9440   46.7760 C.3       3 GLC5        0.0000 
     97 CA         52.3640   -8.5810   48.4390 C.3       9 GLL5        0.0000 
     98 CA         52.1695   -6.4262   47.3530 C.3       3 GLC5        0.0000 
     99 CA         51.4880   -4.8320   46.1510 C.3       6 GLP5        0.0000 
    100 CA         53.7765   -7.9632   50.3700 C.3       3 GLC5        0.0000 
    101 CA         54.7020   -7.9060   52.1850 C.3       6 GLP5        0.0000 
    102 CA         48.5200  -10.0124   46.9026 C.3       3 GLC5        0.0000 
@<TRIPOS>BOND
@<TRIPOS>SUBSTRUCTURE
     1 ALC1        6 GROUP        1 X    ALC  0     ROOT ALC X 1
     2 ASC3        1 GROUP        1 X    ASC  0     **** ASC X 3
     3 GLC5       11 GROUP        1 X    GLC  0     **** GLC X 6
     4 ALP1        8 GROUP        1 Y    ALP  0     ROOT ALP Y 8
     5 ASP3        3 GROUP        1 Y    ASP  0     **** ASP Y 10
     6 GLP5       13 GROUP        1 Y    GLP  0     **** GLP Y 13
     7 ALL1        7 GROUP        1 Z    ALL  0     ROOT ALL Z 15
     8 ASL3        2 GROUP        1 Z    ASL  0     **** ASL Z 17
     9 GLL5       12 GROUP        1 Z    GLL  0     **** GLL Z 20
@<TRIPOS>SET

