#    Name: 3t5i_SER_SER_CMT_FAR_1_ligand
#    Modification time : Mon Mar 24 19:12:00 2014

@<TRIPOS>MOLECULE
3t5i_SER_SER_CMT_FAR_1_ligand
   78    77     4     0     0
SMALL
NO_CHARGES


@<TRIPOS>ATOM
      1 N          43.0890  -18.1970   57.1000 N.4       1 SER12       0.0000
      2 CA         41.9360  -17.4380   57.6420 C.3       1 SER12       0.0000
      3 C          41.5560  -16.2830   56.7040 C.2       1 SER12       0.0000
      4 O          40.3920  -16.1700   56.3320 O.2       1 SER12       0.0000
      5 CB         42.1990  -16.9340   59.0740 C.3       1 SER12       0.0000
      6 OG         42.8910  -17.8870   59.8800 O.3       1 SER12       0.0000
      7 HA         41.0629  -18.1112   57.6911 H         1 SER12       0.0000
      8 HB2        41.2161  -16.6669   59.5110 H         1 SER12       0.0000
      9 HB3        42.7655  -15.9853   58.9866 H         1 SER12       0.0000
     10 HNCA       43.8955  -17.6167   56.9868 H         1 SER12       0.0000
     11 H          43.3528  -18.9513   57.7012 H         1 SER12       0.0000
     12 H          42.8850  -18.5933   56.2048 H         1 SER12       0.0000
     13 HG         43.4684  -17.3096   60.4574 H         1 SER12       0.0000
     14 N          42.5110  -15.4730   56.2810 N.am      2 SER13       0.0000
     15 CA         42.2230  -14.3710   55.3850 C.3       2 SER13       0.0000
     16 C          42.1080  -14.8650   53.9610 C.2       2 SER13       0.0000
     17 O          41.5390  -14.2600   53.0900 O.2       2 SER13       0.0000
     18 CB         43.3450  -13.3830   55.4290 C.3       2 SER13       0.0000
     19 OG         44.4280  -13.8320   54.6930 O.3       2 SER13       0.0000
     20 HNCA       43.5064  -15.5824   56.5652 H         2 SER13       0.0000
     21 HA         41.3122  -13.8774   55.6528 H         2 SER13       0.0000
     22 HB2        43.6041  -13.2144   56.4949 H         2 SER13       0.0000
     23 HB3        42.9559  -12.4141   55.0529 H         2 SER13       0.0000
     24 HG         45.1250  -14.0617   55.3723 H         2 SER13       0.0000
     25 N          42.5890  -16.1900   53.4790 N.4       3 CMT14       0.0000
     26 CA         42.9960  -16.8580   52.2290 C.3       3 CMT14       0.0000
     27 C          42.2340  -18.1480   52.1190 C.2       3 CMT14       0.0000
     28 O          42.4690  -19.0880   52.8190 O.2       3 CMT14       0.0000
     29 CB         44.4880  -17.1410   52.0550 C.3       3 CMT14       0.0000
     30 SG         44.9870  -17.5340   50.3190 S.3       3 CMT14       0.0000
     31 OXT        41.3690  -18.1980   51.1670 O.3       3 CMT14       0.0000
     32 C1         41.5500  -19.4880   50.7510 C.3       3 CMT14       0.0000
     33 H          42.6728  -16.2373   51.3698 H         3 CMT14       0.0000
     34 H          44.8299  -18.0177   52.5797 H         3 CMT14       0.0000
     35 H          45.1206  -16.2967   52.2737 H         3 CMT14       0.0000
     36 H          42.4859  -19.6494   50.4380 H         3 CMT14       0.0000
     37 H          41.3690  -20.1435   51.4842 H         3 CMT14       0.0000
     38 H          40.9426  -19.7221   49.9919 H         3 CMT14       0.0000
     39 C1         44.6780  -16.1020   49.1160 C.3       4 FAR5010     0.0000
     40 C2         45.7270  -15.0860   49.5120 C.2       4 FAR5010     0.0000
     41 C3         45.3980  -13.8850   50.0210 C.2       4 FAR5010     0.0000
     42 C5         46.5160  -12.9270   50.3500 C.3       4 FAR5010     0.0000
     43 C6         46.5970  -12.0080   49.1400 C.3       4 FAR5010     0.0000
     44 C7         47.6930  -10.9740   49.2380 C.2       4 FAR5010     0.0000
     45 C8         47.5710   -9.7670   48.6540 C.2       4 FAR5010     0.0000
     46 C9         48.7030   -8.7760   48.7730 C.3       4 FAR5010     0.0000
     47 C11        50.0410   -9.5070   48.8250 C.3       4 FAR5010     0.0000
     48 C12        51.1240   -8.4640   48.9560 C.2       4 FAR5010     0.0000
     49 C13        52.3640   -8.5810   48.4390 C.2       4 FAR5010     0.0000
     50 C14        52.8050   -9.7950   47.6630 C.3       4 FAR5010     0.0000
     51 C15        53.3380   -7.4600   48.6710 C.3       4 FAR5010     0.0000
     52 C4         43.9610  -13.4900   50.2360 C.3       4 FAR5010     0.0000
     53 C10        46.3270   -9.3780   47.8950 C.3       4 FAR5010     0.0000
     54 H          43.7073  -15.8575   49.3686 H         4 FAR5010     0.0000
     55 H          44.8427  -16.5806   48.2162 H         4 FAR5010     0.0000
     56 H          46.7014  -15.3900   49.3599 H         4 FAR5010     0.0000
     57 H          47.4340  -13.4572   50.4591 H         4 FAR5010     0.0000
     58 H          46.2689  -12.3576   51.2163 H         4 FAR5010     0.0000
     59 H          45.6261  -11.4989   49.0141 H         4 FAR5010     0.0000
     60 H          46.7551  -12.6219   48.2368 H         4 FAR5010     0.0000
     61 H          48.5195  -11.2644   49.7758 H         4 FAR5010     0.0000
     62 H          48.5831   -8.1884   49.6815 H         4 FAR5010     0.0000
     63 H          48.6967   -8.1061   47.9150 H         4 FAR5010     0.0000
     64 H          50.1771  -10.0667   47.9145 H         4 FAR5010     0.0000
     65 H          50.0560  -10.1627   49.6798 H         4 FAR5010     0.0000
     66 H          50.8293   -7.6132   49.4975 H         4 FAR5010     0.0000
     67 H          53.7534   -9.7153   47.3561 H         4 FAR5010     0.0000
     68 H          52.7436  -10.6289   48.2115 H         4 FAR5010     0.0000
     69 H          52.2441   -9.9385   46.8476 H         4 FAR5010     0.0000
     70 H          54.2246   -7.6446   48.2469 H         4 FAR5010     0.0000
     71 H          53.0064   -6.5957   48.2928 H         4 FAR5010     0.0000
     72 H          53.5050   -7.3088   49.6453 H         4 FAR5010     0.0000
     73 H          43.8822  -12.5706   50.6212 H         4 FAR5010     0.0000
     74 H          43.4426  -13.4949   49.3809 H         4 FAR5010     0.0000
     75 H          43.4949  -14.1122   50.8649 H         4 FAR5010     0.0000
     76 H          46.3936   -8.4525   47.5221 H         4 FAR5010     0.0000
     77 H          46.1542   -9.9925   47.1252 H         4 FAR5010     0.0000
     78 H          45.5142   -9.4016   48.4770 H         4 FAR5010     0.0000
@<TRIPOS>BOND
     1    2    1 1
     2   10    1 1
     3   11    1 1
     4   12    1 1
     5    3    2 1
     6    5    2 1
     7    7    2 1
     8    4    3 2
     9    6    5 1
    10    8    5 1
    11    9    5 1
    12   13    6 1
    13   15   14 1
    14   20   14 1
    15   16   15 1
    16   18   15 1
    17   21   15 1
    18   17   16 2
    19   19   18 1
    20   22   18 1
    21   23   18 1
    22   24   19 1
    23   26   25 1
    24   27   26 1
    25   29   26 1
    26   33   26 1
    27   28   27 2
    28   31   27 1
    29   30   29 1
    30   34   29 1
    31   35   29 1
    32   32   31 1
    33   36   32 1
    34   37   32 1
    35   38   32 1
    36   40   39 1
    37   54   39 1
    38   55   39 1
    39   41   40 2
    40   56   40 1
    41   42   41 1
    42   52   41 1
    43   43   42 1
    44   57   42 1
    45   58   42 1
    46   44   43 1
    47   59   43 1
    48   60   43 1
    49   45   44 2
    50   61   44 1
    51   46   45 1
    52   53   45 1
    53   47   46 1
    54   62   46 1
    55   63   46 1
    56   48   47 1
    57   64   47 1
    58   65   47 1
    59   49   48 2
    60   66   48 1
    61   50   49 1
    62   51   49 1
    63   67   50 1
    64   68   50 1
    65   69   50 1
    66   70   51 1
    67   71   51 1
    68   72   51 1
    69   73   52 1
    70   74   52 1
    71   75   52 1
    72   76   53 1
    73   77   53 1
    74   78   53 1
    75   14    3 am
    76   25   16 1 
    77   39   30 1 
@<TRIPOS>SUBSTRUCTURE
     1 SER12       1 RESIDUE
     2 SER13      14 RESIDUE
     3 CMT14      25 GROUP
     4 FAR5010    39 GROUP
@<TRIPOS>SET

