#    Name: 4fvq_ATP_1_INTS_M
#    Modification time : Mon Mar 24 20:52:07 2014

@<TRIPOS>MOLECULE
4fvq_ATP_1_INTS_M
   77     0    15     0     0
SMALL
NO_CHARGES


@<TRIPOS>ATOM
      1 NZ         -2.7035    5.9885   22.5735 N.4       3 LYC4        0.0000 
      2 NZ         -1.3880    6.3420   22.6320 N.4      13 LYL4        0.0000 
      3 NZ         -4.0190    5.6350   22.5150 N.4       8 LYP4        0.0000 
      4 N          -0.5985    5.8000   23.5695 N.am      2 SEC2        0.0000 
      5 N          -1.3880    6.3420   22.6320 N.am     12 SEL2        0.0000 
      6 N           0.1910    5.2580   24.5070 N.am      7 SEP2        0.0000 
      7 N          -2.7035    5.9885   22.5735 N.am      2 SEC2        0.0000 
      8 N          -4.0190    5.6350   22.5150 N.am      7 SEP2        0.0000 
      9 NZ         -3.0780    6.7870   21.6640 N.4       3 LYC4        0.0000 
     10 NZ         -2.1370    7.9390   20.8130 N.4      13 LYL4        0.0000 
     11 Zn         -2.5270    8.7645   20.4150 Zn        4 ZIC7        0.0000 
     12 Zn         -2.1370    7.9390   20.8130 Zn       14 ZIL7        0.0000 
     13 Zn         -2.9170    9.5900   20.0170 Zn        9 ZIP7        0.0000 
     14 N          -1.9785    7.6700   19.1605 N.am      2 SEC2        0.0000 
     15 N          -2.1370    7.9390   20.8130 N.am     12 SEL2        0.0000 
     16 N          -1.8200    7.4010   17.5080 N.am      7 SEP2        0.0000 
     17 NZ         -1.7685   11.8755   21.3435 N.4       3 LYC4        0.0000 
     18 NZ         -2.2840   10.7200   21.6410 N.4      13 LYL4        0.0000 
     19 NZ         -1.2530   13.0310   21.0460 N.4       8 LYP4        0.0000 
     20 Zn         -2.6005   10.1550   20.8290 Zn        4 ZIC7        0.0000 
     21 Zn         -2.2840   10.7200   21.6410 Zn       14 ZIL7        0.0000 
     22 N          -1.7685   11.8755   21.3435 N.am      2 SEC2        0.0000 
     23 N          -2.2840   10.7200   21.6410 N.am     12 SEL2        0.0000 
     24 N          -1.2530   13.0310   21.0460 N.am      7 SEP2        0.0000 
     25 NZ         -1.6060   11.9970   22.5855 N.4       3 LYC4        0.0000 
     26 NZ         -1.9590   10.9630   24.1250 N.4      13 LYL4        0.0000 
     27 N          -1.8245   10.8580   25.4520 N.am      2 SEC2        0.0000 
     28 N          -1.9590   10.9630   24.1250 N.am     12 SEL2        0.0000 
     29 N          -1.6900   10.7530   26.7790 N.am      7 SEP2        0.0000 
     30 N          -1.4635    7.9745   24.6090 N.am      2 SEC2        0.0000 
     31 N          -1.8610    8.6090   23.1770 N.am     12 SEL2        0.0000 
     32 N          -1.0660    7.3400   26.0410 N.am      7 SEP2        0.0000 
     33 NZ         -4.7065    6.7485   22.7575 N.4       3 LYC4        0.0000 
     34 NZ         -5.3940    7.8620   23.0000 N.4      13 LYL4        0.0000 
     35 N          -4.7065    6.7485   22.7575 N.am      2 SEC2        0.0000 
     36 N          -5.3940    7.8620   23.0000 N.am     12 SEL2        0.0000 
     37 Zn         -3.7440    9.4395   20.4730 Zn        4 ZIC7        0.0000 
     38 Zn         -4.5710    9.2890   20.9290 Zn       14 ZIL7        0.0000 
     39 CA         -6.2470   11.4855   24.6800 C.3       5 GLC5        0.0000 
     40 CA         -7.2190   10.1220   23.6450 C.3      15 GLL5        0.0000 
     41 CA         -5.2750   12.8490   25.7150 C.3      10 GLP5        0.0000 
     42 O         -10.3425   10.1100   19.7230 O.2       1 ALC1        0.0000 
     43 O         -10.9780   10.9910   20.8480 O.2      11 ALL1        0.0000 
     44 O          -9.7070    9.2290   18.5980 O.2       6 ALP1        0.0000 
     45 CA        -10.0855   14.0905   23.0180 C.3       5 GLC5        0.0000 
     46 CA         -9.2860   12.4470   21.8510 C.3      15 GLL5        0.0000 
     47 CA        -10.8850   15.7340   24.1850 C.3      10 GLP5        0.0000 
     48 CA         -8.3575   16.6925   16.7950 C.3       5 GLC5        0.0000 
     49 CA         -7.9100   16.0740   18.8220 C.3      15 GLL5        0.0000 
     50 CA         -8.8050   17.3110   14.7680 C.3      10 GLP5        0.0000 
     51 O          -5.4315   16.5035   18.3755 O.2       1 ALC1        0.0000 
     52 O          -6.8340   16.6020   18.2160 O.2      11 ALL1        0.0000 
     53 O          -4.0290   16.4050   18.5350 O.2       6 ALP1        0.0000 
     54 O          -6.9030   18.0580   17.9345 O.2       1 ALC1        0.0000 
     55 O          -6.9720   19.5140   17.6530 O.2       6 ALP1        0.0000 
     56 N          -9.7475   17.5645   17.8450 N.am      2 SEC2        0.0000 
     57 N          -9.1460   16.5840   18.7270 N.am     12 SEL2        0.0000 
     58 N         -10.3490   18.5450   16.9630 N.am      7 SEP2        0.0000 
     59 CA         -9.0360   16.5060   20.9890 C.3       5 GLC5        0.0000 
     60 CA        -10.2200   16.0380   19.3480 C.3      15 GLL5        0.0000 
     61 CA         -7.8520   16.9740   22.6300 C.3      10 GLP5        0.0000 
     62 CA         -9.8565   18.1790   18.8770 C.3       5 GLC5        0.0000 
     63 CA         -9.4930   20.3200   18.4060 C.3      10 GLP5        0.0000 
     64 CA        -10.6180   17.0110   17.5680 C.3       5 GLC5        0.0000 
     65 CA        -11.0160   17.9840   15.7880 C.3      10 GLP5        0.0000 
     66 CA         -8.3815   15.6630   21.4700 C.3       5 GLC5        0.0000 
     67 CA         -8.9110   14.3520   20.3100 C.3      15 GLL5        0.0000 
     68 CA         -8.7560   13.3560   18.4770 C.3       5 GLC5        0.0000 
     69 CA         -8.6010   12.3600   16.6440 C.3      10 GLP5        0.0000 
     70 CA        -10.0745    9.6670   19.7617 C.3       5 GLC5        0.0000 
     71 CA         -9.5880   11.2040   21.0280 C.3      15 GLL5        0.0000 
     72 CA        -10.8840    8.6890   18.1120 C.3      10 GLP5        0.0000 
     73 CA         -7.2568   16.4402   20.4965 C.3       5 GLC5        0.0000 
     74 CA         -7.7290   14.8750   19.6520 C.3      15 GLL5        0.0000 
     75 CA         -6.6940   17.4060   21.7560 C.3      10 GLP5        0.0000 
     76 CA         -7.3863   14.7967   17.6095 C.3       5 GLC5        0.0000 
     77 CA         -6.9530   14.1190   15.9820 C.3      10 GLP5        0.0000 
@<TRIPOS>BOND
@<TRIPOS>SUBSTRUCTURE
     1 ALC1       42 GROUP        1 X    ALC  0     ROOT ALC X 1
     2 SEC2        4 GROUP        1 X    SEC  0     **** SEC X 2
     3 LYC4        1 GROUP        1 X    LYC  0     **** LYC X 4
     4 ZIC7       11 GROUP        1 X    ZIC  0     **** ZIC X 5
     5 GLC5       39 GROUP        1 X    GLC  0     **** GLC X 6
     6 ALP1       44 GROUP        1 Y    ALP  0     ROOT ALP Y 8
     7 SEP2        6 GROUP        1 Y    SEP  0     **** SEP Y 9
     8 LYP4        3 GROUP        1 Y    LYP  0     **** LYP Y 11
     9 ZIP7       13 GROUP        1 Y    ZIP  0     **** ZIP Y 12
    10 GLP5       41 GROUP        1 Y    GLP  0     **** GLP Y 13
    11 ALL1       43 GROUP        1 Z    ALL  0     ROOT ALL Z 15
    12 SEL2        5 GROUP        1 Z    SEL  0     **** SEL Z 16
    13 LYL4        2 GROUP        1 Z    LYL  0     **** LYL Z 18
    14 ZIL7       12 GROUP        1 Z    ZIL  0     **** ZIL Z 19
    15 GLL5       40 GROUP        1 Z    GLL  0     **** GLL Z 20
@<TRIPOS>SET

