#    Name: 4fvq_ATP_1_ligand
#    Modification time : Mon Mar 24 20:52:07 2014

@<TRIPOS>MOLECULE
4fvq_ATP_1_ligand
   43    45     1     0     0
SMALL
NO_CHARGES


@<TRIPOS>ATOM
      1 PG         -1.2260    7.6880   22.0030 P.3       1 ATP901      0.0000 
      2 O1G        -1.3880    6.3420   22.6320 O.co2     1 ATP901      0.0000 
      3 O2G         0.1730    8.1650   21.7860 O.co2     1 ATP901      0.0000 
      4 O3G        -2.1370    7.9390   20.8130 O.co2     1 ATP901      0.0000 
      5 PB         -2.4660   10.0920   23.0010 P.3       1 ATP901      0.0000 
      6 O1B        -2.2840   10.7200   21.6410 O.co2     1 ATP901      0.0000 
      7 O2B        -1.9590   10.9630   24.1250 O.co2     1 ATP901      0.0000 
      8 O3B        -1.8610    8.6090   23.1770 O.3       1 ATP901      0.0000 
      9 PA         -5.0920    9.2020   22.3450 P.3       1 ATP901      0.0000 
     10 O1A        -5.3940    7.8620   23.0000 O.co2     1 ATP901      0.0000 
     11 O2A        -4.5710    9.2890   20.9290 O.co2     1 ATP901      0.0000 
     12 O3A        -4.0470    9.9410   23.2990 O.3       1 ATP901      0.0000 
     13 O5'        -6.3550   10.1430   22.5200 O.3       1 ATP901      0.0000 
     14 C5'        -7.2190   10.1220   23.6450 C.3       1 ATP901      0.0000 
     15 C4'        -8.5740   10.6360   23.1800 C.3       1 ATP901      0.0000 
     16 O4'        -8.5230   12.0590   23.0080 O.3       1 ATP901      0.0000 
     17 C3'        -8.9420   10.0860   21.7950 C.3       1 ATP901      0.0000 
     18 O3'        -9.8310    8.9670   21.7530 O.3       1 ATP901      0.0000 
     19 C2'        -9.5880   11.2040   21.0280 C.3       1 ATP901      0.0000 
     20 O2'       -10.9780   10.9910   20.8480 O.3       1 ATP901      0.0000 
     21 C1'        -9.2860   12.4470   21.8510 C.3       1 ATP901      0.0000 
     22 N9         -8.4560   13.3210   21.0080 N.pl3     1 ATP901      0.0000 
     23 C8         -7.1420   13.1580   20.8210 C.2       1 ATP901      0.0000 
     24 N7         -6.6760   14.1100   19.9890 N.2       1 ATP901      0.0000 
     25 C5         -7.7290   14.8750   19.6520 C.ar      1 ATP901      0.0000 
     26 C6         -7.9100   16.0740   18.8220 C.ar      1 ATP901      0.0000 
     27 N6         -6.8340   16.6020   18.2160 N.pl3     1 ATP901      0.0000 
     28 N1         -9.1460   16.5840   18.7270 N.ar      1 ATP901      0.0000 
     29 C2        -10.2200   16.0380   19.3480 C.ar      1 ATP901      0.0000 
     30 N3        -10.1250   14.9500   20.1380 N.ar      1 ATP901      0.0000 
     31 C4         -8.9110   14.3520   20.3100 C.ar      1 ATP901      0.0000 
     32 H          -6.8694   10.7719   24.4437 H         1 ATP901      0.0000 
     33 H          -7.3577    9.1175   24.0379 H         1 ATP901      0.0000 
     34 H          -9.3313   10.3562   23.8671 H         1 ATP901      0.0000 
     35 H          -8.0037    9.8604   21.2702 H         1 ATP901      0.0000 
     36 H          -9.0564   11.3057   20.0904 H         1 ATP901      0.0000 
     37 H         -10.1908   12.9209   22.1050 H         1 ATP901      0.0000 
     38 H          -6.5957   12.4549   21.2250 H         1 ATP901      0.0000 
     39 H          -5.9661   16.1298   18.3703 H         1 ATP901      0.0000 
     40 H          -6.9968   17.4203   17.6646 H         1 ATP901      0.0000 
     41 H         -11.1686   16.4857   19.2050 H         1 ATP901      0.0000 
     42 H         -10.6470    9.3025   21.2822 H         1 ATP901      0.0000 
     43 H         -11.0614   10.5804   19.9400 H         1 ATP901      0.0000 
@<TRIPOS>BOND
     1    2    1 ar   
     2    3    1 ar   
     3    4    1 ar   
     4    8    1 1    
     5    6    5 ar   
     6    7    5 ar   
     7    8    5 1    
     8   12    5 1    
     9   10    9 ar   
    10   11    9 ar   
    11   12    9 1    
    12   13    9 1    
    13   14   13 1    
    14   15   14 1    
    15   32   14 1    
    16   33   14 1    
    17   16   15 1    
    18   17   15 1    
    19   34   15 1    
    20   21   16 1    
    21   18   17 1    
    22   19   17 1    
    23   35   17 1    
    24   42   18 1    
    25   20   19 1    
    26   21   19 1    
    27   36   19 1    
    28   43   20 1    
    29   22   21 1    
    30   37   21 1    
    31   23   22 1    
    32   31   22 1    
    33   24   23 2    
    34   38   23 1    
    35   25   24 1    
    36   26   25 ar   
    37   31   25 ar   
    38   27   26 1    
    39   28   26 ar   
    40   39   27 1    
    41   40   27 1    
    42   29   28 ar   
    43   30   29 ar   
    44   41   29 1    
    45   31   30 ar   
@<TRIPOS>SUBSTRUCTURE
     1 ATP901      1 GROUP   
@<TRIPOS>SET

