#    Name: 1rd4_L08_2_INTS_M
#    Modification time : Tue Mar 25 00:30:18 2014

@<TRIPOS>MOLECULE
1rd4_L08_2_INTS_M
   61     0     6     0     0
SMALL
NO_CHARGES


@<TRIPOS>ATOM
      1 CA         33.6645    8.0365   38.4195 C.3       2 GLC5        0.0000 
      2 CA         33.5040    6.5820   36.8390 C.3       6 GLL5        0.0000 
      3 CA         33.8250    9.4910   40.0000 C.3       4 GLP5        0.0000 
      4 CA         35.5335    7.4370   39.4175 C.3       2 GLC5        0.0000 
      5 CA         36.2190    5.9890   37.9170 C.3       6 GLL5        0.0000 
      6 CA         34.8480    8.8850   40.9180 C.3       4 GLP5        0.0000 
      7 N          41.1180    5.3840   40.3995 N.am      1 SEC2        0.0000 
      8 N          40.0730    4.7350   39.5930 N.am      5 SEL2        0.0000 
      9 N          42.1630    6.0330   41.2060 N.am      3 SEP2        0.0000 
     10 CA         42.8295   -0.0405   38.6720 C.3       2 GLC5        0.0000 
     11 CA         41.2530    1.0290   39.6050 C.3       6 GLL5        0.0000 
     12 CA         44.4060   -1.1100   37.7390 C.3       4 GLP5        0.0000 
     13 CA         31.3920    7.5800   34.5555 C.3       2 GLC5        0.0000 
     14 CA         31.8730    6.9810   36.1630 C.3       6 GLL5        0.0000 
     15 CA         30.9110    8.1790   32.9480 C.3       4 GLP5        0.0000 
     16 CA         29.6165    7.0590   37.6785 C.3       2 GLC5        0.0000 
     17 CA         30.2690    5.1960   37.6100 C.3       6 GLL5        0.0000 
     18 CA         28.9640    8.9220   37.7470 C.3       4 GLP5        0.0000 
     19 CA         29.1435    7.7840   42.0195 C.3       2 GLC5        0.0000 
     20 CA         30.4790    6.9550   41.0380 C.3       6 GLL5        0.0000 
     21 CA         27.8080    8.6130   43.0010 C.3       4 GLP5        0.0000 
     22 CA         31.4010    8.4640   41.5730 C.3       2 GLC5        0.0000 
     23 CA         32.3230    9.9730   42.1080 C.3       4 GLP5        0.0000 
     24 CA         34.9160    8.7647   37.7950 C.3       2 GLC5        0.0000 
     25 CA         35.9990    7.0960   36.9950 C.3       6 GLL5        0.0000 
     26 CA         34.5140   10.2710   38.8770 C.3       4 GLP5        0.0000 
     27 CA         36.6432    6.8784   35.7250 C.3       2 GLC5        0.0000 
     28 CA         34.6370    7.4210   36.4310 C.3       6 GLL5        0.0000 
     29 CA         37.5180    7.1330   34.1350 C.3       4 GLP5        0.0000 
     30 CA         40.1127    8.3607   39.3582 C.3       2 GLC5        0.0000 
     31 CA         38.6500    6.6240   38.7200 C.3       6 GLL5        0.0000 
     32 CA         40.9550   10.3420   39.7180 C.3       4 GLP5        0.0000 
     33 CA         39.7338    6.5211   37.1806 C.3       2 GLC5        0.0000 
     34 CA         39.8910    6.1350   39.2770 C.3       6 GLL5        0.0000 
     35 CA         40.4620    6.9090   35.4190 C.3       4 GLP5        0.0000 
     36 CA         41.3942    1.6930   37.5920 C.3       2 GLC5        0.0000 
     37 CA         40.2480    1.8050   38.7950 C.3       6 GLL5        0.0000 
     38 CA         42.0380    1.9690   35.9840 C.3       4 GLP5        0.0000 
     39 CA         40.6388   -0.4220   38.4005 C.3       2 GLC5        0.0000 
     40 CA         40.5270   -2.2610   37.6010 C.3       4 GLP5        0.0000 
     41 CA         30.1852    7.5815   36.9928 C.3       2 GLC5        0.0000 
     42 CA         30.9400    5.5010   36.3140 C.3       6 GLL5        0.0000 
     43 CA         30.4550    6.0405   34.1215 C.3       2 GLC5        0.0000 
     44 CA         30.0140    7.0300   32.5130 C.3       4 GLP5        0.0000 
     45 CA         30.1943    1.3482   35.7968 C.3       2 GLC5        0.0000 
     46 CA         29.4070    3.0320   36.5210 C.3       6 GLL5        0.0000 
     47 CA         30.6380   -0.5080   35.7110 C.3       4 GLP5        0.0000 
     48 CA         28.6852    2.0062   34.8342 C.3       2 GLC5        0.0000 
     49 CA         27.6200    0.8080   33.7860 C.3       4 GLP5        0.0000 
     50 CA         28.1726    4.6659   36.8222 C.3       2 GLC5        0.0000 
     51 CA         26.7030    5.5340   36.5540 C.3       4 GLP5        0.0000 
     52 CA         32.1365    3.3990   34.5585 C.3       2 GLC5        0.0000 
     53 CA         30.0940    3.3770   35.2440 C.3       6 GLL5        0.0000 
     54 CA         33.8000    2.8090   33.9220 C.3       4 GLP5        0.0000 
     55 CA         28.7065    4.7710   35.2730 C.3       2 GLC5        0.0000 
     56 CA         30.8520    4.6010   35.1460 C.3       6 GLL5        0.0000 
     57 CA         26.9180    5.3280   35.0590 C.3       4 GLP5        0.0000 
     58 CA         29.7235    7.6248   39.1632 C.3       2 GLC5        0.0000 
     59 CA         30.4870    5.7000   40.1210 C.3       6 GLL5        0.0000 
     60 CA         30.8425    5.5583   42.3188 C.3       2 GLC5        0.0000 
     61 CA         31.2020    4.7890   44.0580 C.3       4 GLP5        0.0000 
@<TRIPOS>BOND
@<TRIPOS>SUBSTRUCTURE
     1 SEC2        7 GROUP        1 X    SEC  0     ROOT SEC X 2
     2 GLC5        1 GROUP        1 X    GLC  0     **** GLC X 6
     3 SEP2        9 GROUP        1 Y    SEP  0     ROOT SEP Y 9
     4 GLP5        3 GROUP        1 Y    GLP  0     **** GLP Y 13
     5 SEL2        8 GROUP        1 Z    SEL  0     ROOT SEL Z 16
     6 GLL5        2 GROUP        1 Z    GLL  0     **** GLL Z 20
@<TRIPOS>SET

