#    Name: 1rd4_L08_2_ligand
#    Modification time : Tue Mar 25 00:30:18 2014

@<TRIPOS>MOLECULE
1rd4_L08_2_ligand
   60    63     1     0     0
SMALL
NO_CHARGES


@<TRIPOS>ATOM
      1 O4         35.1690    9.4870   35.5240 O.2       1 L081328     0.0000 
      2 N3         34.4520    8.5030   35.5290 N.pl3     1 L081328     0.0000 
      3 C11        34.6370    7.4210   36.4310 C.ar      1 L081328     0.0000 
      4 C10        33.5040    6.5820   36.8390 C.ar      1 L081328     0.0000 
      5 C15        33.7500    5.4660   37.7750 C.ar      1 L081328     0.0000 
      6 C14        35.0550    5.1780   38.2950 C.ar      1 L081328     0.0000 
      7 C13        36.2190    5.9890   37.9170 C.ar      1 L081328     0.0000 
      8 C12        35.9990    7.0960   36.9950 C.ar      1 L081328     0.0000 
      9 C16        37.5900    5.6390   38.4950 C.ar      1 L081328     0.0000 
     10 C8         38.6500    6.6240   38.7200 C.ar      1 L081328     0.0000 
     11 C35        39.8910    6.1350   39.2770 C.ar      1 L081328     0.0000 
     12 N20        40.0730    4.7350   39.5930 N.ar      1 L081328     0.0000 
     13 C18        39.1600    3.8310   39.4060 C.ar      1 L081328     0.0000 
     14 N1         39.3360    2.4590   39.7040 N.3       1 L081328     0.0000 
     15 C19        40.2480    1.8050   38.7950 C.3       1 L081328     0.0000 
     16 C20        41.2530    1.0290   39.6050 C.3       1 L081328     0.0000 
     17 N2         40.5420    0.2200   40.6640 N.am      1 L081328     0.0000 
     18 C21        39.6580    0.9950   41.6340 C.3       1 L081328     0.0000 
     19 C22        38.5930    1.8500   40.8230 C.3       1 L081328     0.0000 
     20 C23        41.4880   -0.5090   41.4050 C.2       1 L081328     0.0000 
     21 O2         41.4710   -1.7710   41.3860 O.2       1 L081328     0.0000 
     22 C24        42.5690    0.2240   42.2400 C.3       1 L081328     0.0000 
     23 C17        37.8300    4.2520   38.8290 C.ar      1 L081328     0.0000 
     24 S1         31.8730    6.9810   36.1630 S.3       1 L081328     0.0000 
     25 C1         30.9400    5.5010   36.3140 C.ar      1 L081328     0.0000 
     26 C2         30.2690    5.1960   37.6100 C.ar      1 L081328     0.0000 
     27 C3         29.4860    3.9310   37.7100 C.ar      1 L081328     0.0000 
     28 C4         29.4070    3.0320   36.5210 C.ar      1 L081328     0.0000 
     29 C5         30.0940    3.3770   35.2440 C.ar      1 L081328     0.0000 
     30 C6         30.8520    4.6010   35.1460 C.ar      1 L081328     0.0000 
     31 O7         30.4250    6.1530   38.7060 O.3       1 L081328     0.0000 
     32 C9         30.4870    5.7000   40.1210 C.3       1 L081328     0.0000 
     33 C33        30.4790    6.9550   41.0380 C.3       1 L081328     0.0000 
     34 O3         33.5520    8.5370   34.6810 O.2       1 L081328     0.0000 
     35 H          32.9509    4.8897   38.0506 H         1 L081328     0.0000 
     36 H          35.1917    4.4020   38.9374 H         1 L081328     0.0000 
     37 H          36.7768    7.6830   36.7083 H         1 L081328     0.0000 
     38 H          38.5149    7.5739   38.4990 H         1 L081328     0.0000 
     39 H          40.6532    6.7890   39.4508 H         1 L081328     0.0000 
     40 H          40.7810    2.5318   38.1805 H         1 L081328     0.0000 
     41 H          39.7204    1.1130   38.1372 H         1 L081328     0.0000 
     42 H          41.9485    1.7180   40.0816 H         1 L081328     0.0000 
     43 H          41.8106    0.3600   38.9516 H         1 L081328     0.0000 
     44 H          40.2517    1.6774   42.2208 H         1 L081328     0.0000 
     45 H          39.1180    0.3166   42.2749 H         1 L081328     0.0000 
     46 H          37.8377    1.1763   40.4811 H         1 L081328     0.0000 
     47 H          38.2016    2.5867   41.4903 H         1 L081328     0.0000 
     48 H          37.1313    3.5502   38.6877 H         1 L081328     0.0000 
     49 H          29.0263    3.6909   38.5500 H         1 L081328     0.0000 
     50 H          28.8810    2.1792   36.5835 H         1 L081328     0.0000 
     51 H          30.0172    2.7478   34.4687 H         1 L081328     0.0000 
     52 H          31.3216    4.8526   34.2968 H         1 L081328     0.0000 
     53 H          31.3975    5.1499   40.3102 H         1 L081328     0.0000 
     54 H          29.6273    5.0948   40.3701 H         1 L081328     0.0000 
     55 H          43.1701   -0.4185   42.7153 H         1 L081328     0.0000 
     56 H          43.1512    0.8021   41.6683 H         1 L081328     0.0000 
     57 H          42.1626    0.8152   42.9366 H         1 L081328     0.0000 
     58 H          30.5235    6.7080   42.0060 H         1 L081328     0.0000 
     59 H          31.2570    7.5554   40.8527 H         1 L081328     0.0000 
     60 H          29.6508    7.5013   40.9127 H         1 L081328     0.0000 
@<TRIPOS>BOND
     1    2    1 2    
     2    3    2 1    
     3   34    2 2    
     4    4    3 ar   
     5    8    3 ar   
     6    5    4 ar   
     7   24    4 1    
     8    6    5 ar   
     9   35    5 1    
    10    7    6 ar   
    11   36    6 1    
    12    8    7 ar   
    13    9    7 1    
    14   37    8 1    
    15   10    9 ar   
    16   23    9 ar   
    17   11   10 ar   
    18   38   10 1    
    19   12   11 ar   
    20   39   11 1    
    21   13   12 ar   
    22   14   13 1    
    23   23   13 ar   
    24   15   14 1    
    25   19   14 1    
    26   16   15 1    
    27   40   15 1    
    28   41   15 1    
    29   17   16 1    
    30   42   16 1    
    31   43   16 1    
    32   18   17 1    
    33   20   17 am   
    34   19   18 1    
    35   44   18 1    
    36   45   18 1    
    37   46   19 1    
    38   47   19 1    
    39   21   20 2    
    40   22   20 1    
    41   55   22 1    
    42   56   22 1    
    43   57   22 1    
    44   48   23 1    
    45   25   24 1    
    46   26   25 ar   
    47   30   25 ar   
    48   27   26 ar   
    49   31   26 1    
    50   28   27 ar   
    51   49   27 1    
    52   29   28 ar   
    53   50   28 1    
    54   30   29 ar   
    55   51   29 1    
    56   52   30 1    
    57   32   31 1    
    58   33   32 1    
    59   53   32 1    
    60   54   32 1    
    61   58   33 1    
    62   59   33 1    
    63   60   33 1    
@<TRIPOS>SUBSTRUCTURE
     1 L081328     1 GROUP   
@<TRIPOS>SET

