#    Name: 4n4v_2GY_2_INTS_M
#    Modification time : Tue Mar 25 12:44:10 2014

@<TRIPOS>MOLECULE
4n4v_2GY_2_INTS_M
   84     0     9     0     0
SMALL
NO_CHARGES


@<TRIPOS>ATOM
      1 CA         27.3020   48.6910    3.1290 C.3       3 GLC5        0.0000 
      2 CA         27.9700   46.8850    2.0170 C.3       9 GLL5        0.0000 
      3 CA         26.6340   50.4970    4.2410 C.3       6 GLP5        0.0000 
      4 CA         27.1895   49.6810    2.3650 C.3       3 GLC5        0.0000 
      5 CA         27.1220   48.0660    1.4380 C.3       9 GLL5        0.0000 
      6 CA         27.2570   51.2960    3.2920 C.3       6 GLP5        0.0000 
      7 CA         25.8710   48.8580   -0.1560 C.3       3 GLC5        0.0000 
      8 CA         24.6200   49.6500   -1.7500 C.3       6 GLP5        0.0000 
      9 CA         27.6185   48.5570    4.5020 C.3       3 GLC5        0.0000 
     10 CA         27.8660   47.0600    3.5270 C.3       9 GLL5        0.0000 
     11 CA         27.3710   50.0540    5.4770 C.3       6 GLP5        0.0000 
     12 N          26.1160   43.1470    2.7105 N.am      2 SEC2        0.0000 
     13 N          27.0440   43.5940    1.6990 N.am      8 SEL2        0.0000 
     14 N          25.1880   42.7000    3.7220 N.am      5 SEP2        0.0000 
     15 CA         28.4670   41.6995    2.3395 C.3       3 GLC5        0.0000 
     16 CA         29.5760   43.4130    1.4300 C.3       9 GLL5        0.0000 
     17 CA         27.3580   39.9860    3.2490 C.3       6 GLP5        0.0000 
     18 CA         30.2875   39.8480   -1.0205 C.3       3 GLC5        0.0000 
     19 CA         30.6880   41.8170   -0.1110 C.3       9 GLL5        0.0000 
     20 CA         29.8870   37.8790   -1.9300 C.3       6 GLP5        0.0000 
     21 CA         34.3025   37.1585    2.5120 C.3       3 GLC5        0.0000 
     22 CA         33.7330   37.9760    0.7470 C.3       9 GLL5        0.0000 
     23 CA         34.8720   36.3410    4.2770 C.3       6 GLP5        0.0000 
     24 N          32.5210   37.1960    2.7715 N.am      2 SEC2        0.0000 
     25 N          32.5780   38.0320    1.5480 N.am      8 SEL2        0.0000 
     26 N          32.4640   36.3600    3.9950 N.am      5 SEP2        0.0000 
     27 CA         30.8590   38.5225   -0.1020 C.3       3 GLC5        0.0000 
     28 CA         31.8310   39.1660    1.7260 C.3       9 GLL5        0.0000 
     29 CA         31.3105   37.0895    2.2740 C.3       3 GLC5        0.0000 
     30 CA         30.7900   35.0130    2.8220 C.3       6 GLP5        0.0000 
     31 CA         32.6780   37.8855    3.3510 C.3       3 GLC5        0.0000 
     32 CA         33.5250   36.6050    4.9760 C.3       6 GLP5        0.0000 
     33 CA         37.1365   40.3070    0.1835 C.3       3 GLC5        0.0000 
     34 CA         37.5260   40.1650   -2.0040 C.3       9 GLL5        0.0000 
     35 CA         36.7470   40.4490    2.3710 C.3       6 GLP5        0.0000 
     36 CA         37.2850   38.4495    0.4660 C.3       3 GLC5        0.0000 
     37 CA         37.6350   37.7920   -1.4400 C.3       9 GLL5        0.0000 
     38 CA         36.9350   39.1070    2.3720 C.3       6 GLP5        0.0000 
     39 CA         34.3125   39.7670   -2.1700 C.3       3 GLC5        0.0000 
     40 CA         35.5990   39.0670   -0.7790 C.3       9 GLL5        0.0000 
     41 CA         33.0260   40.4670   -3.5610 C.3       6 GLP5        0.0000 
     42 CA         35.5440   37.8320   -2.3685 C.3       3 GLC5        0.0000 
     43 CA         35.4890   36.5970   -3.9580 C.3       6 GLP5        0.0000 
     44 CA         36.2670   39.0870    0.7965 C.3       3 GLC5        0.0000 
     45 O          33.5735   35.4075    0.9395 O.2       1 ALC1        0.0000 
     46 O          34.3510   36.7650    0.7060 O.2       7 ALL1        0.0000 
     47 O          32.7960   34.0500    1.1730 O.2       4 ALP1        0.0000 
     48 CA         29.1052   48.3750   -0.3810 C.3       3 GLC5        0.0000 
     49 CA         29.7320   46.4850    0.0390 C.3       9 GLL5        0.0000 
     50 CA         27.8500   49.9090   -0.6820 C.3       6 GLP5        0.0000 
     51 CA         29.8643   49.2048   -1.6452 C.3       3 GLC5        0.0000 
     52 CA         31.2910   47.6810   -1.5420 C.3       9 GLL5        0.0000 
     53 CA         28.9300   50.8630   -1.2280 C.3       6 GLP5        0.0000 
     54 CA         29.9280   45.8888   -3.9573 C.3       3 GLC5        0.0000 
     55 CA         30.3060   47.4120   -2.5830 C.3       9 GLL5        0.0000 
     56 CA         30.1770   44.7260   -5.4380 C.3       6 GLP5        0.0000 
     57 CA         29.4325   47.9748   -4.1758 C.3       3 GLC5        0.0000 
     58 CA         29.0520   46.6910   -2.3700 C.3       9 GLL5        0.0000 
     59 CA         29.1860   48.8980   -5.8750 C.3       6 GLP5        0.0000 
     60 CA         28.6812   44.6330   -2.5655 C.3       3 GLC5        0.0000 
     61 CA         28.4620   42.8140   -3.4250 C.3       6 GLP5        0.0000 
     62 CA         28.3753   48.1805   -1.1940 C.3       3 GLC5        0.0000 
     63 CA         26.5915   46.2173    3.7980 C.3       3 GLC5        0.0000 
     64 CA         25.2650   45.4620    4.8240 C.3       6 GLP5        0.0000 
     65 CA         27.6980   48.6923    0.5227 C.3       3 GLC5        0.0000 
     66 CA         29.3780   42.6333   -1.7490 C.3       3 GLC5        0.0000 
     67 CA         29.9000   43.0880   -0.0350 C.3       9 GLL5        0.0000 
     68 CA         31.8837   42.4714   -1.2745 C.3       3 GLC5        0.0000 
     69 CA         32.7540   42.8890   -3.0080 C.3       6 GLP5        0.0000 
     70 CA         33.6095   41.6080    2.2630 C.3       3 GLC5        0.0000 
     71 CA         31.7330   41.6550    0.9910 C.3       9 GLL5        0.0000 
     72 CA         35.5960   41.2810    2.8300 C.3       6 GLP5        0.0000 
     73 CA         32.0948   43.4243    4.1215 C.3       3 GLC5        0.0000 
     74 CA         31.5130   42.2150    2.4010 C.3       9 GLL5        0.0000 
     75 CA         33.0660   43.9970    5.8300 C.3       6 GLP5        0.0000 
     76 CA         33.4668   40.0808   -1.7378 C.3       3 GLC5        0.0000 
     77 CA         33.5200   40.2900    0.1710 C.3       9 GLL5        0.0000 
     78 CA         32.5125   37.6923   -0.7632 C.3       3 GLC5        0.0000 
     79 CA         34.2950   39.0990    0.0000 C.3       9 GLL5        0.0000 
     80 CA         31.0110   36.8470   -1.9000 C.3       6 GLP5        0.0000 
     81 CA         35.4745   38.8222    1.3727 C.3       3 GLC5        0.0000 
     82 CA         33.9886   40.5074    1.9926 C.3       3 GLC5        0.0000 
     83 CA         32.3430   40.3130    0.9980 C.3       9 GLL5        0.0000 
     84 CA         36.7248   37.4793   -2.8500 C.3       3 GLC5        0.0000 
@<TRIPOS>BOND
@<TRIPOS>SUBSTRUCTURE
     1 ALC1       45 GROUP        1 X    ALC  0     ROOT ALC X 1
     2 SEC2       12 GROUP        1 X    SEC  0     **** SEC X 2
     3 GLC5        1 GROUP        1 X    GLC  0     **** GLC X 6
     4 ALP1       47 GROUP        1 Y    ALP  0     ROOT ALP Y 8
     5 SEP2       14 GROUP        1 Y    SEP  0     **** SEP Y 9
     6 GLP5        3 GROUP        1 Y    GLP  0     **** GLP Y 13
     7 ALL1       46 GROUP        1 Z    ALL  0     ROOT ALL Z 15
     8 SEL2       13 GROUP        1 Z    SEL  0     **** SEL Z 16
     9 GLL5        2 GROUP        1 Z    GLL  0     **** GLL Z 20
@<TRIPOS>SET

