#    Name: 4n4v_2GY_2_ligand
#    Modification time : Tue Mar 25 12:44:10 2014

@<TRIPOS>MOLECULE
4n4v_2GY_2_ligand
   62    66     1     0     0
SMALL
NO_CHARGES


@<TRIPOS>ATOM
      1 C5         30.9890   47.1970   -0.1990 C.ar      1 2GY1402     0.0000 
      2 C7         31.2910   47.6810   -1.5420 C.ar      1 2GY1402     0.0000 
      3 C8         30.3060   47.4120   -2.5830 C.ar      1 2GY1402     0.0000 
      4 C9         29.0520   46.6910   -2.3700 C.ar      1 2GY1402     0.0000 
      5 C10        28.7490   46.2130   -1.0420 C.ar      1 2GY1402     0.0000 
      6 C12        29.7320   46.4850    0.0390 C.ar      1 2GY1402     0.0000 
      7 C13        29.4060   46.0970    1.4550 C.3       1 2GY1402     0.0000 
      8 C14        27.9700   46.8850    2.0170 C.3       1 2GY1402     0.0000 
      9 C15        27.1220   48.0660    1.4380 C.3       1 2GY1402     0.0000 
     10 C16        27.8660   47.0600    3.5270 C.3       1 2GY1402     0.0000 
     11 O1         27.0910   45.8500    1.7690 O.3       1 2GY1402     0.0000 
     12 C11        27.6920   44.5590    1.6750 C.2       1 2GY1402     0.0000 
     13 O2         27.0440   43.5940    1.6990 O.2       1 2GY1402     0.0000 
     14 N2         28.9750   44.6850    1.5200 N.am      1 2GY1402     0.0000 
     15 C17        29.5760   43.4130    1.4300 C.3       1 2GY1402     0.0000 
     16 C18        29.9000   43.0880   -0.0350 C.3       1 2GY1402     0.0000 
     17 C19        30.6880   41.8170   -0.1110 C.3       1 2GY1402     0.0000 
     18 C20        31.7330   41.6550    0.9910 C.3       1 2GY1402     0.0000 
     19 C21        31.5130   42.2150    2.4010 C.3       1 2GY1402     0.0000 
     20 C22        30.7340   43.4880    2.4250 C.3       1 2GY1402     0.0000 
     21 C1         32.3430   40.3130    0.9980 C.ar      1 2GY1402     0.0000 
     22 C23        33.5200   40.2900    0.1710 C.ar      1 2GY1402     0.0000 
     23 C24        34.2950   39.0990    0.0000 C.ar      1 2GY1402     0.0000 
     24 C25        33.7330   37.9760    0.7470 C.ar      1 2GY1402     0.0000 
     25 N3         32.5780   38.0320    1.5480 N.ar      1 2GY1402     0.0000 
     26 C26        31.8310   39.1660    1.7260 C.ar      1 2GY1402     0.0000 
     27 N1         36.2620   40.2070   -1.4040 N.ar      1 2GY1402     0.0000 
     28 C2         37.5260   40.1650   -2.0040 C.ar      1 2GY1402     0.0000 
     29 C3         38.2860   38.9310   -2.0440 C.ar      1 2GY1402     0.0000 
     30 C4         37.6350   37.7920   -1.4400 C.ar      1 2GY1402     0.0000 
     31 N5         36.3670   37.8760   -0.8490 N.ar      1 2GY1402     0.0000 
     32 C6         35.5990   39.0670   -0.7790 C.ar      1 2GY1402     0.0000 
     33 N4         34.3510   36.7650    0.7060 N.pl3     1 2GY1402     0.0000 
     34 H          31.6312   47.3486    0.5511 H         1 2GY1402     0.0000 
     35 H          32.1243   48.1683   -1.7365 H         1 2GY1402     0.0000 
     36 H          30.5076   47.7555   -3.5421 H         1 2GY1402     0.0000 
     37 H          28.4260   46.5373   -3.1302 H         1 2GY1402     0.0000 
     38 H          27.9177   45.7176   -0.8377 H         1 2GY1402     0.0000 
     39 H          30.1196   46.3239    2.1538 H         1 2GY1402     0.0000 
     40 H          28.8698   42.6637    1.8085 H         1 2GY1402     0.0000 
     41 H          30.4726   43.9107   -0.4560 H         1 2GY1402     0.0000 
     42 H          28.9671   42.9849   -0.5836 H         1 2GY1402     0.0000 
     43 H          31.2015   41.7570   -1.0908 H         1 2GY1402     0.0000 
     44 H          29.9991   40.9505   -0.0692 H         1 2GY1402     0.0000 
     45 H          32.6465   42.3339    0.5837 H         1 2GY1402     0.0000 
     46 H          32.5009   42.3708    2.8695 H         1 2GY1402     0.0000 
     47 H          30.9947   41.4467    3.0016 H         1 2GY1402     0.0000 
     48 H          30.3291   43.6625    3.4212 H         1 2GY1402     0.0000 
     49 H          31.3749   44.3263    2.1541 H         1 2GY1402     0.0000 
     50 H          33.8084   41.1505   -0.3068 H         1 2GY1402     0.0000 
     51 H          31.0290   39.2392    2.2774 H         1 2GY1402     0.0000 
     52 H          37.9365   41.0014   -2.4244 H         1 2GY1402     0.0000 
     53 H          39.1700   38.8769   -2.4489 H         1 2GY1402     0.0000 
     54 H          38.1387   36.8873   -1.4532 H         1 2GY1402     0.0000 
     55 H          33.7652   35.9670    0.8476 H         1 2GY1402     0.0000 
     56 H          35.3366   36.7795    0.5379 H         1 2GY1402     0.0000 
     57 H          27.6613   48.9038    1.3533 H         1 2GY1402     0.0000 
     58 H          26.7636   47.8549    0.5286 H         1 2GY1402     0.0000 
     59 H          26.3374   48.2800    2.0199 H         1 2GY1402     0.0000 
     60 H          27.8869   46.1819    4.0050 H         1 2GY1402     0.0000 
     61 H          28.6187   47.6093    3.8899 H         1 2GY1402     0.0000 
     62 H          27.0163   47.5168    3.7903 H         1 2GY1402     0.0000 
@<TRIPOS>BOND
     1    2    1 ar   
     2    6    1 ar   
     3   34    1 1    
     4    3    2 ar   
     5   35    2 1    
     6    4    3 ar   
     7   36    3 1    
     8    5    4 ar   
     9   37    4 1    
    10    6    5 ar   
    11   38    5 1    
    12    7    6 1    
    13    8    7 1    
    14   14    7 1    
    15   39    7 1    
    16    9    8 1    
    17   10    8 1    
    18   11    8 1    
    19   57    9 1    
    20   58    9 1    
    21   59    9 1    
    22   60   10 1    
    23   61   10 1    
    24   62   10 1    
    25   12   11 1    
    26   13   12 2    
    27   14   12 am   
    28   15   14 1    
    29   16   15 1    
    30   20   15 1    
    31   40   15 1    
    32   17   16 1    
    33   41   16 1    
    34   42   16 1    
    35   18   17 1    
    36   43   17 1    
    37   44   17 1    
    38   19   18 1    
    39   21   18 1    
    40   45   18 1    
    41   20   19 1    
    42   46   19 1    
    43   47   19 1    
    44   48   20 1    
    45   49   20 1    
    46   22   21 ar   
    47   26   21 ar   
    48   23   22 ar   
    49   50   22 1    
    50   24   23 ar   
    51   32   23 1    
    52   25   24 ar   
    53   33   24 1    
    54   26   25 ar   
    55   51   26 1    
    56   28   27 ar   
    57   32   27 ar   
    58   29   28 ar   
    59   52   28 1    
    60   30   29 ar   
    61   53   29 1    
    62   31   30 ar   
    63   54   30 1    
    64   32   31 ar   
    65   55   33 1    
    66   56   33 1    
@<TRIPOS>SUBSTRUCTURE
     1 2GY1402     1 GROUP   
@<TRIPOS>SET

