#    Name: 1m9q_5NI_1_INTS_M
#    Modification time : Tue Mar 25 11:29:24 2014

@<TRIPOS>MOLECULE
1m9q_5NI_1_INTS_M
   12     0     9     0     0
SMALL
NO_CHARGES


@<TRIPOS>ATOM
      1 CA         13.3070   20.6875   56.5505 C.3       3 GLC5        0.0000 
      2 CA         13.3170   18.6640   56.3860 C.3       9 GLL5        0.0000 
      3 CA         13.2970   22.7110   56.7150 C.3       6 GLP5        0.0000 
      4 O          14.1040   20.3260   56.9215 O.2       1 ALC1        0.0000 
      5 O          13.5270   19.7770   55.6040 O.2       7 ALL1        0.0000 
      6 O          14.6810   20.8750   58.2390 O.2       4 ALP1        0.0000 
      7 N          13.7180   21.0185   54.5650 N.am      2 SEC2        0.0000 
      8 N          12.8850   19.6950   54.4280 N.am      8 SEL2        0.0000 
      9 N          14.5510   22.3420   54.7020 N.am      5 SEP2        0.0000 
     10 CA         12.2062   19.2105   58.3246 C.3       3 GLC5        0.0000 
     11 CA         13.7230   18.2530   57.6290 C.3       9 GLL5        0.0000 
     12 CA         10.9980   20.2720   59.5190 C.3       6 GLP5        0.0000 
@<TRIPOS>BOND
@<TRIPOS>SUBSTRUCTURE
     1 ALC1        4 GROUP        1 X    ALC  0     ROOT ALC X 1
     2 SEC2        7 GROUP        1 X    SEC  0     **** SEC X 2
     3 GLC5        1 GROUP        1 X    GLC  0     **** GLC X 6
     4 ALP1        6 GROUP        1 Y    ALP  0     ROOT ALP Y 8
     5 SEP2        9 GROUP        1 Y    SEP  0     **** SEP Y 9
     6 GLP5        3 GROUP        1 Y    GLP  0     **** GLP Y 13
     7 ALL1        5 GROUP        1 Z    ALL  0     ROOT ALL Z 15
     8 SEL2        8 GROUP        1 Z    SEL  0     **** SEL Z 16
     9 GLL5        2 GROUP        1 Z    GLL  0     **** GLL Z 20
@<TRIPOS>SET

