#    Name: 1m9q_5NI_1_ligand
#    Modification time : Tue Mar 25 11:29:24 2014

@<TRIPOS>MOLECULE
1m9q_5NI_1_ligand
   17    18     1     0     0
SMALL
NO_CHARGES


@<TRIPOS>ATOM
      1 C6         13.3010   17.0150   58.1200 C.ar      1 5NI907      0.0000 
      2 C7         13.7230   18.2530   57.6290 C.ar      1 5NI907      0.0000 
      3 C8         13.3170   18.6640   56.3860 C.ar      1 5NI907      0.0000 
      4 C9         12.4590   17.8450   55.5740 C.ar      1 5NI907      0.0000 
      5 C4         12.0410   16.6300   56.0520 C.ar      1 5NI907      0.0000 
      6 C5         12.4660   16.2230   57.3220 C.ar      1 5NI907      0.0000 
      7 N1         13.5270   19.7770   55.6040 N.pl3     1 5NI907      0.0000 
      8 N2         12.8850   19.6950   54.4280 N.2       1 5NI907      0.0000 
      9 C3         12.2080   18.5480   54.3260 C.2       1 5NI907      0.0000 
     10 N10        12.0280   14.9280   57.8340 N.pl3     1 5NI907      0.0000 
     11 O11        11.8850   14.0310   57.0160 O.2       1 5NI907      0.0000 
     12 O12        11.8420   14.8460   59.0380 O.2       1 5NI907      0.0000 
     13 H          13.5937   16.6937   59.0392 H         1 5NI907      0.0000 
     14 H          14.3350   18.8442   58.2063 H         1 5NI907      0.0000 
     15 H          11.4305   16.0232   55.5017 H         1 5NI907      0.0000 
     16 H          14.0865   20.5359   55.8906 H         1 5NI907      0.0000 
     17 H          11.6766   18.2087   53.6442 H         1 5NI907      0.0000 
@<TRIPOS>BOND
     1    2    1 ar   
     2    6    1 ar   
     3   13    1 1    
     4    3    2 ar   
     5   14    2 1    
     6    4    3 ar   
     7    7    3 1    
     8    5    4 ar   
     9    9    4 1    
    10    6    5 ar   
    11   15    5 1    
    12   10    6 1    
    13    8    7 1    
    14   16    7 1    
    15    9    8 2    
    16   17    9 1    
    17   11   10 2    
    18   12   10 2    
@<TRIPOS>SUBSTRUCTURE
     1 5NI907      1 GROUP   
@<TRIPOS>SET

