#    Name: 3bh6_GNP_1_INTS_M
#    Modification time : Mon Mar 24 19:33:06 2014

@<TRIPOS>MOLECULE
3bh6_GNP_1_INTS_M
   90     0    15     0     0
SMALL
NO_CHARGES


@<TRIPOS>ATOM
      1 NZ         -6.0310    9.9665  -28.7515 N.4       3 LYC4        0.0000 
      2 NZ         -4.6620   10.5660  -28.7560 N.4      13 LYL4        0.0000 
      3 NZ         -8.0200   10.5310  -28.6810 N.4       8 LYP4        0.0000 
      4 N          -6.0310    9.9665  -28.7515 N.am      2 SEC2        0.0000 
      5 N          -4.6620   10.5660  -28.7560 N.am     12 SEL2        0.0000 
      6 N          -7.4000    9.3670  -28.7470 N.am      7 SEP2        0.0000 
      7 N          -5.9860   11.1055  -28.7525 N.am      2 SEC2        0.0000 
      8 N          -7.3100   11.6450  -28.7490 N.am      7 SEP2        0.0000 
      9 NZ         -2.5635   11.0225  -25.7015 N.4       3 LYC4        0.0000 
     10 NZ         -2.8950   10.6420  -26.9530 N.4      13 LYL4        0.0000 
     11 NZ         -2.2320   11.4030  -24.4500 N.4       8 LYP4        0.0000 
     12 N          -2.5635   11.0225  -25.7015 N.am      2 SEC2        0.0000 
     13 N          -2.8950   10.6420  -26.9530 N.am     12 SEL2        0.0000 
     14 N          -2.2320   11.4030  -24.4500 N.am      7 SEP2        0.0000 
     15 N          -1.7280    9.7235  -27.1695 N.am      2 SEC2        0.0000 
     16 N          -0.5610    8.8050  -27.3860 N.am      7 SEP2        0.0000 
     17 Zn         -2.7325   13.2805  -28.7320 Zn        4 ZIC7        0.0000 
     18 Zn         -3.0530   12.4180  -28.7370 Zn       14 ZIL7        0.0000 
     19 Zn         -2.4120   14.1430  -28.7270 Zn        9 ZIP7        0.0000 
     20 N          -3.1500   12.3145  -30.3160 N.am      2 SEC2        0.0000 
     21 N          -3.0530   12.4180  -28.7370 N.am     12 SEL2        0.0000 
     22 N          -3.2470   12.2110  -31.8950 N.am      7 SEP2        0.0000 
     23 NZ         -3.0365   12.3410  -24.6510 N.4       3 LYC4        0.0000 
     24 NZ         -3.8410   13.2790  -24.8520 N.4      13 LYL4        0.0000 
     25 N          -4.8090   13.8960  -23.8455 N.am      2 SEC2        0.0000 
     26 N          -3.8410   13.2790  -24.8520 N.am     12 SEL2        0.0000 
     27 N          -5.7770   14.5130  -22.8390 N.am      7 SEP2        0.0000 
     28 N          -3.5870   14.4725  -24.2590 N.am      2 SEC2        0.0000 
     29 N          -3.3330   15.6660  -23.6660 N.am      7 SEP2        0.0000 
     30 N          -3.0365   12.3410  -24.6510 N.am      2 SEC2        0.0000 
     31 Zn         -2.9350   14.2710  -27.8860 Zn        4 ZIC7        0.0000 
     32 Zn         -3.4580   14.3990  -27.0450 Zn       14 ZIL7        0.0000 
     33 N          -2.8325   15.7365  -26.5195 N.am      2 SEC2        0.0000 
     34 N          -3.4580   14.3990  -27.0450 N.am     12 SEL2        0.0000 
     35 N          -2.2070   17.0740  -25.9940 N.am      7 SEP2        0.0000 
     36 N          -5.7230   14.4285  -24.3690 N.am      2 SEC2        0.0000 
     37 N          -5.6690   14.3440  -25.8990 N.am     12 SEL2        0.0000 
     38 N          -7.4240   14.9685  -29.1430 N.am      2 SEC2        0.0000 
     39 N          -6.4450   14.9620  -28.1420 N.am     12 SEL2        0.0000 
     40 N          -8.4030   14.9750  -30.1440 N.am      7 SEP2        0.0000 
     41 N          -6.8775   13.3035  -28.4455 N.am      2 SEC2        0.0000 
     42 N          -4.8385   17.9680  -26.3410 N.am      2 SEC2        0.0000 
     43 N          -5.6060   16.7260  -26.5340 N.am     12 SEL2        0.0000 
     44 N          -4.0710   19.2100  -26.1480 N.am      7 SEP2        0.0000 
     45 N          -6.2840   17.9375  -26.3070 N.am      2 SEC2        0.0000 
     46 N          -6.9620   19.1490  -26.0800 N.am      7 SEP2        0.0000 
     47 CA         -8.1645   12.9235  -25.5410 C.3       5 GLC5        0.0000 
     48 CA         -8.7230   14.6350  -26.1600 C.3      15 GLL5        0.0000 
     49 CA         -7.6060   11.2120  -24.9220 C.3      10 GLP5        0.0000 
     50 CA         -7.2100   15.2890  -24.6310 C.3       5 GLC5        0.0000 
     51 CA         -5.6970   15.9430  -23.1020 C.3      10 GLP5        0.0000 
     52 N         -10.6405   14.9380  -23.3875 N.am      2 SEC2        0.0000 
     53 N         -10.4020   15.7330  -24.6930 N.am     12 SEL2        0.0000 
     54 N         -10.8790   14.1430  -22.0820 N.am      7 SEP2        0.0000 
     55 CA        -10.6200   15.4620  -28.9365 C.3       5 GLC5        0.0000 
     56 CA        -10.5360   16.2920  -26.9780 C.3      15 GLL5        0.0000 
     57 CA        -10.7040   14.6320  -30.8950 C.3      10 GLP5        0.0000 
     58 O         -11.9970   16.9375  -28.3795 O.2       1 ALC1        0.0000 
     59 O         -11.9220   16.1390  -27.2480 O.2      11 ALL1        0.0000 
     60 O         -12.0720   17.7360  -29.5110 O.2       6 ALP1        0.0000 
     61 CA        -10.4420   16.0700  -22.9890 C.3       5 GLC5        0.0000 
     62 CA        -10.7720   17.1010  -24.8050 C.3      15 GLL5        0.0000 
     63 CA        -10.1120   15.0390  -21.1730 C.3      10 GLP5        0.0000 
     64 N          -7.9315   17.9465  -20.9080 N.am      2 SEC2        0.0000 
     65 N          -8.6980   18.4420  -22.1260 N.am     12 SEL2        0.0000 
     66 N          -7.1650   17.4510  -19.6900 N.am      7 SEP2        0.0000 
     67 CA        -10.1140   17.5845  -20.3800 C.3       5 GLC5        0.0000 
     68 CA         -9.9820   18.7590  -21.6880 C.3      15 GLL5        0.0000 
     69 CA        -10.2460   16.4100  -19.0720 C.3      10 GLP5        0.0000 
     70 CA         -8.0105   19.8025  -21.4110 C.3       5 GLC5        0.0000 
     71 CA         -6.0390   20.8460  -21.1340 C.3      10 GLP5        0.0000 
     72 CA        -10.7100   20.7620  -21.6285 C.3       5 GLC5        0.0000 
     73 CA        -11.4380   22.7650  -21.5690 C.3      10 GLP5        0.0000 
     74 N         -10.1510   21.3125  -18.8575 N.am      2 SEC2        0.0000 
     75 N          -9.7280   19.8820  -19.5740 N.am     12 SEL2        0.0000 
     76 N         -10.5740   22.7430  -18.1410 N.am      7 SEP2        0.0000 
     77 N          -9.3755   21.2310  -20.3280 N.am      2 SEC2        0.0000 
     78 N          -9.0230   22.5800  -21.0820 N.am      7 SEP2        0.0000 
     79 O         -12.0265   20.1885  -19.2815 O.2       1 ALC1        0.0000 
     80 O         -11.8070   19.5370  -20.4550 O.2      11 ALL1        0.0000 
     81 O         -12.2460   20.8400  -18.1080 O.2       6 ALP1        0.0000 
     82 O         -13.0810   20.0295  -19.5345 O.2       1 ALC1        0.0000 
     83 O         -14.3550   20.5220  -18.6140 O.2       6 ALP1        0.0000 
     84 O         -14.1575   19.8935  -19.9020 O.2       1 ALC1        0.0000 
     85 O         -13.9600   19.2650  -21.1900 O.2      11 ALL1        0.0000 
     86 CA        -10.5195   16.6795  -21.8865 C.3       5 GLC5        0.0000 
     87 CA        -10.9270   18.3200  -22.6000 C.3      15 GLL5        0.0000 
     88 CA        -11.8190   14.2748  -26.9265 C.3       5 GLC5        0.0000 
     89 CA        -10.1440   15.1810  -26.0160 C.3      15 GLL5        0.0000 
     90 CA        -13.2980   12.8130  -27.3560 C.3      10 GLP5        0.0000 
@<TRIPOS>BOND
@<TRIPOS>SUBSTRUCTURE
     1 ALC1       58 GROUP        1 X    ALC  0     ROOT ALC X 1
     2 SEC2        4 GROUP        1 X    SEC  0     **** SEC X 2
     3 LYC4        1 GROUP        1 X    LYC  0     **** LYC X 4
     4 ZIC7       17 GROUP        1 X    ZIC  0     **** ZIC X 5
     5 GLC5       47 GROUP        1 X    GLC  0     **** GLC X 6
     6 ALP1       60 GROUP        1 Y    ALP  0     ROOT ALP Y 8
     7 SEP2        6 GROUP        1 Y    SEP  0     **** SEP Y 9
     8 LYP4        3 GROUP        1 Y    LYP  0     **** LYP Y 11
     9 ZIP7       19 GROUP        1 Y    ZIP  0     **** ZIP Y 12
    10 GLP5       49 GROUP        1 Y    GLP  0     **** GLP Y 13
    11 ALL1       59 GROUP        1 Z    ALL  0     ROOT ALL Z 15
    12 SEL2        5 GROUP        1 Z    SEL  0     **** SEL Z 16
    13 LYL4        2 GROUP        1 Z    LYL  0     **** LYL Z 18
    14 ZIL7       18 GROUP        1 Z    ZIL  0     **** ZIL Z 19
    15 GLL5       48 GROUP        1 Z    GLL  0     **** GLL Z 20
@<TRIPOS>SET

