#    Name: 3bh6_GNP_1_ligand
#    Modification time : Mon Mar 24 19:33:06 2014

@<TRIPOS>MOLECULE
3bh6_GNP_1_ligand
   44    46     1     0     0
SMALL
NO_CHARGES


@<TRIPOS>ATOM
      1 PG         -3.7900   11.4320  -27.8660 P.3       1 GNP1        0.0000 
      2 O1G        -4.6620   10.5660  -28.7560 O.co2     1 GNP1        0.0000 
      3 O2G        -2.8950   10.6420  -26.9530 O.co2     1 GNP1        0.0000 
      4 O3G        -3.0530   12.4180  -28.7370 O.co2     1 GNP1        0.0000 
      5 N3B        -4.7750   12.3020  -26.9740 N.4       1 GNP1        0.0000 
      6 PB         -4.3630   13.6090  -26.1890 P.3       1 GNP1        0.0000 
      7 O1B        -3.8410   13.2790  -24.8520 O.co2     1 GNP1        0.0000 
      8 O2B        -3.4580   14.3990  -27.0450 O.co2     1 GNP1        0.0000 
      9 O3A        -5.6690   14.3440  -25.8990 O.3       1 GNP1        0.0000 
     10 PA         -6.3120   15.4410  -26.7520 P.3       1 GNP1        0.0000 
     11 O1A        -6.4450   14.9620  -28.1420 O.co2     1 GNP1        0.0000 
     12 O2A        -5.6060   16.7260  -26.5340 O.co2     1 GNP1        0.0000 
     13 O5'        -7.7560   15.6740  -26.1840 O.3       1 GNP1        0.0000 
     14 C5'        -8.7230   14.6350  -26.1600 C.3       1 GNP1        0.0000 
     15 C4'       -10.1440   15.1810  -26.0160 C.3       1 GNP1        0.0000 
     16 O4'       -10.4020   15.7330  -24.6930 O.3       1 GNP1        0.0000 
     17 C3'       -10.5360   16.2920  -26.9780 C.3       1 GNP1        0.0000 
     18 O3'       -11.9220   16.1390  -27.2480 O.3       1 GNP1        0.0000 
     19 C2'       -10.2570   17.5540  -26.1680 C.3       1 GNP1        0.0000 
     20 O2'       -10.9890   18.6470  -26.6680 O.3       1 GNP1        0.0000 
     21 C1'       -10.7720   17.1010  -24.8050 C.3       1 GNP1        0.0000 
     22 N9        -10.2180   17.7390  -23.6250 N.pl3     1 GNP1        0.0000 
     23 C8         -8.8930   17.8350  -23.2690 C.2       1 GNP1        0.0000 
     24 N7         -8.6980   18.4420  -22.1260 N.2       1 GNP1        0.0000 
     25 C5         -9.9820   18.7590  -21.6880 C.2       1 GNP1        0.0000 
     26 C6        -10.4150   19.4280  -20.5070 C.2       1 GNP1        0.0000 
     27 O6         -9.7280   19.8820  -19.5740 O.2       1 GNP1        0.0000 
     28 N1        -11.8070   19.5370  -20.4550 N.am      1 GNP1        0.0000 
     29 C2        -12.6640   19.0670  -21.4210 C.2       1 GNP1        0.0000 
     30 N2        -13.9600   19.2650  -21.1900 N.pl3     1 GNP1        0.0000 
     31 N3        -12.2770   18.4420  -22.5320 N.2       1 GNP1        0.0000 
     32 C4        -10.9270   18.3200  -22.6000 C.2       1 GNP1        0.0000 
     33 H          -8.5517   13.9353  -25.3205 H         1 GNP1        0.0000 
     34 H          -8.6949   14.0279  -27.0843 H         1 GNP1        0.0000 
     35 H         -10.8572   14.3538  -26.1789 H         1 GNP1        0.0000 
     36 H          -9.9159   16.2559  -27.8077 H         1 GNP1        0.0000 
     37 H          -9.2208   17.6810  -26.1052 H         1 GNP1        0.0000 
     38 H         -11.8524   17.1654  -24.8069 H         1 GNP1        0.0000 
     39 H          -8.1689   17.4631  -23.8550 H         1 GNP1        0.0000 
     40 H         -12.2236   20.0190  -19.6044 H         1 GNP1        0.0000 
     41 H         -14.5890   18.9180  -21.8857 H         1 GNP1        0.0000 
     42 H         -14.1878   19.7429  -20.3416 H         1 GNP1        0.0000 
     43 H         -12.0767   16.6404  -28.0993 H         1 GNP1        0.0000 
     44 H         -10.3286   19.3957  -26.7263 H         1 GNP1        0.0000 
@<TRIPOS>BOND
     1    2    1 ar   
     2    3    1 ar   
     3    4    1 ar   
     4    5    1 1    
     5    6    5 1    
     6    7    6 ar   
     7    8    6 ar   
     8    9    6 1    
     9   10    9 1    
    10   11   10 ar   
    11   12   10 ar   
    12   13   10 1    
    13   14   13 1    
    14   15   14 1    
    15   33   14 1    
    16   34   14 1    
    17   16   15 1    
    18   17   15 1    
    19   35   15 1    
    20   21   16 1    
    21   18   17 1    
    22   19   17 1    
    23   36   17 1    
    24   43   18 1    
    25   20   19 1    
    26   21   19 1    
    27   37   19 1    
    28   44   20 1    
    29   22   21 1    
    30   38   21 1    
    31   23   22 1    
    32   32   22 1    
    33   24   23 2    
    34   39   23 1    
    35   25   24 1    
    36   26   25 1    
    37   32   25 2    
    38   27   26 2    
    39   28   26 am   
    40   29   28 1    
    41   40   28 1    
    42   30   29 1    
    43   31   29 2    
    44   41   30 1    
    45   42   30 1    
    46   32   31 1    
@<TRIPOS>SUBSTRUCTURE
     1 GNP1        1 GROUP   
@<TRIPOS>SET

