#    Name: 1lpf_FAD_2_INTS_M
#    Modification time : Tue Mar 25 11:14:21 2014

@<TRIPOS>MOLECULE
1lpf_FAD_2_INTS_M
  126     0     9     0     0
SMALL
NO_CHARGES


@<TRIPOS>ATOM
      1 N         -39.9350    0.7120  -63.9175 N.am      2 SEC2        0.0000 
      2 N         -40.8150    1.4620  -63.0810 N.am      8 SEL2        0.0000 
      3 N         -39.0550   -0.0380  -64.7540 N.am      5 SEP2        0.0000 
      4 N         -40.5130    2.7335  -65.2625 N.am      2 SEC2        0.0000 
      5 N         -41.7030    3.0140  -64.9300 N.am      8 SEL2        0.0000 
      6 N         -39.3230    2.4530  -65.5950 N.am      5 SEP2        0.0000 
      7 CA        -43.4870   -0.2470  -63.5630 C.3       3 GLC5        0.0000 
      8 CA        -43.9550    1.1730  -65.1730 C.3       9 GLL5        0.0000 
      9 CA        -43.0190   -1.6670  -61.9530 C.3       6 GLP5        0.0000 
     10 CA        -45.8310    2.2320  -65.5970 C.3       3 GLC5        0.0000 
     11 CA        -47.7070    3.2910  -66.0210 C.3       6 GLP5        0.0000 
     12 CA        -44.2565    3.1275  -65.0200 C.3       3 GLC5        0.0000 
     13 CA        -44.5580    5.0820  -64.8670 C.3       6 GLP5        0.0000 
     14 CA        -46.0440   -0.9025  -65.6405 C.3       3 GLC5        0.0000 
     15 CA        -44.3610   -0.0450  -66.0050 C.3       9 GLL5        0.0000 
     16 CA        -47.7270   -1.7600  -65.2760 C.3       6 GLP5        0.0000 
     17 CA        -41.8845   -1.1870  -65.9200 C.3       3 GLC5        0.0000 
     18 CA        -43.3640   -0.3460  -67.1190 C.3       9 GLL5        0.0000 
     19 CA        -40.4050   -2.0280  -64.7210 C.3       6 GLP5        0.0000 
     20 O         -43.7520   -2.7260  -66.8915 O.2       1 ALC1        0.0000 
     21 O         -42.9480   -1.7240  -67.0680 O.2       7 ALL1        0.0000 
     22 O         -44.5560   -3.7280  -66.7150 O.2       4 ALP1        0.0000 
     23 O         -44.0150   -2.2935  -69.1490 O.2       1 ALC1        0.0000 
     24 O         -43.6540   -0.9980  -69.4160 O.2       7 ALL1        0.0000 
     25 O         -44.3760   -3.5890  -68.8820 O.2       4 ALP1        0.0000 
     26 CA        -46.6395   -1.1085  -66.6085 C.3       3 GLC5        0.0000 
     27 CA        -45.5520   -0.4570  -67.9410 C.3       9 GLL5        0.0000 
     28 CA        -50.3365   -0.1895  -72.4465 C.3       3 GLC5        0.0000 
     29 CA        -49.6730    0.1150  -70.4080 C.3       9 GLL5        0.0000 
     30 CA        -51.0000   -0.4940  -74.4850 C.3       6 GLP5        0.0000 
     31 O         -51.8915    0.7285  -71.0550 O.2       1 ALC1        0.0000 
     32 O         -50.5290    1.0930  -70.6950 O.2       7 ALL1        0.0000 
     33 O         -53.2540    0.3640  -71.4150 O.2       4 ALP1        0.0000 
     34 N         -51.1985   -1.6125  -71.2135 N.am      2 SEC2        0.0000 
     35 N         -49.9950   -1.1800  -70.4430 N.am      8 SEL2        0.0000 
     36 N         -52.4020   -2.0450  -71.9840 N.am      5 SEP2        0.0000 
     37 CA        -50.3175   -1.1010  -68.6600 C.3       3 GLC5        0.0000 
     38 CA        -49.2190   -2.1230  -69.9140 C.3       9 GLL5        0.0000 
     39 CA        -51.4160   -0.0790  -67.4060 C.3       6 GLP5        0.0000 
     40 CA        -50.4580   -3.4975  -69.6765 C.3       3 GLC5        0.0000 
     41 CA        -51.6970   -4.8720  -69.4390 C.3       6 GLP5        0.0000 
     42 CA        -48.2980   -3.7395  -69.2790 C.3       3 GLC5        0.0000 
     43 CA        -47.3770   -5.3560  -68.6440 C.3       6 GLP5        0.0000 
     44 CA        -47.6255   -2.2635  -71.2515 C.3       3 GLC5        0.0000 
     45 CA        -46.0320   -2.4040  -72.5890 C.3       6 GLP5        0.0000 
     46 CA        -49.9945   -2.4530  -71.7715 C.3       3 GLC5        0.0000 
     47 CA        -50.7700   -2.7830  -73.6290 C.3       6 GLP5        0.0000 
     48 CA        -47.6910   -1.1705  -67.2680 C.3       3 GLC5        0.0000 
     49 CA        -47.6550   -0.5810  -69.2600 C.3       9 GLL5        0.0000 
     50 CA        -46.8435   -1.4925  -70.9245 C.3       3 GLC5        0.0000 
     51 N         -37.1090    4.7840  -57.0675 N.am      2 SEC2        0.0000 
     52 N         -35.5620    5.0140  -57.6970 N.am      8 SEL2        0.0000 
     53 N         -38.6560    4.5540  -56.4380 N.am      5 SEP2        0.0000 
     54 O         -34.0470    3.4055  -54.9400 O.2       1 ALC1        0.0000 
     55 O         -33.9470    4.1130  -56.1930 O.2       7 ALL1        0.0000 
     56 O         -34.1470    2.6980  -53.6870 O.2       4 ALP1        0.0000 
     57 N         -30.5495    3.4355  -57.5370 N.am      2 SEC2        0.0000 
     58 N         -31.9860    3.3850  -57.1100 N.am      8 SEL2        0.0000 
     59 N         -29.1130    3.4860  -57.9640 N.am      5 SEP2        0.0000 
     60 CA        -30.0205    3.6205  -61.7825 C.3       3 GLC5        0.0000 
     61 CA        -31.9740    4.5920  -61.7840 C.3       9 GLL5        0.0000 
     62 CA        -28.0670    2.6490  -61.7810 C.3       6 GLP5        0.0000 
     63 CA        -31.6620    6.7930  -62.0445 C.3       3 GLC5        0.0000 
     64 CA        -31.3500    8.9940  -62.3050 C.3       6 GLP5        0.0000 
     65 CA        -31.2755    5.5790  -65.9540 C.3       3 GLC5        0.0000 
     66 CA        -31.1370    5.0180  -64.1530 C.3       9 GLL5        0.0000 
     67 CA        -31.4140    6.1400  -67.7550 C.3       6 GLP5        0.0000 
     68 CA        -30.2270    3.3575  -65.3510 C.3       3 GLC5        0.0000 
     69 CA        -29.3170    1.6970  -66.5490 C.3       6 GLP5        0.0000 
     70 CA        -30.5245    6.7355  -64.1720 C.3       3 GLC5        0.0000 
     71 CA        -29.9120    8.4530  -64.1910 C.3       6 GLP5        0.0000 
     72 CA        -29.1600    5.8735  -64.3180 C.3       3 GLC5        0.0000 
     73 CA        -27.1830    6.7290  -64.4830 C.3       6 GLP5        0.0000 
     74 CA        -35.4550    4.4560  -64.9295 C.3       3 GLC5        0.0000 
     75 CA        -33.8350    5.7580  -64.8520 C.3       9 GLL5        0.0000 
     76 CA        -37.0750    3.1540  -65.0070 C.3       6 GLP5        0.0000 
     77 CA        -32.6245    5.9490  -66.3035 C.3       3 GLC5        0.0000 
     78 CA        -35.7460    4.4015  -63.6955 C.3       3 GLC5        0.0000 
     79 CA        -34.4170    5.6490  -62.3840 C.3       9 GLL5        0.0000 
     80 CA        -37.2600    2.1350  -60.2510 C.3       3 GLC5        0.0000 
     81 CA        -37.2310    4.3400  -60.3050 C.3       9 GLL5        0.0000 
     82 CA        -37.2890   -0.0700  -60.1970 C.3       6 GLP5        0.0000 
     83 CA        -36.1365    2.8510  -59.4915 C.3       3 GLC5        0.0000 
     84 CA        -35.0420    1.3620  -58.6780 C.3       6 GLP5        0.0000 
     85 CA        -37.6635    3.2745  -58.3910 C.3       3 GLC5        0.0000 
     86 CA        -38.0960    2.2090  -56.4770 C.3       6 GLP5        0.0000 
     87 O         -40.3200    6.4070  -59.7015 O.2       1 ALC1        0.0000 
     88 O         -38.8510    5.7440  -59.2950 O.2       7 ALL1        0.0000 
     89 O         -41.7890    7.0700  -60.1080 O.2       4 ALP1        0.0000 
     90 CA        -38.4910    1.8100  -60.1970 C.3       3 GLC5        0.0000 
     91 CA        -39.6930    3.6900  -60.1970 C.3       9 GLL5        0.0000 
     92 N         -38.2770    1.4780  -61.7520 N.am      2 SEC2        0.0000 
     93 N         -39.3050    2.5330  -60.9550 N.am      8 SEL2        0.0000 
     94 N         -37.2490    0.4230  -62.5490 N.am      5 SEP2        0.0000 
     95 CA        -42.0350    5.9055  -61.3565 C.3       3 GLC5        0.0000 
     96 CA        -41.1170    4.0730  -60.6310 C.3       9 GLL5        0.0000 
     97 CA        -42.9530    7.7380  -62.0820 C.3       6 GLP5        0.0000 
     98 CA        -42.3635    3.6850  -58.8400 C.3       3 GLC5        0.0000 
     99 CA        -43.6100    3.2970  -57.0490 C.3       6 GLP5        0.0000 
    100 N         -44.1185    0.7295  -59.5420 N.am      2 SEC2        0.0000 
    101 N         -43.8610    1.4120  -60.9280 N.am      8 SEL2        0.0000 
    102 N         -44.3760    0.0470  -58.1560 N.am      5 SEP2        0.0000 
    103 N         -44.4185    5.4665  -60.6980 N.am      2 SEC2        0.0000 
    104 N         -44.1680    3.9480  -60.9140 N.am      8 SEL2        0.0000 
    105 N         -44.6690    6.9850  -60.4820 N.am      5 SEP2        0.0000 
    106 CA        -47.9738   -0.5953  -71.7283 C.3       3 GLC5        0.0000 
    107 CA        -46.8770   -1.4370  -73.3540 C.3       6 GLP5        0.0000 
    108 CA        -49.8894   -0.1231  -68.5436 C.3       3 GLC5        0.0000 
    109 CA        -48.4680    0.3780  -69.7970 C.3       9 GLL5        0.0000 
    110 CA        -32.8188    3.1803  -62.1893 C.3       3 GLC5        0.0000 
    111 CA        -32.9550    4.6790  -60.7950 C.3       9 GLL5        0.0000 
    112 CA        -33.1730    1.7250  -63.0890 C.3       6 GLP5        0.0000 
    113 CA        -32.4528    2.7438  -60.3618 C.3       3 GLC5        0.0000 
    114 CA        -32.4410    0.8520  -59.4340 C.3       6 GLP5        0.0000 
    115 CA        -32.4293    3.3645  -63.3550 C.3       3 GLC5        0.0000 
    116 CA        -32.2340    4.9900  -63.0890 C.3       9 GLL5        0.0000 
    117 CA        -33.4163    3.6713  -63.6060 C.3       3 GLC5        0.0000 
    118 CA        -33.4840    5.4770  -63.3940 C.3       9 GLL5        0.0000 
    119 CA        -33.7380    3.5962  -62.4005 C.3       3 GLC5        0.0000 
    120 CA        -33.3020    7.3437  -63.1027 C.3       3 GLC5        0.0000 
    121 CA        -32.7220    9.1150  -62.9900 C.3       6 GLP5        0.0000 
    122 CA        -39.1842    3.7443  -58.2913 C.3       3 GLC5        0.0000 
    123 CA        -38.6780    4.8270  -60.3720 C.3       9 GLL5        0.0000 
    124 CA        -39.1830    3.2300  -56.2980 C.3       6 GLP5        0.0000 
    125 CA        -40.6725    2.1008  -59.7375 C.3       3 GLC5        0.0000 
    126 CA        -40.9400    0.3200  -59.0610 C.3       6 GLP5        0.0000 
@<TRIPOS>BOND
@<TRIPOS>SUBSTRUCTURE
     1 ALC1       20 GROUP        1 X    ALC  0     ROOT ALC X 1
     2 SEC2        1 GROUP        1 X    SEC  0     **** SEC X 2
     3 GLC5        7 GROUP        1 X    GLC  0     **** GLC X 6
     4 ALP1       22 GROUP        1 Y    ALP  0     ROOT ALP Y 8
     5 SEP2        3 GROUP        1 Y    SEP  0     **** SEP Y 9
     6 GLP5        9 GROUP        1 Y    GLP  0     **** GLP Y 13
     7 ALL1       21 GROUP        1 Z    ALL  0     ROOT ALL Z 15
     8 SEL2        2 GROUP        1 Z    SEL  0     **** SEL Z 16
     9 GLL5        8 GROUP        1 Z    GLL  0     **** GLL Z 20
@<TRIPOS>SET

