#    Name: 1lpf_FAD_2_ligand
#    Modification time : Tue Mar 25 11:14:21 2014

@<TRIPOS>MOLECULE
1lpf_FAD_2_ligand
   84    89     1     0     0
SMALL
NO_CHARGES


@<TRIPOS>ATOM
      1 PA        -41.9490    2.1360  -63.7620 P.3       1 FAD480      0.0000 
      2 O1A       -40.8150    1.4620  -63.0810 O.co2     1 FAD480      0.0000 
      3 O2A       -41.7030    3.0140  -64.9300 O.co2     1 FAD480      0.0000 
      4 O5B       -42.9310    0.9370  -64.1710 O.3       1 FAD480      0.0000 
      5 C5B       -43.9550    1.1730  -65.1730 C.3       1 FAD480      0.0000 
      6 C4B       -44.3610   -0.0450  -66.0050 C.3       1 FAD480      0.0000 
      7 O4B       -45.6610    0.1100  -66.6200 O.3       1 FAD480      0.0000 
      8 C3B       -43.3640   -0.3460  -67.1190 C.3       1 FAD480      0.0000 
      9 O3B       -42.9480   -1.7240  -67.0680 O.3       1 FAD480      0.0000 
     10 C2B       -44.1460   -0.1110  -68.3990 C.3       1 FAD480      0.0000 
     11 O2B       -43.6540   -0.9980  -69.4160 O.3       1 FAD480      0.0000 
     12 C1B       -45.5520   -0.4570  -67.9410 C.3       1 FAD480      0.0000 
     13 N9A       -46.6070    0.1010  -68.8090 N.pl3     1 FAD480      0.0000 
     14 C8A       -46.8000    1.4020  -69.0710 C.2       1 FAD480      0.0000 
     15 N7A       -47.9760    1.6000  -69.6700 N.2       1 FAD480      0.0000 
     16 C5A       -48.4680    0.3780  -69.7970 C.ar      1 FAD480      0.0000 
     17 C6A       -49.6730    0.1150  -70.4080 C.ar      1 FAD480      0.0000 
     18 N6A       -50.5290    1.0930  -70.6950 N.pl3     1 FAD480      0.0000 
     19 N1A       -49.9950   -1.1800  -70.4430 N.ar      1 FAD480      0.0000 
     20 C2A       -49.2190   -2.1230  -69.9140 C.ar      1 FAD480      0.0000 
     21 N3A       -48.0640   -1.8610  -69.3190 N.ar      1 FAD480      0.0000 
     22 C4A       -47.6550   -0.5810  -69.2600 C.ar      1 FAD480      0.0000 
     23 N1        -35.5620    5.0140  -57.6970 N.2       1 FAD480      0.0000 
     24 C2        -35.2130    4.6430  -56.4450 C.2       1 FAD480      0.0000 
     25 O2        -36.0610    4.6310  -55.5520 O.2       1 FAD480      0.0000 
     26 N3        -33.9470    4.1130  -56.1930 N.am      1 FAD480      0.0000 
     27 C4        -33.0870    3.9190  -57.2900 C.2       1 FAD480      0.0000 
     28 O4        -31.9860    3.3850  -57.1100 O.2       1 FAD480      0.0000 
     29 C4X       -33.5070    4.2800  -58.5850 C.2       1 FAD480      0.0000 
     30 N5        -32.6270    4.2300  -59.5870 N.2       1 FAD480      0.0000 
     31 C5X       -32.9550    4.6790  -60.7950 C.ar      1 FAD480      0.0000 
     32 C6        -31.9740    4.5920  -61.7840 C.ar      1 FAD480      0.0000 
     33 C7        -32.2340    4.9900  -63.0890 C.ar      1 FAD480      0.0000 
     34 C7M       -31.1370    5.0180  -64.1530 C.3       1 FAD480      0.0000 
     35 C8        -33.4840    5.4770  -63.3940 C.ar      1 FAD480      0.0000 
     36 C8M       -33.8350    5.7580  -64.8520 C.3       1 FAD480      0.0000 
     37 C9        -34.4170    5.6490  -62.3840 C.ar      1 FAD480      0.0000 
     38 C9A       -34.1890    5.2860  -61.0400 C.ar      1 FAD480      0.0000 
     39 N10       -35.0500    5.3030  -59.9970 N.pl3     1 FAD480      0.0000 
     40 C10       -34.7450    4.8970  -58.7750 C.2       1 FAD480      0.0000 
     41 C1'       -36.4020    5.6760  -60.3020 C.3       1 FAD480      0.0000 
     42 C2'       -37.2310    4.3400  -60.3050 C.3       1 FAD480      0.0000 
     43 O2'       -37.0600    3.4060  -61.3610 O.3       1 FAD480      0.0000 
     44 C3'       -38.6780    4.8270  -60.3720 C.3       1 FAD480      0.0000 
     45 O3'       -38.8510    5.7440  -59.2950 O.3       1 FAD480      0.0000 
     46 C4'       -39.6930    3.6900  -60.1970 C.3       1 FAD480      0.0000 
     47 O4'       -39.3050    2.5330  -60.9550 O.3       1 FAD480      0.0000 
     48 C5'       -41.1170    4.0730  -60.6310 C.3       1 FAD480      0.0000 
     49 O5'       -42.0150    2.9660  -60.3930 O.3       1 FAD480      0.0000 
     50 P         -43.3500    2.7630  -61.2470 P.3       1 FAD480      0.0000 
     51 O1P       -43.8610    1.4120  -60.9280 O.co2     1 FAD480      0.0000 
     52 O2P       -44.1680    3.9480  -60.9140 O.co2     1 FAD480      0.0000 
     53 O3P       -42.8830    2.9220  -62.7580 O.3       1 FAD480      0.0000 
     54 H         -43.6288    1.9712  -65.8852 H         1 FAD480      0.0000 
     55 H         -44.8826    1.5772  -64.6966 H         1 FAD480      0.0000 
     56 H         -44.3743   -0.9203  -65.3441 H         1 FAD480      0.0000 
     57 H         -42.5701    0.3371  -67.0696 H         1 FAD480      0.0000 
     58 H         -44.0959    0.9043  -68.6364 H         1 FAD480      0.0000 
     59 H         -45.6313   -1.5276  -67.8813 H         1 FAD480      0.0000 
     60 H         -46.1557    2.1155  -68.8489 H         1 FAD480      0.0000 
     61 H         -50.2333    2.0192  -70.4612 H         1 FAD480      0.0000 
     62 H         -51.3906    0.8134  -71.1186 H         1 FAD480      0.0000 
     63 H         -49.5451   -3.1405  -69.9730 H         1 FAD480      0.0000 
     64 H         -33.6527    3.8750  -55.2576 H         1 FAD480      0.0000 
     65 H         -31.0380    4.2243  -61.5378 H         1 FAD480      0.0000 
     66 H         -35.3495    6.0726  -62.6221 H         1 FAD480      0.0000 
     67 H         -36.5012    6.1119  -61.2808 H         1 FAD480      0.0000 
     68 H         -36.8350    6.3152  -59.5524 H         1 FAD480      0.0000 
     69 H         -37.1248    3.8969  -59.3193 H         1 FAD480      0.0000 
     70 H         -38.8420    5.3031  -61.3125 H         1 FAD480      0.0000 
     71 H         -39.7375    3.4341  -59.1351 H         1 FAD480      0.0000 
     72 H         -41.0830    4.3409  -61.6903 H         1 FAD480      0.0000 
     73 H         -41.4130    4.9585  -60.0625 H         1 FAD480      0.0000 
     74 H         -30.3890    5.6313  -63.8992 H         1 FAD480      0.0000 
     75 H         -30.7374    4.1129  -64.2984 H         1 FAD480      0.0000 
     76 H         -31.4849    5.3303  -65.0370 H         1 FAD480      0.0000 
     77 H         -33.2240    6.4384  -65.2566 H         1 FAD480      0.0000 
     78 H         -33.7701    4.9341  -65.4151 H         1 FAD480      0.0000 
     79 H         -34.7672    6.1066  -64.9490 H         1 FAD480      0.0000 
     80 H         -43.7922   -2.2445  -66.9403 H         1 FAD480      0.0000 
     81 H         -43.9670   -1.9068  -69.1401 H         1 FAD480      0.0000 
     82 H         -37.9818    3.2396  -61.7110 H         1 FAD480      0.0000 
     83 H         -39.6505    6.2897  -59.5458 H         1 FAD480      0.0000 
     84 H         -40.0568    2.3799  -61.5964 H         1 FAD480      0.0000 
@<TRIPOS>BOND
     1    2    1 ar   
     2    3    1 ar   
     3    4    1 1    
     4   53    1 1    
     5    5    4 1    
     6    6    5 1    
     7   54    5 1    
     8   55    5 1    
     9    7    6 1    
    10    8    6 1    
    11   56    6 1    
    12   12    7 1    
    13    9    8 1    
    14   10    8 1    
    15   57    8 1    
    16   80    9 1    
    17   11   10 1    
    18   12   10 1    
    19   58   10 1    
    20   81   11 1    
    21   13   12 1    
    22   59   12 1    
    23   14   13 1    
    24   22   13 1    
    25   15   14 2    
    26   60   14 1    
    27   16   15 1    
    28   17   16 ar   
    29   22   16 ar   
    30   18   17 1    
    31   19   17 ar   
    32   61   18 1    
    33   62   18 1    
    34   20   19 ar   
    35   21   20 ar   
    36   63   20 1    
    37   22   21 ar   
    38   24   23 1    
    39   40   23 2    
    40   25   24 2    
    41   26   24 am   
    42   27   26 am   
    43   64   26 1    
    44   28   27 2    
    45   29   27 1    
    46   30   29 2    
    47   40   29 1    
    48   31   30 1    
    49   32   31 ar   
    50   38   31 ar   
    51   33   32 ar   
    52   65   32 1    
    53   34   33 1    
    54   35   33 ar   
    55   74   34 1    
    56   75   34 1    
    57   76   34 1    
    58   36   35 1    
    59   37   35 ar   
    60   77   36 1    
    61   78   36 1    
    62   79   36 1    
    63   38   37 ar   
    64   66   37 1    
    65   39   38 1    
    66   40   39 1    
    67   41   39 1    
    68   42   41 1    
    69   67   41 1    
    70   68   41 1    
    71   43   42 1    
    72   44   42 1    
    73   69   42 1    
    74   82   43 1    
    75   45   44 1    
    76   46   44 1    
    77   70   44 1    
    78   83   45 1    
    79   47   46 1    
    80   48   46 1    
    81   71   46 1    
    82   84   47 1    
    83   49   48 1    
    84   72   48 1    
    85   73   48 1    
    86   50   49 1    
    87   51   50 ar   
    88   52   50 ar   
    89   53   50 1    
@<TRIPOS>SUBSTRUCTURE
     1 FAD480      1 GROUP   
@<TRIPOS>SET

