#    Name: 4mp2_PV1_1_INTS_M
#    Modification time : Tue Mar 25 12:17:26 2014

@<TRIPOS>MOLECULE
4mp2_PV1_1_INTS_M
   47     0     9     0     0
SMALL
NO_CHARGES


@<TRIPOS>ATOM
      1 N          11.0805   -0.1275  -38.3575 N.am      2 SEC2        0.0000 
      2 N          12.4710    0.0320  -38.1640 N.am      8 SEL2        0.0000 
      3 N           9.6900   -0.2870  -38.5510 N.am      5 SEP2        0.0000 
      4 O          10.9465    2.9685  -40.5360 O.2       1 ALC1        0.0000 
      5 O          11.7500    2.6670  -39.8010 O.2       7 ALL1        0.0000 
      6 O          10.1430    3.2700  -41.2710 O.2       4 ALP1        0.0000 
      7 CA         14.2020   -0.9390  -36.8495 C.3       3 GLC5        0.0000 
      8 CA         15.2050   -0.1990  -38.1810 C.3       9 GLL5        0.0000 
      9 CA         13.1990   -1.6790  -35.5180 C.3       6 GLP5        0.0000 
     10 CA         11.5740    3.0540  -32.8575 C.3       3 GLC5        0.0000 
     11 CA         11.4030    4.4360  -34.0480 C.3       9 GLL5        0.0000 
     12 CA         11.7450    1.6720  -31.6670 C.3       6 GLP5        0.0000 
     13 CA         11.5065    5.2540  -32.7505 C.3       3 GLC5        0.0000 
     14 CA         11.6100    6.0720  -31.4530 C.3       6 GLP5        0.0000 
     15 CA          9.9340    4.0040  -33.2760 C.3       3 GLC5        0.0000 
     16 CA          8.4650    3.5720  -32.5040 C.3       6 GLP5        0.0000 
     17 CA         12.8675    4.7190  -36.5935 C.3       3 GLC5        0.0000 
     18 CA         12.2630    2.6550  -36.1260 C.3       9 GLL5        0.0000 
     19 CA         13.4720    6.7830  -37.0610 C.3       6 GLP5        0.0000 
     20 CA         19.0153    3.7172  -39.0225 C.3       3 GLC5        0.0000 
     21 CA         17.8000    2.4780  -38.0080 C.3       9 GLL5        0.0000 
     22 CA         19.6720    5.2790  -39.7690 C.3       6 GLP5        0.0000 
     23 CA         17.3298    2.2812  -39.9535 C.3       3 GLC5        0.0000 
     24 CA         18.9170    1.8330  -38.5440 C.3       9 GLL5        0.0000 
     25 CA         16.3010    2.4070  -41.6310 C.3       6 GLP5        0.0000 
     26 CA         19.8583    1.1785  -40.6358 C.3       3 GLC5        0.0000 
     27 CA         20.8190    1.1910  -42.5090 C.3       6 GLP5        0.0000 
     28 CA         17.2978    1.2622  -40.2865 C.3       3 GLC5        0.0000 
     29 CA         17.7110   -0.2640  -38.9030 C.3       9 GLL5        0.0000 
     30 CA         15.2701    1.6942  -39.3745 C.3       3 GLC5        0.0000 
     31 CA         16.5870    0.3570  -38.3750 C.3       9 GLL5        0.0000 
     32 CA         14.9510    2.0960  -40.9600 C.3       6 GLP5        0.0000 
     33 CA         12.4757    5.4520  -35.9970 C.3       3 GLC5        0.0000 
     34 CA         11.5560    3.8060  -35.8180 C.3       9 GLL5        0.0000 
     35 CA          9.5093    2.8518  -37.5955 C.3       3 GLC5        0.0000 
     36 CA         10.8860    4.6200  -36.8500 C.3       9 GLL5        0.0000 
     37 CA          8.0950    1.2780  -37.6690 C.3       6 GLP5        0.0000 
     38 CA         11.9172    4.8490  -39.8327 C.3       3 GLC5        0.0000 
     39 CA         10.9610    4.2310  -38.1940 C.3       9 GLL5        0.0000 
     40 CA         12.5220    6.0450  -41.3120 C.3       6 GLP5        0.0000 
     41 CA         12.3829    5.2666  -37.5392 C.3       3 GLC5        0.0000 
     42 CA         11.6640    3.0750  -38.5130 C.3       9 GLL5        0.0000 
     43 CA         13.4793    2.3842  -39.4723 C.3       3 GLC5        0.0000 
     44 CA         10.3857    1.7067  -38.4477 C.3       3 GLC5        0.0000 
     45 CA          8.7640    0.7410  -38.9110 C.3       6 GLP5        0.0000 
     46 CA         12.7530    0.3917  -36.1545 C.3       3 GLC5        0.0000 
     47 CA         12.3510    2.2700  -37.4560 C.3       9 GLL5        0.0000 
@<TRIPOS>BOND
@<TRIPOS>SUBSTRUCTURE
     1 ALC1        4 GROUP        1 X    ALC  0     ROOT ALC X 1
     2 SEC2        1 GROUP        1 X    SEC  0     **** SEC X 2
     3 GLC5        7 GROUP        1 X    GLC  0     **** GLC X 6
     4 ALP1        6 GROUP        1 Y    ALP  0     ROOT ALP Y 8
     5 SEP2        3 GROUP        1 Y    SEP  0     **** SEP Y 9
     6 GLP5        9 GROUP        1 Y    GLP  0     **** GLP Y 13
     7 ALL1        5 GROUP        1 Z    ALL  0     ROOT ALL Z 15
     8 SEL2        2 GROUP        1 Z    SEL  0     **** SEL Z 16
     9 GLL5        8 GROUP        1 Z    GLL  0     **** GLL Z 20
@<TRIPOS>SET

