#    Name: 4mp2_PV1_1_ligand
#    Modification time : Tue Mar 25 12:17:26 2014

@<TRIPOS>MOLECULE
4mp2_PV1_1_ligand
   32    34     1     0     0
SMALL
NO_CHARGES


@<TRIPOS>ATOM
      1 C6         18.9170    1.8330  -38.5440 C.ar      1 PV1501      0.0000 
      2 C5         17.8000    2.4780  -38.0080 C.ar      1 PV1501      0.0000 
      3 O1         12.4710    0.0320  -38.1640 O.2       1 PV1501      0.0000 
      4 C4         16.6290    1.7440  -37.9230 C.ar      1 PV1501      0.0000 
      5 C3         16.5870    0.3570  -38.3750 C.ar      1 PV1501      0.0000 
      6 O3         10.2290    5.7420  -36.3990 O.3       1 PV1501      0.0000 
      7 C2         17.7110   -0.2640  -38.9030 C.ar      1 PV1501      0.0000 
      8 O2         11.7500    2.6670  -39.8010 O.3       1 PV1501      0.0000 
      9 C1         18.8780    0.4990  -38.9810 C.ar      1 PV1501      0.0000 
     10 N1         14.4360    1.0000  -37.7970 N.am      1 PV1501      0.0000 
     11 C7         15.2050   -0.1990  -38.1810 C.3       1 PV1501      0.0000 
     12 C8         15.2720    2.1590  -37.4130 C.3       1 PV1501      0.0000 
     13 C9         13.1010    1.0170  -37.8230 C.2       1 PV1501      0.0000 
     14 BR1        11.4030    4.4360  -34.0480 Br        1 PV1501      0.0000 
     15 C14        11.5560    3.8060  -35.8180 C.ar      1 PV1501      0.0000 
     16 C13        10.8860    4.6200  -36.8500 C.ar      1 PV1501      0.0000 
     17 C12        10.9610    4.2310  -38.1940 C.ar      1 PV1501      0.0000 
     18 C11        11.6640    3.0750  -38.5130 C.ar      1 PV1501      0.0000 
     19 C15        12.2630    2.6550  -36.1260 C.ar      1 PV1501      0.0000 
     20 C10        12.3510    2.2700  -37.4560 C.ar      1 PV1501      0.0000 
     21 H          19.8135    2.3581  -38.6239 H         1 PV1501      0.0000 
     22 H          17.8501    3.4358  -37.6983 H         1 PV1501      0.0000 
     23 H          17.6896   -1.2203  -39.2163 H         1 PV1501      0.0000 
     24 H          19.7390    0.0729  -39.3708 H         1 PV1501      0.0000 
     25 H          15.2122   -0.9128  -37.3927 H         1 PV1501      0.0000 
     26 H          14.8472   -0.6007  -39.0984 H         1 PV1501      0.0000 
     27 H          14.9542    3.0371  -37.9161 H         1 PV1501      0.0000 
     28 H          15.3045    2.2683  -36.3584 H         1 PV1501      0.0000 
     29 H          10.5094    4.7856  -38.9163 H         1 PV1501      0.0000 
     30 H          12.7080    2.1038  -35.3939 H         1 PV1501      0.0000 
     31 H           9.8886    6.1919  -37.2247 H         1 PV1501      0.0000 
     32 H          11.3388    3.4061  -40.3345 H         1 PV1501      0.0000 
@<TRIPOS>BOND
     1    2    1 ar   
     2    9    1 ar   
     3   21    1 1    
     4    4    2 ar   
     5   22    2 1    
     6   13    3 2    
     7    5    4 ar   
     8   12    4 1    
     9    7    5 ar   
    10   11    5 1    
    11   16    6 1    
    12   31    6 1    
    13    9    7 ar   
    14   23    7 1    
    15   18    8 1    
    16   32    8 1    
    17   24    9 1    
    18   11   10 1    
    19   12   10 1    
    20   13   10 am   
    21   25   11 1    
    22   26   11 1    
    23   27   12 1    
    24   28   12 1    
    25   20   13 1    
    26   15   14 1    
    27   16   15 ar   
    28   19   15 ar   
    29   17   16 ar   
    30   18   17 ar   
    31   29   17 1    
    32   20   18 ar   
    33   20   19 ar   
    34   30   19 1    
@<TRIPOS>SUBSTRUCTURE
     1 PV1501      1 GROUP   
@<TRIPOS>SET

