#    Name: 1KJ9_1_CAVITY_N1_6.mol2
#    Modification time : Tue Mar 11 13:40:44 2014

@<TRIPOS>MOLECULE
1KJ9_1_CAVITY_N1_6.mol2
  113     0     7     0     0
SMALL
NO_CHARGES


@<TRIPOS>ATOM
      1 N          36.9355   59.7971   21.9286 N.2       2 ALA2        0.0000 
      2 CA         36.0019   59.8800   23.0997 C.3       6 GLY6        0.0000 
      3 DU         35.8167   60.1875   21.0090 H         7 CUB7        0.0000 
      4 CZ         34.8830   60.2704   22.1800 C.ar      5 PHE5        0.0000 
      5 CZ         35.8835   53.3984   25.3854 C.ar      5 PHE5        0.0000 
      6 CZ         35.6984   53.7059   23.2947 C.ar      5 PHE5        0.0000 
      7 CZ         34.7647   53.7888   24.4658 C.ar      5 PHE5        0.0000 
      8 OD1        33.8310   53.8717   25.6368 O.3       3 ASP3        0.0000 
      9 N          32.8973   53.9546   26.8079 N.2       2 ALA2        0.0000 
     10 NZ         34.5795   54.0963   22.3750 N.2       4 LYS4        0.0000 
     11 DU         33.6458   54.1792   23.5461 H         7 CUB7        0.0000 
     12 DU         32.7122   54.2621   24.7172 H         7 CUB7        0.0000 
     13 N          31.7785   54.3449   25.8882 N.2       2 ALA2        0.0000 
     14 NZ         32.5270   54.5695   22.6264 N.2       4 LYS4        0.0000 
     15 CA         31.5933   54.6524   23.7975 C.3       6 GLY6        0.0000 
     16 CA         30.6596   54.7353   24.9686 C.3       6 GLY6        0.0000 
     17 NZ         32.3418   54.8770   20.5357 N.2       4 LYS4        0.0000 
     18 CA         31.4081   54.9599   21.7068 C.3       6 GLY6        0.0000 
     19 CA         30.4745   55.0428   22.8778 C.3       6 GLY6        0.0000 
     20 CA         27.6735   55.2915   26.3910 C.3       6 GLY6        0.0000 
     21 CA         36.1723   61.6335   21.1901 C.3       6 GLY6        0.0000 
     22 CA         36.5947   56.2903   25.7478 C.3       6 GLY6        0.0000 
     23 CZ         36.4095   56.5978   23.6570 C.ar      5 PHE5        0.0000 
     24 CA         35.4759   56.6807   24.8281 C.3       6 GLY6        0.0000 
     25 CZ         35.2907   56.9882   22.7374 C.ar      5 PHE5        0.0000 
     26 CA         34.3570   57.0710   23.9084 C.3       6 GLY6        0.0000 
     27 CA         33.4233   57.1539   25.0795 C.3       6 GLY6        0.0000 
     28 CA         32.4897   57.2368   26.2506 C.3       6 GLY6        0.0000 
     29 CZ         34.1718   57.3785   21.8177 C.ar      5 PHE5        0.0000 
     30 DU         33.2382   57.4614   22.9888 H         7 CUB7        0.0000 
     31 CA         32.3045   57.5443   24.1598 C.3       6 GLY6        0.0000 
     32 CA         31.3708   57.6272   25.3309 C.3       6 GLY6        0.0000 
     33 N          30.4372   57.7101   26.5019 N.2       2 ALA2        0.0000 
     34 CA         29.5035   57.7930   27.6730 C.3       6 GLY6        0.0000 
     35 N          36.7651   58.0437   23.8382 N.2       2 ALA2        0.0000 
     36 CZ         35.6463   58.4341   22.9185 C.ar      5 PHE5        0.0000 
     37 CA         34.7126   58.5170   24.0896 C.3       6 GLY6        0.0000 
     38 DU         34.5274   58.8245   21.9989 H         7 CUB7        0.0000 
     39 CZ         33.5938   58.9074   23.1699 C.ar      5 PHE5        0.0000 
     40 CZ         32.6601   58.9902   24.3410 C.ar      5 PHE5        0.0000 
     41 CZ         31.7264   59.0731   25.5121 C.ar      5 PHE5        0.0000 
     42 CA         30.7927   59.1560   26.6831 C.3       6 GLY6        0.0000 
     43 DU         33.4086   59.2148   21.0792 H         7 CUB7        0.0000 
     44 CZ         32.4749   59.2977   22.2503 C.ar      5 PHE5        0.0000 
     45 CZ         31.5412   59.3806   23.4213 C.ar      5 PHE5        0.0000 
     46 CZ         30.6076   59.4635   24.5924 C.ar      5 PHE5        0.0000 
     47 CZ         33.9867   57.6860   19.7270 C.ar      5 PHE5        0.0000 
     48 DU         33.0530   57.7689   20.8980 H         7 CUB7        0.0000 
     49 DU         31.1857   57.9347   23.2402 H         7 CUB7        0.0000 
     50 DU         30.2520   58.0176   24.4112 H         7 CUB7        0.0000 
     51 DU         29.3183   58.1005   25.5823 H         7 CUB7        0.0000 
     52 DU         30.0668   58.3251   22.3205 H         7 CUB7        0.0000 
     53 O          29.1331   58.4079   23.4915 O.2       2 ALA2        0.0000 
     54 O          28.1995   58.4908   24.6626 O.2       2 ALA2        0.0000 
     55 CZ         36.2391   54.8444   25.5666 C.ar      5 PHE5        0.0000 
     56 OD1        35.3054   54.9272   26.7377 O.3       3 ASP3        0.0000 
     57 CZ         36.0539   55.1518   23.4759 C.ar      5 PHE5        0.0000 
     58 CZ         35.1203   55.2347   24.6469 C.ar      5 PHE5        0.0000 
     59 CA         34.1866   55.3176   25.8180 C.3       6 GLY6        0.0000 
     60 N          33.2529   55.4005   26.9891 N.2       2 ALA2        0.0000 
     61 CZ         34.9351   55.5422   22.5562 C.ar      5 PHE5        0.0000 
     62 DU         34.0014   55.6251   23.7273 H         7 CUB7        0.0000 
     63 CA         33.0678   55.7080   24.8983 C.3       6 GLY6        0.0000 
     64 N          32.1341   55.7909   26.0694 N.2       2 ALA2        0.0000 
     65 NZ         33.8163   55.9326   21.6365 N.2       4 LYS4        0.0000 
     66 DU         32.8826   56.0155   22.8076 H         7 CUB7        0.0000 
     67 DU         31.9489   56.0984   23.9787 H         7 CUB7        0.0000 
     68 N          31.0152   56.1813   25.1497 N.2       2 ALA2        0.0000 
     69 N          30.0816   56.2641   26.3208 N.2       2 ALA2        0.0000 
     70 NZ         32.6974   56.3230   20.7169 N.2       4 LYS4        0.0000 
     71 DU         31.7637   56.4059   21.8879 H         7 CUB7        0.0000 
     72 CA         30.8301   56.4887   23.0590 C.3       6 GLY6        0.0000 
     73 CA         29.8964   56.5716   24.2301 C.3       6 GLY6        0.0000 
     74 CA         28.9627   56.6545   25.4011 C.3       6 GLY6        0.0000 
     75 CA         28.0290   56.7374   26.5722 C.3       6 GLY6        0.0000 
     76 NZ         32.5122   56.6305   18.6261 N.2       4 LYS4        0.0000 
     77 CA         31.5786   56.7133   19.7972 C.3       6 GLY6        0.0000 
     78 CA         30.6449   56.7962   20.9683 C.3       6 GLY6        0.0000 
     79 O          29.7112   56.8791   22.1393 O.2       2 ALA2        0.0000 
     80 O          28.7775   56.9620   23.3104 O.2       2 ALA2        0.0000 
     81 O          28.5924   57.2695   21.2197 O.2       2 ALA2        0.0000 
     82 NZ         34.9872   50.8140   22.9324 N.2       4 LYS4        0.0000 
     83 NZ         34.0535   50.8969   24.1035 N.2       4 LYS4        0.0000 
     84 OD1        33.1198   50.9798   25.2745 O.3       3 ASP3        0.0000 
     85 OD1        32.1862   51.0627   26.4456 O.3       3 ASP3        0.0000 
     86 OD1        32.9347   51.2873   23.1838 O.3       3 ASP3        0.0000 
     87 OD1        32.0010   51.3702   24.3548 O.3       3 ASP3        0.0000 
     88 N          31.0673   51.4531   25.5259 N.2       2 ALA2        0.0000 
     89 O          30.1336   51.5360   26.6970 O.2       2 ALA2        0.0000 
     90 O          30.8821   51.7606   23.4352 O.2       2 ALA2        0.0000 
     91 OD1        31.8306   49.6168   26.2644 O.3       3 ASP3        0.0000 
     92 O          30.8969   49.6996   27.4355 O.2       2 ALA2        0.0000 
     93 OD1        31.6454   49.9242   24.1737 O.3       3 ASP3        0.0000 
     94 OD1        30.7117   50.0071   25.3447 O.3       3 ASP3        0.0000 
     95 O          29.7781   50.0900   26.5158 O.2       2 ALA2        0.0000 
     96 OD1        30.5413   48.2537   27.2543 O.3       3 ASP3        0.0000 
     97 OD1        30.3561   48.5612   25.1636 O.3       3 ASP3        0.0000 
     98 N          29.2373   48.9516   24.2439 N.2       2 ALA2        0.0000 
     99 OG         35.5279   51.9525   25.2043 O.2       1 SER1        0.0000 
    100 OD1        34.5943   52.0354   26.3753 O.3       3 ASP3        0.0000 
    101 NZ         35.3428   52.2600   23.1136 N.2       4 LYS4        0.0000 
    102 CZ         34.4091   52.3429   24.2846 C.ar      5 PHE5        0.0000 
    103 OD1        33.4754   52.4257   25.4557 O.3       3 ASP3        0.0000 
    104 O          32.5417   52.5086   26.6267 O.2       2 ALA2        0.0000 
    105 NZ         33.2902   52.7332   23.3649 N.2       4 LYS4        0.0000 
    106 DU         32.3566   52.8161   24.5360 H         7 CUB7        0.0000 
    107 N          31.4229   52.8990   25.7071 N.2       2 ALA2        0.0000 
    108 CA         32.1714   53.1236   22.4453 C.3       6 GLY6        0.0000 
    109 CA         31.2377   53.2065   23.6163 C.3       6 GLY6        0.0000 
    110 CA         30.3041   53.2894   24.7874 C.3       6 GLY6        0.0000 
    111 NZ         35.1723   50.5065   25.0231 N.2       4 LYS4        0.0000 
    112 OD1        34.2387   50.5894   26.1942 O.3       3 ASP3        0.0000 
    113 O          33.3050   50.6723   27.3652 O.2       2 ALA2        0.0000 
@<TRIPOS>BOND
@<TRIPOS>SUBSTRUCTURE
     1 SER1       99 GROUP   
     2 ALA2        1 GROUP   
     3 ASP3        8 GROUP   
     4 LYS4       10 GROUP   
     5 PHE5        4 GROUP   
     6 GLY6        2 GROUP   
     7 CUB7        3 GROUP   
@<TRIPOS>SET

