#    Name: 1kj9_ATP_1_INTS_M
#    Modification time : Tue Mar 25 10:10:39 2014

@<TRIPOS>MOLECULE
1kj9_ATP_1_INTS_M
   73     0    15     0     0
SMALL
NO_CHARGES


@<TRIPOS>ATOM
      1 Zn         28.5615   46.2400   24.5465 Zn        4 ZIC7        0.0000 
      2 Zn         28.8300   46.7800   25.4710 Zn       14 ZIL7        0.0000 
      3 Zn         28.2930   45.7000   23.6220 Zn        9 ZIP7        0.0000 
      4 N          27.8975   47.3610   26.4040 N.am      2 SEC2        0.0000 
      5 N          28.8300   46.7800   25.4710 N.am     12 SEL2        0.0000 
      6 N          26.9650   47.9420   27.3370 N.am      7 SEP2        0.0000 
      7 Zn         32.1885   47.5560   24.8715 Zn        4 ZIC7        0.0000 
      8 Zn         31.2520   47.1490   24.9090 Zn       14 ZIL7        0.0000 
      9 Zn         33.1250   47.9630   24.8340 Zn        9 ZIP7        0.0000 
     10 Zn         31.4585   46.3990   27.7565 Zn        4 ZIC7        0.0000 
     11 Zn         30.6670   46.2860   27.2270 Zn       14 ZIL7        0.0000 
     12 Zn         32.2500   46.5120   28.2860 Zn        9 ZIP7        0.0000 
     13 N          30.4295   49.7285   30.0215 N.am      2 SEC2        0.0000 
     14 N          29.4580   49.7760   28.7370 N.am     12 SEL2        0.0000 
     15 N          31.4010   49.6810   31.3060 N.am      7 SEP2        0.0000 
     16 N          28.2705   50.2485   27.9785 N.am      2 SEC2        0.0000 
     17 N          27.0830   50.7210   27.2200 N.am      7 SEP2        0.0000 
     18 NZ         31.5000   49.0850   29.9480 N.4       3 LYC4        0.0000 
     19 NZ         31.5990   48.4890   28.5900 N.4      13 LYL4        0.0000 
     20 NZ         32.6770   49.8580   31.6370 N.4       8 LYP4        0.0000 
     21 Zn         31.9245   47.5005   28.4380 Zn        4 ZIC7        0.0000 
     22 Zn         31.5990   48.4890   28.5900 Zn       14 ZIL7        0.0000 
     23 N          32.6040   49.0820   29.6455 N.am      2 SEC2        0.0000 
     24 N          31.5990   48.4890   28.5900 N.am     12 SEL2        0.0000 
     25 N          33.6090   49.6750   30.7010 N.am      7 SEP2        0.0000 
     26 N          31.5000   49.0850   29.9480 N.am      2 SEC2        0.0000 
     27 NZ         34.4940   52.0840   28.3950 N.4       3 LYC4        0.0000 
     28 NZ         33.8470   50.9810   27.8040 N.4      13 LYL4        0.0000 
     29 NZ         35.1410   53.1870   28.9860 N.4       8 LYP4        0.0000 
     30 N          33.7280   50.3280   29.2525 N.am      2 SEC2        0.0000 
     31 N          33.8470   50.9810   27.8040 N.am     12 SEL2        0.0000 
     32 N          34.4940   52.0840   28.3950 N.am      2 SEC2        0.0000 
     33 N          35.1410   53.1870   28.9860 N.am      7 SEP2        0.0000 
     34 Zn         33.0860   48.8510   25.2790 Zn        4 ZIC7        0.0000 
     35 Zn         33.0470   49.7390   25.7240 Zn       14 ZIL7        0.0000 
     36 N          30.7995   51.6890   28.2180 N.am      2 SEC2        0.0000 
     37 N          31.3350   50.6600   27.4090 N.am     12 SEL2        0.0000 
     38 N          30.2640   52.7180   29.0270 N.am      7 SEP2        0.0000 
     39 O          34.4460   51.5765   21.3700 O.2       1 ALC1        0.0000 
     40 O          33.3430   51.5160   22.2330 O.2      11 ALL1        0.0000 
     41 O          35.5490   51.6370   20.5070 O.2       6 ALP1        0.0000 
     42 O          33.8200   52.3560   20.9005 O.2       1 ALC1        0.0000 
     43 O          34.2970   53.1960   19.5680 O.2       6 ALP1        0.0000 
     44 CA         36.0675   53.6375   22.3660 C.3       5 GLC5        0.0000 
     45 CA         34.1560   53.9570   22.5810 C.3      15 GLL5        0.0000 
     46 CA         37.9790   53.3180   22.1510 C.3      10 GLP5        0.0000 
     47 O          33.9015   53.7725   20.4670 O.2       1 ALC1        0.0000 
     48 O          33.5060   54.3490   21.3660 O.2      11 ALL1        0.0000 
     49 N          35.5485   53.9310   27.8245 N.am      2 SEC2        0.0000 
     50 N          35.9560   54.6750   26.6630 N.am     12 SEL2        0.0000 
     51 CA         39.7640   56.5500   25.6930 C.3       5 GLC5        0.0000 
     52 CA         37.7880   56.4310   26.2420 C.3      15 GLL5        0.0000 
     53 CA         41.7400   56.6690   25.1440 C.3      10 GLP5        0.0000 
     54 O          38.2350   55.3690   28.3260 O.2       1 ALC1        0.0000 
     55 O          38.4860   56.3880   27.3000 O.2      11 ALL1        0.0000 
     56 O          37.9840   54.3500   29.3520 O.2       6 ALP1        0.0000 
     57 N          39.2175   58.2610   25.0435 N.am      2 SEC2        0.0000 
     58 N          38.1060   57.2970   25.2360 N.am     12 SEL2        0.0000 
     59 N          40.3290   59.2250   24.8510 N.am      7 SEP2        0.0000 
     60 CA         36.1310   57.9980   25.5105 C.3       5 GLC5        0.0000 
     61 CA         37.3940   57.4560   24.0670 C.3      15 GLL5        0.0000 
     62 CA         34.8680   58.5400   26.9540 C.3      10 GLP5        0.0000 
     63 CA         37.6620   59.4405   24.2515 C.3       5 GLC5        0.0000 
     64 CA         37.9300   61.4250   24.4360 C.3      10 GLP5        0.0000 
     65 CA         39.4445   57.4055   23.9315 C.3       5 GLC5        0.0000 
     66 CA         41.4950   57.3550   23.7960 C.3      10 GLP5        0.0000 
     67 CA         30.0400   53.3827   23.9432 C.3       5 GLC5        0.0000 
     68 CA         32.2720   53.1440   23.7280 C.3      15 GLL5        0.0000 
     69 CA         28.0840   54.0560   23.6000 C.3      10 GLP5        0.0000 
     70 CA         31.9570   52.7002   21.5463 C.3       5 GLC5        0.0000 
     71 CA         30.9930   52.5160   19.6650 C.3      10 GLP5        0.0000 
     72 CA         35.7225   57.2498   26.1804 C.3       5 GLC5        0.0000 
     73 CA         36.6120   55.6590   25.9290 C.3      15 GLL5        0.0000 
@<TRIPOS>BOND
@<TRIPOS>SUBSTRUCTURE
     1 ALC1       39 GROUP        1 X    ALC  0     ROOT ALC X 1
     2 SEC2        4 GROUP        1 X    SEC  0     **** SEC X 2
     3 LYC4       18 GROUP        1 X    LYC  0     **** LYC X 4
     4 ZIC7        1 GROUP        1 X    ZIC  0     **** ZIC X 5
     5 GLC5       44 GROUP        1 X    GLC  0     **** GLC X 6
     6 ALP1       41 GROUP        1 Y    ALP  0     ROOT ALP Y 8
     7 SEP2        6 GROUP        1 Y    SEP  0     **** SEP Y 9
     8 LYP4       20 GROUP        1 Y    LYP  0     **** LYP Y 11
     9 ZIP7        3 GROUP        1 Y    ZIP  0     **** ZIP Y 12
    10 GLP5       46 GROUP        1 Y    GLP  0     **** GLP Y 13
    11 ALL1       40 GROUP        1 Z    ALL  0     ROOT ALL Z 15
    12 SEL2        5 GROUP        1 Z    SEL  0     **** SEL Z 16
    13 LYL4       19 GROUP        1 Z    LYL  0     **** LYL Z 18
    14 ZIL7        2 GROUP        1 Z    ZIL  0     **** ZIL Z 19
    15 GLL5       45 GROUP        1 Z    GLL  0     **** GLL Z 20
@<TRIPOS>SET

