#    Name: 1kj9_ATP_1_ligand
#    Modification time : Tue Mar 25 10:10:39 2014

@<TRIPOS>MOLECULE
1kj9_ATP_1_ligand
   42    44     1     0     0
SMALL
NO_CHARGES


@<TRIPOS>ATOM
      1 PG         30.2090   47.1290   25.9730 P.3       1 ATP1        0.0000 
      2 O1G        28.8300   46.7800   25.4710 O.co2     1 ATP1        0.0000 
      3 O2G        31.2520   47.1490   24.9090 O.co2     1 ATP1        0.0000 
      4 O3G        30.6670   46.2860   27.2270 O.co2     1 ATP1        0.0000 
      5 PB         30.5790   49.3250   27.8500 P.3       1 ATP1        0.0000 
      6 O1B        29.4580   49.7760   28.7370 O.co2     1 ATP1        0.0000 
      7 O2B        31.5990   48.4890   28.5900 O.co2     1 ATP1        0.0000 
      8 O3B        30.0950   48.6510   26.4830 O.3       1 ATP1        0.0000 
      9 PA         32.7750   50.8400   26.7210 P.3       1 ATP1        0.0000 
     10 O1A        33.8470   50.9810   27.8040 O.co2     1 ATP1        0.0000 
     11 O2A        33.0470   49.7390   25.7240 O.co2     1 ATP1        0.0000 
     12 O3A        31.3350   50.6600   27.4090 O.3       1 ATP1        0.0000 
     13 O5'        32.7140   52.2020   25.8810 O.3       1 ATP1        0.0000 
     14 C5'        31.7200   52.2750   24.8450 C.3       1 ATP1        0.0000 
     15 C4'        32.2720   53.1440   23.7280 C.3       1 ATP1        0.0000 
     16 O4'        32.6100   54.4780   24.2410 O.3       1 ATP1        0.0000 
     17 C3'        33.5700   52.6250   23.1270 C.3       1 ATP1        0.0000 
     18 O3'        33.3430   51.5160   22.2330 O.3       1 ATP1        0.0000 
     19 C2'        34.1560   53.9570   22.5810 C.3       1 ATP1        0.0000 
     20 O2'        33.5060   54.3490   21.3660 O.3       1 ATP1        0.0000 
     21 C1'        33.7990   54.9560   23.6780 C.3       1 ATP1        0.0000 
     22 N9         34.8370   55.0260   24.7220 N.pl3     1 ATP1        0.0000 
     23 C8         34.9180   54.2980   25.8910 C.2       1 ATP1        0.0000 
     24 N7         35.9560   54.6750   26.6630 N.2       1 ATP1        0.0000 
     25 C5         36.6120   55.6590   25.9290 C.ar      1 ATP1        0.0000 
     26 C6         37.7880   56.4310   26.2420 C.ar      1 ATP1        0.0000 
     27 N6         38.4860   56.3880   27.3000 N.pl3     1 ATP1        0.0000 
     28 N1         38.1060   57.2970   25.2360 N.ar      1 ATP1        0.0000 
     29 C2         37.3940   57.4560   24.0670 C.ar      1 ATP1        0.0000 
     30 N3         36.3040   56.7870   23.7700 N.ar      1 ATP1        0.0000 
     31 C4         35.9540   55.8740   24.7280 C.ar      1 ATP1        0.0000 
     32 H          30.7978   52.7268   25.2055 H         1 ATP1        0.0000 
     33 H          31.4961   51.2923   24.4345 H         1 ATP1        0.0000 
     34 H          31.5474   53.2416   22.9420 H         1 ATP1        0.0000 
     35 H          34.1913   52.3575   23.9915 H         1 ATP1        0.0000 
     36 H          35.1908   53.8701   22.5207 H         1 ATP1        0.0000 
     37 H          33.6563   55.9127   23.2204 H         1 ATP1        0.0000 
     38 H          34.2776   53.5829   26.1209 H         1 ATP1        0.0000 
     39 H          37.7761   58.1786   23.3727 H         1 ATP1        0.0000 
     40 H          34.1050   51.5451   21.5861 H         1 ATP1        0.0000 
     41 H          33.4900   53.5227   20.8030 H         1 ATP1        0.0000 
     42 H          38.1193   55.6171   27.8207 H         1 ATP1        0.0000 
@<TRIPOS>BOND
     1    2    1 ar   
     2    3    1 ar   
     3    4    1 ar   
     4    8    1 1    
     5    6    5 ar   
     6    7    5 ar   
     7    8    5 1    
     8   12    5 1    
     9   10    9 ar   
    10   11    9 ar   
    11   12    9 1    
    12   13    9 1    
    13   14   13 1    
    14   15   14 1    
    15   32   14 1    
    16   33   14 1    
    17   16   15 1    
    18   17   15 1    
    19   34   15 1    
    20   21   16 1    
    21   18   17 1    
    22   19   17 1    
    23   35   17 1    
    24   40   18 1    
    25   20   19 1    
    26   21   19 1    
    27   36   19 1    
    28   41   20 1    
    29   22   21 1    
    30   37   21 1    
    31   23   22 1    
    32   31   22 1    
    33   24   23 2    
    34   38   23 1    
    35   25   24 1    
    36   26   25 ar   
    37   31   25 ar   
    38   27   26 1    
    39   28   26 ar   
    40   42   27 1    
    41   29   28 ar   
    42   30   29 ar   
    43   39   29 1    
    44   31   30 ar   
@<TRIPOS>SUBSTRUCTURE
     1 ATP1        1 GROUP   
@<TRIPOS>SET

