#    Name: 2c3q_GTX_2_INTS_M
#    Modification time : Mon Mar 24 22:31:09 2014

@<TRIPOS>MOLECULE
2c3q_GTX_2_INTS_M
   78     0    15     0     0
SMALL
NO_CHARGES


@<TRIPOS>ATOM
      1 OD1         6.8665  -32.2880  -21.7720 O.co2     3 ASC3        0.0000 
      2 OD1         6.4120  -32.7860  -20.5500 O.co2    13 ASL3        0.0000 
      3 OD1         7.3210  -31.7900  -22.9940 O.co2     8 ASP3        0.0000 
      4 OD1         7.8895  -32.3560  -21.4165 O.co2     3 ASC3        0.0000 
      5 OD1         9.3670  -31.9260  -22.2830 O.co2     8 ASP3        0.0000 
      6 O           6.8665  -32.2880  -21.7720 O.2       1 ALC1        0.0000 
      7 O           6.4120  -32.7860  -20.5500 O.2      11 ALL1        0.0000 
      8 O           7.3210  -31.7900  -22.9940 O.2       6 ALP1        0.0000 
      9 N           5.3740  -34.9660  -23.6280 N.am      2 SEC2        0.0000 
     10 N           4.9090  -34.5760  -22.0560 N.am     12 SEL2        0.0000 
     11 N           5.8390  -35.3560  -25.2000 N.am      7 SEP2        0.0000 
     12 N           4.0490  -34.9865  -23.0715 N.am      2 SEC2        0.0000 
     13 N           3.1890  -35.3970  -24.0870 N.am      7 SEP2        0.0000 
     14 N           4.8585  -33.4630  -23.0705 N.am      2 SEC2        0.0000 
     15 N           4.8080  -32.3500  -24.0850 N.am      7 SEP2        0.0000 
     16 N           6.2455  -35.5635  -23.8070 N.am      2 SEC2        0.0000 
     17 N           6.6520  -35.7710  -22.4140 N.am     12 SEL2        0.0000 
     18 CA          9.5760  -36.9320  -18.7615 C.3       5 GLC5        0.0000 
     19 CA          7.8110  -35.9910  -19.2070 C.3      15 GLL5        0.0000 
     20 CA         11.3410  -37.8730  -18.3160 C.3      10 GLP5        0.0000 
     21 O           7.3580  -38.6435  -18.8790 O.2       1 ALC1        0.0000 
     22 O           7.2670  -37.8340  -17.6810 O.2      11 ALL1        0.0000 
     23 O           7.4490  -39.4530  -20.0770 O.2       6 ALP1        0.0000 
     24 CA          7.4670  -36.9835  -14.8705 C.3       5 GLC5        0.0000 
     25 CA          7.2060  -38.4160  -16.3490 C.3      15 GLL5        0.0000 
     26 CA          7.7280  -35.5510  -13.3920 C.3      10 GLP5        0.0000 
     27 N           9.4370  -40.2970  -18.1835 N.am      2 SEC2        0.0000 
     28 N           8.9160  -40.1920  -16.8180 N.am     12 SEL2        0.0000 
     29 N           9.9580  -40.4020  -19.5490 N.am      7 SEP2        0.0000 
     30 CA          6.4585  -42.2635  -14.5575 C.3       5 GLC5        0.0000 
     31 CA          6.4440  -40.6460  -13.6170 C.3      15 GLL5        0.0000 
     32 CA          6.4730  -43.8810  -15.4980 C.3      10 GLP5        0.0000 
     33 CA          9.6760  -42.9690  -10.2345 C.3       5 GLC5        0.0000 
     34 CA          7.9820  -42.4240  -11.1390 C.3      15 GLL5        0.0000 
     35 CA         11.3700  -43.5140   -9.3300 C.3      10 GLP5        0.0000 
     36 CA          5.0360  -44.3330  -11.7690 C.3       5 GLC5        0.0000 
     37 CA          6.7090  -43.2100  -10.8120 C.3      15 GLL5        0.0000 
     38 CA          3.3630  -45.4560  -12.7260 C.3      10 GLP5        0.0000 
     39 CA          7.4195  -46.4515  -10.3725 C.3       5 GLC5        0.0000 
     40 CA          7.0030  -44.5790  -10.2250 C.3      15 GLL5        0.0000 
     41 CA          7.8360  -48.3240  -10.5200 C.3      10 GLP5        0.0000 
     42 CA          5.9755  -43.0930   -8.9205 C.3       5 GLC5        0.0000 
     43 CA          4.9480  -41.6070   -7.6160 C.3      10 GLP5        0.0000 
     44 CA          6.8310  -45.2685   -8.4520 C.3       5 GLC5        0.0000 
     45 CA          6.6590  -45.9580   -6.6790 C.3      10 GLP5        0.0000 
     46 CA          8.4860  -44.6910   -9.0030 C.3       5 GLC5        0.0000 
     47 CA          9.9690  -44.8030   -7.7810 C.3      10 GLP5        0.0000 
     48 CA         11.3165  -41.0240  -14.2155 C.3       5 GLC5        0.0000 
     49 CA         10.0290  -39.6710  -14.2570 C.3      15 GLL5        0.0000 
     50 CA         12.6040  -42.3770  -14.1740 C.3      10 GLP5        0.0000 
     51 CA         10.7955  -38.4445  -15.6040 C.3       5 GLC5        0.0000 
     52 CA         11.5620  -37.2180  -16.9510 C.3      10 GLP5        0.0000 
     53 NZ         12.8910  -38.8430  -12.2340 N.4       4 LYC4        0.0000 
     54 NZ         11.5490  -39.5900  -12.4570 N.4      14 LYL4        0.0000 
     55 NZ         14.8250  -37.6330  -13.1060 N.4       9 LYP4        0.0000 
     56 N          11.8035  -41.0770  -12.6930 N.am      2 SEC2        0.0000 
     57 N          11.5490  -39.5900  -12.4570 N.am     12 SEL2        0.0000 
     58 N          12.0580  -42.5640  -12.9290 N.am      7 SEP2        0.0000 
     59 N          12.8910  -38.8430  -12.2340 N.am      2 SEC2        0.0000 
     60 N          14.2330  -38.0960  -12.0110 N.am      7 SEP2        0.0000 
     61 NZ         12.6180  -37.6835  -13.8200 N.4       4 LYC4        0.0000 
     62 NZ         11.0550  -37.6940  -13.3750 N.4      14 LYL4        0.0000 
     63 N          12.6440  -37.8950  -12.6930 N.am      2 SEC2        0.0000 
     64 N          11.0550  -37.6940  -13.3750 N.am     12 SEL2        0.0000 
     65 N          12.6180  -37.6835  -13.8200 N.am      2 SEC2        0.0000 
     66 N          14.1810  -37.6730  -14.2650 N.am      7 SEP2        0.0000 
     67 CA          4.6163  -40.4967  -16.4210 C.3       5 GLC5        0.0000 
     68 CA          6.0670  -39.4000  -16.0950 C.3      15 GLL5        0.0000 
     69 CA          3.4980  -41.6020  -17.5970 C.3      10 GLP5        0.0000 
     70 CA          5.7473  -40.9520  -10.2805 C.3       5 GLC5        0.0000 
     71 CA          6.4760  -40.4970  -12.0980 C.3      15 GLL5        0.0000 
     72 CA          4.3610  -41.1890   -8.7880 C.3      10 GLP5        0.0000 
     73 CA          7.9683  -40.6672   -9.4672 C.3       5 GLC5        0.0000 
     74 CA          7.7910  -40.9330  -11.4480 C.3      15 GLL5        0.0000 
     75 CA          8.0500  -39.6560   -7.6410 C.3      10 GLP5        0.0000 
     76 CA          5.8533  -42.0030   -9.8818 C.3       5 GLC5        0.0000 
     77 CA          7.4891  -44.6030  -12.3401 C.3       5 GLC5        0.0000 
     78 CA          7.8040  -45.5080  -14.0800 C.3      10 GLP5        0.0000 
@<TRIPOS>BOND
@<TRIPOS>SUBSTRUCTURE
     1 ALC1        6 GROUP        1 X    ALC  0     ROOT ALC X 1
     2 SEC2        9 GROUP        1 X    SEC  0     **** SEC X 2
     3 ASC3        1 GROUP        1 X    ASC  0     **** ASC X 3
     4 LYC4       53 GROUP        1 X    LYC  0     **** LYC X 4
     5 GLC5       18 GROUP        1 X    GLC  0     **** GLC X 6
     6 ALP1        8 GROUP        1 Y    ALP  0     ROOT ALP Y 8
     7 SEP2       11 GROUP        1 Y    SEP  0     **** SEP Y 9
     8 ASP3        3 GROUP        1 Y    ASP  0     **** ASP Y 10
     9 LYP4       55 GROUP        1 Y    LYP  0     **** LYP Y 11
    10 GLP5       20 GROUP        1 Y    GLP  0     **** GLP Y 13
    11 ALL1        7 GROUP        1 Z    ALL  0     ROOT ALL Z 15
    12 SEL2       10 GROUP        1 Z    SEL  0     **** SEL Z 16
    13 ASL3        2 GROUP        1 Z    ASL  0     **** ASL Z 17
    14 LYL4       54 GROUP        1 Z    LYL  0     **** LYL Z 18
    15 GLL5       19 GROUP        1 Z    GLL  0     **** GLL Z 20
@<TRIPOS>SET

