#    Name: 2c3q_GTX_2_ligand
#    Modification time : Mon Mar 24 22:31:09 2014

@<TRIPOS>MOLECULE
2c3q_GTX_2_ligand
   54    53     1     0     0
SMALL
NO_CHARGES


@<TRIPOS>ATOM
      1 N1          6.4120  -32.7860  -20.5500 N.4       1 GTX301      0.0000 
      2 CA1         6.8740  -34.1560  -20.6890 C.3       1 GTX301      0.0000 
      3 C1          6.0990  -34.8600  -21.7690 C.2       1 GTX301      0.0000 
      4 O11         4.9090  -34.5760  -22.0560 O.co2     1 GTX301      0.0000 
      5 O12         6.6520  -35.7710  -22.4140 O.co2     1 GTX301      0.0000 
      6 CB1         6.7640  -34.8870  -19.3620 C.3       1 GTX301      0.0000 
      7 CG1         7.8110  -35.9910  -19.2070 C.3       1 GTX301      0.0000 
      8 CD1         7.6560  -36.5770  -17.8250 C.2       1 GTX301      0.0000 
      9 OE1         7.9070  -35.7520  -16.7240 O.2       1 GTX301      0.0000 
     10 N2          7.2670  -37.8340  -17.6810 N.am      1 GTX301      0.0000 
     11 CA2         7.2060  -38.4160  -16.3490 C.3       1 GTX301      0.0000 
     12 C2          8.4660  -39.1460  -16.0160 C.2       1 GTX301      0.0000 
     13 O2          8.9160  -40.1920  -16.8180 O.2       1 GTX301      0.0000 
     14 CB2         6.0670  -39.4000  -16.0950 C.3       1 GTX301      0.0000 
     15 SG2         5.4020  -39.3830  -14.3950 S.3       1 GTX301      0.0000 
     16 C1S         6.4440  -40.6460  -13.6170 C.3       1 GTX301      0.0000 
     17 C2S         6.4760  -40.4970  -12.0980 C.3       1 GTX301      0.0000 
     18 C3S         7.7910  -40.9330  -11.4480 C.3       1 GTX301      0.0000 
     19 C4S         7.9820  -42.4240  -11.1390 C.3       1 GTX301      0.0000 
     20 C5S         6.7090  -43.2100  -10.8120 C.3       1 GTX301      0.0000 
     21 C6S         7.0030  -44.5790  -10.2250 C.3       1 GTX301      0.0000 
     22 N3          9.0650  -38.7910  -14.8830 N.am      1 GTX301      0.0000 
     23 CA3        10.0290  -39.6710  -14.2570 C.3       1 GTX301      0.0000 
     24 C3         10.9280  -38.9350  -13.3110 C.2       1 GTX301      0.0000 
     25 O31        11.5490  -39.5900  -12.4570 O.co2     1 GTX301      0.0000 
     26 O32        11.0550  -37.6940  -13.3750 O.co2     1 GTX301      0.0000 
     27 H           7.9312  -34.1538  -20.9781 H         1 GTX301      0.0000 
     28 H           5.7639  -35.3310  -19.2743 H         1 GTX301      0.0000 
     29 H           6.8817  -34.1680  -18.5409 H         1 GTX301      0.0000 
     30 H           8.7944  -35.5654  -19.3193 H         1 GTX301      0.0000 
     31 H           7.6384  -36.7504  -19.9515 H         1 GTX301      0.0000 
     32 H           6.9987  -38.4415  -18.4639 H         1 GTX301      0.0000 
     33 H           7.1034  -37.6152  -15.5889 H         1 GTX301      0.0000 
     34 H           6.3574  -40.4360  -16.2112 H         1 GTX301      0.0000 
     35 H           5.1817  -39.1971  -16.6834 H         1 GTX301      0.0000 
     36 H           7.3916  -40.4805  -14.0834 H         1 GTX301      0.0000 
     37 H           5.9888  -41.5547  -13.9485 H         1 GTX301      0.0000 
     38 H           5.6511  -41.0877  -11.6626 H         1 GTX301      0.0000 
     39 H           6.2833  -39.4416  -11.8374 H         1 GTX301      0.0000 
     40 H           7.9239  -40.3575  -10.4968 H         1 GTX301      0.0000 
     41 H           8.6369  -40.5986  -12.1010 H         1 GTX301      0.0000 
     42 H           8.6886  -42.5210  -10.2880 H         1 GTX301      0.0000 
     43 H           8.4833  -42.9034  -12.0060 H         1 GTX301      0.0000 
     44 H           6.1193  -43.3269  -11.7297 H         1 GTX301      0.0000 
     45 H           6.1080  -42.6306  -10.1002 H         1 GTX301      0.0000 
     46 H           8.8772  -37.8939  -14.4063 H         1 GTX301      0.0000 
     47 H          10.6546  -40.1686  -15.0213 H         1 GTX301      0.0000 
     48 H           9.5153  -40.4762  -13.6994 H         1 GTX301      0.0000 
     49 H           6.9129  -32.2957  -19.8368 H         1 GTX301      0.0000 
     50 H           6.5263  -32.2677  -21.3975 H         1 GTX301      0.0000 
     51 H           5.4424  -32.7437  -20.3090 H         1 GTX301      0.0000 
     52 H           7.5354  -45.1460  -10.8535 H         1 GTX301      0.0000 
     53 H           7.5253  -44.5141   -9.3747 H         1 GTX301      0.0000 
     54 H           6.1640  -45.0815  -10.0160 H         1 GTX301      0.0000 
@<TRIPOS>BOND
     1    2    1 1    
     2   49    1 1    
     3   50    1 1    
     4   51    1 1    
     5    3    2 1    
     6    6    2 1    
     7   27    2 1    
     8    4    3 ar   
     9    5    3 ar   
    10    7    6 1    
    11   28    6 1    
    12   29    6 1    
    13    8    7 1    
    14   30    7 1    
    15   31    7 1    
    16    9    8 2    
    17   10    8 am   
    18   11   10 1    
    19   32   10 1    
    20   12   11 1    
    21   14   11 1    
    22   33   11 1    
    23   13   12 2    
    24   22   12 am   
    25   15   14 1    
    26   34   14 1    
    27   35   14 1    
    28   16   15 1    
    29   17   16 1    
    30   36   16 1    
    31   37   16 1    
    32   18   17 1    
    33   38   17 1    
    34   39   17 1    
    35   19   18 1    
    36   40   18 1    
    37   41   18 1    
    38   20   19 1    
    39   42   19 1    
    40   43   19 1    
    41   21   20 1    
    42   44   20 1    
    43   45   20 1    
    44   52   21 1    
    45   53   21 1    
    46   54   21 1    
    47   23   22 1    
    48   46   22 1    
    49   24   23 1    
    50   47   23 1    
    51   48   23 1    
    52   25   24 ar   
    53   26   24 ar   
@<TRIPOS>SUBSTRUCTURE
     1 GTX301      1 GROUP   
@<TRIPOS>SET

