#    Name: 4jx1_CAH_2_INTS_M
#    Modification time : Tue Mar 25 06:39:43 2014

@<TRIPOS>MOLECULE
4jx1_CAH_2_INTS_M
   30     0     3     0     0
SMALL
NO_CHARGES


@<TRIPOS>ATOM
      1 CA        -79.2585    4.9560   -1.7675 C.3       1 GLC5        0.0000 
      2 CA        -79.9960    4.8680    0.1090 C.3       3 GLL5        0.0000 
      3 CA        -78.5210    5.0440   -3.6440 C.3       2 GLP5        0.0000 
      4 CA        -77.9220    5.3020   -0.5615 C.3       1 GLC5        0.0000 
      5 CA        -75.8480    5.7360   -1.2320 C.3       2 GLP5        0.0000 
      6 CA        -78.6165    3.3710   -0.7175 C.3       1 GLC5        0.0000 
      7 CA        -77.2370    1.8740   -1.5440 C.3       2 GLP5        0.0000 
      8 CA        -78.8220    5.7870    2.6965 C.3       1 GLC5        0.0000 
      9 CA        -80.7920    5.5590    2.1980 C.3       3 GLL5        0.0000 
     10 CA        -76.8520    6.0150    3.1950 C.3       2 GLP5        0.0000 
     11 CA        -81.2190    4.9040   -2.4945 C.3       1 GLC5        0.0000 
     12 CA        -82.6240    4.8410   -0.8800 C.3       3 GLL5        0.0000 
     13 CA        -79.8140    4.9670   -4.1090 C.3       2 GLP5        0.0000 
     14 CA        -84.6495    4.7600   -0.9225 C.3       1 GLC5        0.0000 
     15 CA        -86.6750    4.6790   -0.9650 C.3       2 GLP5        0.0000 
     16 CA        -83.1760    3.9160   -2.7630 C.3       1 GLC5        0.0000 
     17 CA        -83.7280    2.9910   -4.6460 C.3       2 GLP5        0.0000 
     18 CA        -83.2155    5.9075   -2.5960 C.3       1 GLC5        0.0000 
     19 CA        -83.8070    6.9740   -4.3120 C.3       2 GLP5        0.0000 
     20 CA        -84.5555    6.8005    2.4180 C.3       1 GLC5        0.0000 
     21 CA        -83.4600    5.3080    1.2990 C.3       3 GLL5        0.0000 
     22 CA        -85.6510    8.2930    3.5370 C.3       2 GLP5        0.0000 
     23 CA        -85.0675    4.9935    0.1670 C.3       1 GLC5        0.0000 
     24 CA        -83.1290    7.3285   -2.3265 C.3       1 GLC5        0.0000 
     25 CA        -82.4510    7.6830   -0.3410 C.3       3 GLL5        0.0000 
     26 CA        -83.7265    8.5900   -0.4250 C.3       1 GLC5        0.0000 
     27 CA        -85.0020    9.4970   -0.5090 C.3       2 GLP5        0.0000 
     28 CA        -80.6797    7.0742    3.8890 C.3       1 GLC5        0.0000 
     29 CA        -81.4350    6.9580    1.8880 C.3       3 GLL5        0.0000 
     30 CA        -80.2460    7.8900    5.7350 C.3       2 GLP5        0.0000 
@<TRIPOS>BOND
@<TRIPOS>SUBSTRUCTURE
     1 GLC5        1 GROUP        1 X    GLC  0     ROOT GLC X 6
     2 GLP5        3 GROUP        1 Y    GLP  0     ROOT GLP Y 13
     3 GLL5        2 GROUP        1 Z    GLL  0     ROOT GLL Z 20
@<TRIPOS>SET

