#    Name: 4jx1_CAH_2_ligand
#    Modification time : Tue Mar 25 06:39:43 2014

@<TRIPOS>MOLECULE
4jx1_CAH_2_ligand
   28    29     1     0     0
SMALL
NO_CHARGES


@<TRIPOS>ATOM
      1 C1        -81.6780    6.5940    0.4310 C.3       1 CAH503      0.0000 
      2 C2        -80.2890    6.3830   -0.0210 C.2       1 CAH503      0.0000 
      3 O2        -79.4750    7.2390   -0.3130 O.2       1 CAH503      0.0000 
      4 C3        -79.9960    4.8680    0.1090 C.3       1 CAH503      0.0000 
      5 C4        -81.1910    4.7180    1.0650 C.3       1 CAH503      0.0000 
      6 C5        -80.7920    5.5590    2.1980 C.3       1 CAH503      0.0000 
      7 O5        -81.2160    5.0710    3.3340 O.3       1 CAH503      0.0000 
      8 C6        -81.4350    6.9580    1.8880 C.3       1 CAH503      0.0000 
      9 C7        -82.2200    5.3770    0.4690 C.3       1 CAH503      0.0000 
     10 C8        -82.6240    4.8410   -0.8800 C.3       1 CAH503      0.0000 
     11 C9        -83.4600    5.3080    1.2990 C.3       1 CAH503      0.0000 
     12 C10       -82.4510    7.6830   -0.3410 C.3       1 CAH503      0.0000 
     13 H         -79.1315    4.7327    0.6124 H         1 CAH503      0.0000 
     14 H         -80.1949    4.4086   -0.7676 H         1 CAH503      0.0000 
     15 H         -81.3206    3.7551    1.3165 H         1 CAH503      0.0000 
     16 H         -79.7197    5.7246    2.1293 H         1 CAH503      0.0000 
     17 H         -82.3137    7.0334    2.3930 H         1 CAH503      0.0000 
     18 H         -80.7170    7.6729    1.9669 H         1 CAH503      0.0000 
     19 H         -81.8437    4.7736   -1.5017 H         1 CAH503      0.0000 
     20 H         -83.0242    3.9271   -0.8118 H         1 CAH503      0.0000 
     21 H         -83.3028    5.4259   -1.3239 H         1 CAH503      0.0000 
     22 H         -83.2855    5.5652    2.2495 H         1 CAH503      0.0000 
     23 H         -84.1715    5.9209    0.9554 H         1 CAH503      0.0000 
     24 H         -83.8479    4.3864    1.3112 H         1 CAH503      0.0000 
     25 H         -82.0077    8.5763   -0.2668 H         1 CAH503      0.0000 
     26 H         -82.5193    7.4697   -1.3156 H         1 CAH503      0.0000 
     27 H         -83.3843    7.7896    0.0018 H         1 CAH503      0.0000 
     28 H         -82.0476    5.5858    3.5424 H         1 CAH503      0.0000 
@<TRIPOS>BOND
     1    2    1 1    
     2    8    1 1    
     3    9    1 1    
     4   12    1 1    
     5    3    2 2    
     6    4    2 1    
     7    5    4 1    
     8   13    4 1    
     9   14    4 1    
    10    6    5 1    
    11    9    5 1    
    12   15    5 1    
    13    7    6 1    
    14    8    6 1    
    15   16    6 1    
    16   28    7 1    
    17   17    8 1    
    18   18    8 1    
    19   10    9 1    
    20   11    9 1    
    21   19   10 1    
    22   20   10 1    
    23   21   10 1    
    24   22   11 1    
    25   23   11 1    
    26   24   11 1    
    27   25   12 1    
    28   26   12 1    
    29   27   12 1    
@<TRIPOS>SUBSTRUCTURE
     1 CAH503      1 GROUP   
@<TRIPOS>SET

