#    Name: 4c62_XWW_1_INTS_M
#    Modification time : Tue Mar 25 09:02:04 2014

@<TRIPOS>MOLECULE
4c62_XWW_1_INTS_M
   66     0     9     0     0
SMALL
NO_CHARGES


@<TRIPOS>ATOM
      1 CA         17.5240    3.0715   46.0000 C.3       3 GLC5        0.0000 
      2 CA         15.8370    3.6320   45.1810 C.3       9 GLL5        0.0000 
      3 CA         19.2110    2.5110   46.8190 C.3       6 GLP5        0.0000 
      4 CA         15.2705    1.8970   45.7370 C.3       3 GLC5        0.0000 
      5 CA         14.7040    0.1620   46.2930 C.3       6 GLP5        0.0000 
      6 CA         14.5530    1.7270   44.4440 C.3       3 GLC5        0.0000 
      7 CA         15.2050    3.7050   43.8170 C.3       9 GLL5        0.0000 
      8 CA         13.9010   -0.2510   45.0710 C.3       6 GLP5        0.0000 
      9 CA         13.1330    5.2825   42.1690 C.3       3 GLC5        0.0000 
     10 CA         14.0820    4.6810   43.8640 C.3       9 GLL5        0.0000 
     11 CA         12.1840    5.8840   40.4740 C.3       6 GLP5        0.0000 
     12 CA         14.2625    8.1750   42.3015 C.3       3 GLC5        0.0000 
     13 CA         13.2870    6.7550   43.4090 C.3       9 GLL5        0.0000 
     14 CA         15.2380    9.5950   41.1940 C.3       6 GLP5        0.0000 
     15 CA         10.8590    6.5815   42.1595 C.3       3 GLC5        0.0000 
     16 CA         11.0400    7.1860   43.9270 C.3       9 GLL5        0.0000 
     17 CA         10.6780    5.9770   40.3920 C.3       6 GLP5        0.0000 
     18 CA          9.2945    6.8225   43.4455 C.3       3 GLC5        0.0000 
     19 CA          7.5490    6.4590   42.9640 C.3       6 GLP5        0.0000 
     20 CA          9.9665    6.9100   45.6405 C.3       3 GLC5        0.0000 
     21 CA          8.8930    6.6340   47.3540 C.3       6 GLP5        0.0000 
     22 CA         16.6870    2.1430   42.2480 C.3       3 GLC5        0.0000 
     23 CA         15.9770    3.7210   41.4870 C.3       9 GLL5        0.0000 
     24 CA         17.3970    0.5650   43.0090 C.3       6 GLP5        0.0000 
     25 CA         15.6485    4.9320   39.6250 C.3       3 GLC5        0.0000 
     26 CA         15.3200    6.1430   37.7630 C.3       6 GLP5        0.0000 
     27 CA         14.0805    4.8025   40.9805 C.3       3 GLC5        0.0000 
     28 CA         15.1990    1.1495   40.6570 C.3       3 GLC5        0.0000 
     29 CA         14.7410    2.7690   39.8400 C.3       9 GLL5        0.0000 
     30 CA         15.6570   -0.4700   41.4740 C.3       6 GLP5        0.0000 
     31 CA         15.0305    4.4560   38.8015 C.3       3 GLC5        0.0000 
     32 CA         13.4625    4.3265   40.1570 C.3       3 GLC5        0.0000 
     33 CA         17.4195    1.6835   40.0155 C.3       3 GLC5        0.0000 
     34 CA         16.8490    3.5190   39.3720 C.3       9 GLL5        0.0000 
     35 CA         17.9900   -0.1520   40.6590 C.3       6 GLP5        0.0000 
     36 CA         16.0845    4.8310   38.5675 C.3       3 GLC5        0.0000 
     37 CA         17.9545    1.2480   39.0500 C.3       3 GLC5        0.0000 
     38 CA         17.9190    2.6480   37.4410 C.3       9 GLL5        0.0000 
     39 CA         16.6445    1.0480   36.8425 C.3       3 GLC5        0.0000 
     40 CA         15.3700   -0.5520   36.2440 C.3       6 GLP5        0.0000 
     41 CA         16.6195    4.3955   37.6020 C.3       3 GLC5        0.0000 
     42 CA         18.5940    1.8415   39.9255 C.3       3 GLC5        0.0000 
     43 CA         19.1980    3.8350   39.1920 C.3       9 GLL5        0.0000 
     44 O          13.2920    2.4360   37.8935 O.2       1 ALC1        0.0000 
     45 O          13.5480    2.1680   39.3880 O.2       7 ALL1        0.0000 
     46 O          13.0360    2.7040   36.3990 O.2       4 ALP1        0.0000 
     47 N          11.0110    1.1615   38.1355 N.am      2 SEC2        0.0000 
     48 N          11.2780    1.3890   39.4800 N.am      8 SEL2        0.0000 
     49 N          10.7440    0.9340   36.7910 N.am      5 SEP2        0.0000 
     50 CA         10.7465   -0.1065   42.3025 C.3       3 GLC5        0.0000 
     51 CA         10.1990    1.6160   42.8960 C.3       9 GLL5        0.0000 
     52 CA         11.2940   -1.8290   41.7090 C.3       6 GLP5        0.0000 
     53 CA          9.3365    0.5985   44.0930 C.3       3 GLC5        0.0000 
     54 CA          8.4740   -0.4190   45.2900 C.3       6 GLP5        0.0000 
     55 CA         10.1195    3.1235   41.7695 C.3       3 GLC5        0.0000 
     56 CA         10.0400    4.6310   40.6430 C.3       6 GLP5        0.0000 
     57 CA         16.4590    2.1167   43.7540 C.3       3 GLC5        0.0000 
     58 CA         11.1165    8.5735   44.3483 C.3       3 GLC5        0.0000 
     59 CA         12.0720    6.3500   43.9060 C.3       9 GLL5        0.0000 
     60 CA         10.6770   10.3790   44.7800 C.3       6 GLP5        0.0000 
     61 CA         12.2456    5.8476   42.2476 C.3       3 GLC5        0.0000 
     62 CA         13.9797    0.7568   41.1220 C.3       3 GLC5        0.0000 
     63 CA         12.2000    2.0680   41.4470 C.3       9 GLL5        0.0000 
     64 CA         11.7982    0.0773   41.2395 C.3       3 GLC5        0.0000 
     65 CA         12.4050    1.8990   40.0930 C.3       9 GLL5        0.0000 
     66 CA         11.1713    3.3072   40.7065 C.3       3 GLC5        0.0000 
@<TRIPOS>BOND
@<TRIPOS>SUBSTRUCTURE
     1 ALC1       44 GROUP        1 X    ALC  0     ROOT ALC X 1
     2 SEC2       47 GROUP        1 X    SEC  0     **** SEC X 2
     3 GLC5        1 GROUP        1 X    GLC  0     **** GLC X 6
     4 ALP1       46 GROUP        1 Y    ALP  0     ROOT ALP Y 8
     5 SEP2       49 GROUP        1 Y    SEP  0     **** SEP Y 9
     6 GLP5        3 GROUP        1 Y    GLP  0     **** GLP Y 13
     7 ALL1       45 GROUP        1 Z    ALL  0     ROOT ALL Z 15
     8 SEL2       48 GROUP        1 Z    SEL  0     **** SEL Z 16
     9 GLL5        2 GROUP        1 Z    GLL  0     **** GLL Z 20
@<TRIPOS>SET

