#    Name: 4c62_XWW_1_ligand
#    Modification time : Tue Mar 25 09:02:04 2014

@<TRIPOS>MOLECULE
4c62_XWW_1_ligand
   50    53     1     0     0
SMALL
NO_CHARGES


@<TRIPOS>ATOM
      1 C1         15.8370    3.6320   45.1810 C.3       1 XWW2133     0.0000 
      2 C2         15.2050    3.7050   43.8170 C.3       1 XWW2133     0.0000 
      3 C3         14.0820    4.6810   43.8640 C.ar      1 XWW2133     0.0000 
      4 N1         14.3250    5.9170   43.3850 N.ar      1 XWW2133     0.0000 
      5 C4         13.2870    6.7550   43.4090 C.ar      1 XWW2133     0.0000 
      6 C5         12.0720    6.3500   43.9060 C.ar      1 XWW2133     0.0000 
      7 C6         11.9350    5.0700   44.3850 C.ar      1 XWW2133     0.0000 
      8 N2         12.9440    4.1980   44.3710 N.ar      1 XWW2133     0.0000 
      9 F1         11.0400    7.1860   43.9270 F         1 XWW2133     0.0000 
     10 N3         16.1770    4.1480   42.8070 N.pl3     1 XWW2133     0.0000 
     11 C7         15.9770    3.7210   41.4870 C.ar      1 XWW2133     0.0000 
     12 N4         14.8310    3.1530   41.1130 N.ar      1 XWW2133     0.0000 
     13 C8         14.7410    2.7690   39.8400 C.ar      1 XWW2133     0.0000 
     14 N5         15.7290    2.9310   38.9570 N.ar      1 XWW2133     0.0000 
     15 C9         16.8490    3.5190   39.3720 C.ar      1 XWW2133     0.0000 
     16 N6         16.9850    3.9270   40.6440 N.ar      1 XWW2133     0.0000 
     17 N7         17.9300    3.7160   38.4490 N.3       1 XWW2133     0.0000 
     18 C10        17.9190    2.6480   37.4410 C.3       1 XWW2133     0.0000 
     19 C11        19.2040    2.5160   36.6090 C.3       1 XWW2133     0.0000 
     20 O1         20.3920    2.6010   37.4110 O.3       1 XWW2133     0.0000 
     21 C12        20.4130    3.7420   38.2820 C.3       1 XWW2133     0.0000 
     22 C13        19.1980    3.8350   39.1920 C.3       1 XWW2133     0.0000 
     23 N8         13.5480    2.1680   39.3880 N.pl3     1 XWW2133     0.0000 
     24 C14        12.4050    1.8990   40.0930 C.2       1 XWW2133     0.0000 
     25 C15        12.2000    2.0680   41.4470 C.2       1 XWW2133     0.0000 
     26 N9         10.9100    1.6470   41.6320 N.pl3     1 XWW2133     0.0000 
     27 C16        10.3880    1.2480   40.4360 C.2       1 XWW2133     0.0000 
     28 N10        11.2780    1.3890   39.4800 N.2       1 XWW2133     0.0000 
     29 C17        10.1990    1.6160   42.8960 C.3       1 XWW2133     0.0000 
     30 H          14.8155    2.7363   43.5585 H         1 XWW2133     0.0000 
     31 H          13.3812    7.7319   43.0505 H         1 XWW2133     0.0000 
     32 H          10.9965    4.7846   44.7721 H         1 XWW2133     0.0000 
     33 H          16.9372    4.7286   43.0821 H         1 XWW2133     0.0000 
     34 H          17.0725    2.7959   36.7317 H         1 XWW2133     0.0000 
     35 H          17.7289    1.6626   37.9253 H         1 XWW2133     0.0000 
     36 H          19.1808    3.3085   35.8374 H         1 XWW2133     0.0000 
     37 H          19.1502    1.5520   36.0689 H         1 XWW2133     0.0000 
     38 H          20.4701    4.6873   37.6991 H         1 XWW2133     0.0000 
     39 H          21.3178    3.7333   38.9284 H         1 XWW2133     0.0000 
     40 H          19.2709    3.0400   39.9519 H         1 XWW2133     0.0000 
     41 H          19.2374    4.7975   39.7276 H         1 XWW2133     0.0000 
     42 H          13.5503    1.8850   38.3348 H         1 XWW2133     0.0000 
     43 H          12.7971    2.3901   42.0758 H         1 XWW2133     0.0000 
     44 H           9.4725    0.9075   40.3340 H         1 XWW2133     0.0000 
     45 H          16.6033    2.9898   45.2014 H         1 XWW2133     0.0000 
     46 H          16.1910    4.5201   45.4743 H         1 XWW2133     0.0000 
     47 H          15.1846    3.3321   45.8770 H         1 XWW2133     0.0000 
     48 H          10.6559    1.0296   43.5648 H         1 XWW2133     0.0000 
     49 H          10.1276    2.5260   43.3044 H         1 XWW2133     0.0000 
     50 H           9.2673    1.2686   42.7896 H         1 XWW2133     0.0000 
@<TRIPOS>BOND
     1    2    1 1    
     2   45    1 1    
     3   46    1 1    
     4   47    1 1    
     5    3    2 1    
     6   10    2 1    
     7   30    2 1    
     8    4    3 ar   
     9    8    3 ar   
    10    5    4 ar   
    11    6    5 ar   
    12   31    5 1    
    13    7    6 ar   
    14    9    6 1    
    15    8    7 ar   
    16   32    7 1    
    17   11   10 1    
    18   33   10 1    
    19   12   11 ar   
    20   16   11 ar   
    21   13   12 ar   
    22   14   13 ar   
    23   23   13 1    
    24   15   14 ar   
    25   16   15 ar   
    26   17   15 1    
    27   18   17 1    
    28   22   17 1    
    29   19   18 1    
    30   34   18 1    
    31   35   18 1    
    32   20   19 1    
    33   36   19 1    
    34   37   19 1    
    35   21   20 1    
    36   22   21 1    
    37   38   21 1    
    38   39   21 1    
    39   40   22 1    
    40   41   22 1    
    41   24   23 1    
    42   42   23 1    
    43   25   24 2    
    44   28   24 1    
    45   26   25 1    
    46   43   25 1    
    47   27   26 1    
    48   29   26 1    
    49   28   27 2    
    50   44   27 1    
    51   48   29 1    
    52   49   29 1    
    53   50   29 1    
@<TRIPOS>SUBSTRUCTURE
     1 XWW2133     1 GROUP   
@<TRIPOS>SET

