#    Name: 3zsv_ZSV_2_INTS_M
#    Modification time : Tue Mar 25 03:56:40 2014

@<TRIPOS>MOLECULE
3zsv_ZSV_2_INTS_M
   85     0     9     0     0
SMALL
NO_CHARGES


@<TRIPOS>ATOM
      1 CA         13.1735   32.6920   -4.5335 C.3       3 GLC5        0.0000 
      2 CA         12.7370   34.6770   -4.6440 C.3       9 GLL5        0.0000 
      3 CA         13.6100   30.7070   -4.4230 C.3       6 GLP5        0.0000 
      4 CA         13.7555   33.0550   -3.3885 C.3       3 GLC5        0.0000 
      5 CA         12.8000   34.8700   -3.2780 C.3       9 GLL5        0.0000 
      6 CA         14.7110   31.2400   -3.4990 C.3       6 GLP5        0.0000 
      7 CA          9.2240   34.6795    3.2960 C.3       3 GLC5        0.0000 
      8 CA          9.4990   33.0320    1.8830 C.3       9 GLL5        0.0000 
      9 CA          8.9490   36.3270    4.7090 C.3       6 GLP5        0.0000 
     10 CA          7.8060   35.9445    2.9755 C.3       3 GLC5        0.0000 
     11 CA          6.6630   35.5620    1.2420 C.3       9 GLL5        0.0000 
     12 CA          4.6760   35.6655    2.0495 C.3       3 GLC5        0.0000 
     13 CA          2.6890   35.7690    2.8570 C.3       6 GLP5        0.0000 
     14 CA          6.7920   31.7665   -0.5670 C.3       3 GLC5        0.0000 
     15 CA          6.1740   33.6440   -0.1080 C.3       9 GLL5        0.0000 
     16 CA          7.4100   29.8890   -1.0260 C.3       6 GLP5        0.0000 
     17 CA          8.6990   29.8700    3.9675 C.3       3 GLC5        0.0000 
     18 CA         10.1090   30.8600    2.6750 C.3       9 GLL5        0.0000 
     19 CA          7.2890   28.8800    5.2600 C.3       6 GLP5        0.0000 
     20 CA          4.7645   34.5290    2.5280 C.3       3 GLC5        0.0000 
     21 CA          6.2920   34.2380    1.1320 C.3       9 GLL5        0.0000 
     22 CA          3.2370   34.8200    3.9240 C.3       6 GLP5        0.0000 
     23 CA         11.7425   34.1760    3.4190 C.3       3 GLC5        0.0000 
     24 CA         11.7750   35.6630    1.8410 C.3       9 GLL5        0.0000 
     25 CA         11.7100   32.6890    4.9970 C.3       6 GLP5        0.0000 
     26 CA         12.7510   28.6635    1.0490 C.3       3 GLC5        0.0000 
     27 CA         11.2010   28.4200    2.2240 C.3       9 GLL5        0.0000 
     28 CA         14.3010   28.9070   -0.1260 C.3       6 GLP5        0.0000 
     29 CA         11.2345   26.4160    2.0420 C.3       3 GLC5        0.0000 
     30 CA         11.2680   24.4120    1.8600 C.3       6 GLP5        0.0000 
     31 CA          9.1530   27.9490    2.6985 C.3       3 GLC5        0.0000 
     32 CA          7.1050   27.4780    3.1730 C.3       6 GLP5        0.0000 
     33 CA         11.4235   30.8530    4.3030 C.3       3 GLC5        0.0000 
     34 CA         11.1370   29.0170    3.6090 C.3       9 GLL5        0.0000 
     35 CA          9.2130   28.9485    4.4345 C.3       3 GLC5        0.0000 
     36 CA          6.5300   31.0525    0.5625 C.3       3 GLC5        0.0000 
     37 CA          5.6500   32.2160    2.1510 C.3       9 GLL5        0.0000 
     38 CA          5.9635   33.1285    3.9230 C.3       3 GLC5        0.0000 
     39 CA          6.2770   34.0410    5.6950 C.3       6 GLP5        0.0000 
     40 CA          5.7960   30.9090    3.7050 C.3       3 GLC5        0.0000 
     41 CA          5.9420   29.6020    5.2590 C.3       6 GLP5        0.0000 
     42 CA          4.6510   30.7740    1.3405 C.3       3 GLC5        0.0000 
     43 CA          3.6520   29.3320    0.5300 C.3       6 GLP5        0.0000 
     44 CA          4.4435   33.5180    3.0375 C.3       3 GLC5        0.0000 
     45 CA         10.1525   29.3880    7.5490 C.3       3 GLC5        0.0000 
     46 CA         10.8560   28.3320    6.0070 C.3       9 GLL5        0.0000 
     47 CA          9.4490   30.4440    9.0910 C.3       6 GLP5        0.0000 
     48 CA          9.0725   28.6060    5.6335 C.3       3 GLC5        0.0000 
     49 CA         10.7275   25.9830    3.8370 C.3       3 GLC5        0.0000 
     50 CA         10.9340   27.8620    4.5730 C.3       9 GLL5        0.0000 
     51 CA         10.5210   24.1040    3.1010 C.3       6 GLP5        0.0000 
     52 CA          9.0845   27.7055    4.5640 C.3       3 GLC5        0.0000 
     53 CA          7.2350   27.5490    4.5550 C.3       6 GLP5        0.0000 
     54 O           8.1720   34.9890   -3.7420 O.2       1 ALC1        0.0000 
     55 O           8.2930   36.1490   -3.0020 O.2       7 ALL1        0.0000 
     56 O           8.0510   33.8290   -4.4820 O.2       4 ALP1        0.0000 
     57 N          12.0355   29.4150   -2.2895 N.am      2 SEC2        0.0000 
     58 N          11.2640   30.1250   -1.2930 N.am      8 SEL2        0.0000 
     59 N          12.8070   28.7050   -3.2860 N.am      5 SEP2        0.0000 
     60 N          10.2745   29.3195   -0.8305 N.am      2 SEC2        0.0000 
     61 N           9.2850   28.5140   -0.3680 N.am      5 SEP2        0.0000 
     62 N          12.2190   31.7450   -2.7660 N.am      2 SEC2        0.0000 
     63 N          12.1170   32.1790   -1.4250 N.am      8 SEL2        0.0000 
     64 N          12.3210   31.3110   -4.1070 N.am      5 SEP2        0.0000 
     65 CA          9.4238   34.6927   -5.9363 C.3       3 GLC5        0.0000 
     66 CA         11.6370   35.1200   -5.3420 C.3       9 GLL5        0.0000 
     67 CA          7.7350   33.9500   -6.8560 C.3       6 GLP5        0.0000 
     68 CA         11.1000   33.3923   -4.7805 C.3       3 GLC5        0.0000 
     69 CA         10.0130   31.8860   -4.5680 C.3       6 GLP5        0.0000 
     70 CA         10.3180   33.8657   -4.2875 C.3       3 GLC5        0.0000 
     71 CA         10.5880   35.7510   -4.6910 C.3       9 GLL5        0.0000 
     72 CA         11.1475   33.5353   -3.7588 C.3       3 GLC5        0.0000 
     73 CA         11.7640   35.4990   -2.6210 C.3       9 GLL5        0.0000 
     74 CA         10.5958   32.6165    3.6857 C.3       3 GLC5        0.0000 
     75 CA          6.0185   37.6043    1.1305 C.3       3 GLC5        0.0000 
     76 CA          5.2470   39.2710    1.5810 C.3       6 GLP5        0.0000 
     77 CA          5.4530   33.0932   -1.9960 C.3       3 GLC5        0.0000 
     78 CA          6.4260   34.4130   -1.2340 C.3       9 GLL5        0.0000 
     79 CA          4.6060   32.1580   -3.3210 C.3       6 GLP5        0.0000 
     80 CA         12.5370   30.0018    0.4253 C.3       3 GLC5        0.0000 
     81 CA         10.7910   31.5820    0.4780 C.3       9 GLL5        0.0000 
     82 CA         11.0710   31.7122    3.5360 C.3       3 GLC5        0.0000 
     83 CA         10.7550   30.6110    1.4750 C.3       9 GLL5        0.0000 
     84 CA          9.0126   30.6449    0.0014 C.3       3 GLC5        0.0000 
     85 CA         10.5158   36.2830    3.3477 C.3       3 GLC5        0.0000 
@<TRIPOS>BOND
@<TRIPOS>SUBSTRUCTURE
     1 ALC1       54 GROUP        1 X    ALC  0     ROOT ALC X 1
     2 SEC2       57 GROUP        1 X    SEC  0     **** SEC X 2
     3 GLC5        1 GROUP        1 X    GLC  0     **** GLC X 6
     4 ALP1       56 GROUP        1 Y    ALP  0     ROOT ALP Y 8
     5 SEP2       59 GROUP        1 Y    SEP  0     **** SEP Y 9
     6 GLP5        3 GROUP        1 Y    GLP  0     **** GLP Y 13
     7 ALL1       55 GROUP        1 Z    ALL  0     ROOT ALL Z 15
     8 SEL2       58 GROUP        1 Z    SEL  0     **** SEL Z 16
     9 GLL5        2 GROUP        1 Z    GLL  0     **** GLL Z 20
@<TRIPOS>SET

