#    Name: 3zsv_ZSV_2_ligand
#    Modification time : Tue Mar 25 03:56:40 2014

@<TRIPOS>MOLECULE
3zsv_ZSV_2_ligand
   73    76     1     0     0
SMALL
NO_CHARGES


@<TRIPOS>ATOM
      1 C1         11.6370   35.1200   -5.3420 C.ar      1 ZSV1215     0.0000 
      2 C2         12.7370   34.6770   -4.6440 C.ar      1 ZSV1215     0.0000 
      3 C3         10.5880   35.7510   -4.6910 C.ar      1 ZSV1215     0.0000 
      4 C4         12.8000   34.8700   -3.2780 C.ar      1 ZSV1215     0.0000 
      5 C5          9.4990   33.0320    1.8830 C.ar      1 ZSV1215     0.0000 
      6 C6          6.9170   36.3130    0.1180 C.ar      1 ZSV1215     0.0000 
      7 C7          6.4260   34.4130   -1.2340 C.ar      1 ZSV1215     0.0000 
      8 C8          9.4640   32.0560    2.8660 C.ar      1 ZSV1215     0.0000 
      9 C9          6.6630   35.5620    1.2420 C.ar      1 ZSV1215     0.0000 
     10 C10         6.1740   33.6440   -0.1080 C.ar      1 ZSV1215     0.0000 
     11 C11        10.6580   35.9400   -3.3230 C.ar      1 ZSV1215     0.0000 
     12 C12        10.7910   31.5820    0.4780 C.ar      1 ZSV1215     0.0000 
     13 C13         6.8020   35.7410   -1.1270 C.ar      1 ZSV1215     0.0000 
     14 C14        11.7640   35.4990   -2.6210 C.ar      1 ZSV1215     0.0000 
     15 C15        10.1600   32.7990    0.6870 C.ar      1 ZSV1215     0.0000 
     16 C16        10.1090   30.8600    2.6750 C.ar      1 ZSV1215     0.0000 
     17 C17        10.7550   30.6110    1.4750 C.ar      1 ZSV1215     0.0000 
     18 C18         6.2920   34.2380    1.1320 C.ar      1 ZSV1215     0.0000 
     19 C19        12.3900   36.8150    2.1320 C.2       1 ZSV1215     0.0000 
     20 C20        11.7750   35.6630    1.8410 C.2       1 ZSV1215     0.0000 
     21 C21         9.5300   36.6200   -2.6540 C.2       1 ZSV1215     0.0000 
     22 C22        11.4810   31.2840   -0.8200 C.2       1 ZSV1215     0.0000 
     23 C23        12.2680   28.7290    6.4040 C.2       1 ZSV1215     0.0000 
     24 C24        11.2010   28.4200    2.2240 C.3       1 ZSV1215     0.0000 
     25 C25        11.1370   29.0170    3.6090 C.3       1 ZSV1215     0.0000 
     26 C26         5.6500   32.2160    2.1510 C.3       1 ZSV1215     0.0000 
     27 C27         7.0760   36.5700   -2.3490 C.3       1 ZSV1215     0.0000 
     28 C28        11.8870   35.6830   -1.1480 C.3       1 ZSV1215     0.0000 
     29 C29        10.1880   33.8990   -0.3290 C.3       1 ZSV1215     0.0000 
     30 C30        12.3490   34.5950    0.9630 C.3       1 ZSV1215     0.0000 
     31 C31        10.8560   28.3320    6.0070 C.3       1 ZSV1215     0.0000 
     32 C32        10.9340   27.8620    4.5730 C.3       1 ZSV1215     0.0000 
     33 N33         8.2930   36.1490   -3.0020 N.am      1 ZSV1215     0.0000 
     34 N34        11.6250   34.4420   -0.3490 N.4       1 ZSV1215     0.0000 
     35 O35        11.2640   30.1250   -1.2930 O.co2     1 ZSV1215     0.0000 
     36 O36        12.3200   29.7960    7.0750 O.co2     1 ZSV1215     0.0000 
     37 O37         9.7210   37.5290   -1.8590 O.2       1 ZSV1215     0.0000 
     38 O38        12.1170   32.1790   -1.4250 O.co2     1 ZSV1215     0.0000 
     39 O39        13.2150   27.9690    6.0590 O.co2     1 ZSV1215     0.0000 
     40 O40        11.4330   29.4200    1.2350 O.3       1 ZSV1215     0.0000 
     41 O41        10.0480   29.9320    3.7080 O.3       1 ZSV1215     0.0000 
     42 O42         6.0630   33.5730    2.3280 O.3       1 ZSV1215     0.0000 
     43 H          11.5875   34.9822   -6.3691 H         1 ZSV1215     0.0000 
     44 H          13.5088   34.2048   -5.1345 H         1 ZSV1215     0.0000 
     45 H           9.7708   36.0730   -5.2192 H         1 ZSV1215     0.0000 
     46 H          13.6240   34.5426   -2.7494 H         1 ZSV1215     0.0000 
     47 H           9.0302   33.9380    2.0420 H         1 ZSV1215     0.0000 
     48 H           7.1932   37.3034    0.2092 H         1 ZSV1215     0.0000 
     49 H           6.3306   33.9837   -2.1749 H         1 ZSV1215     0.0000 
     50 H           8.9487   32.2352    3.7440 H         1 ZSV1215     0.0000 
     51 H           6.7506   35.9931    2.1806 H         1 ZSV1215     0.0000 
     52 H           5.9082   32.6638   -0.1973 H         1 ZSV1215     0.0000 
     53 H          10.8210   35.4322    2.2243 H         1 ZSV1215     0.0000 
     54 H          10.2518   27.8843    2.0394 H         1 ZSV1215     0.0000 
     55 H          11.9999   27.6560    2.2186 H         1 ZSV1215     0.0000 
     56 H          12.0773   29.4760    3.8282 H         1 ZSV1215     0.0000 
     57 H           7.1396   37.6284   -2.0465 H         1 ZSV1215     0.0000 
     58 H           6.2145   36.4821   -3.0315 H         1 ZSV1215     0.0000 
     59 H          11.1862   36.4790   -0.8175 H         1 ZSV1215     0.0000 
     60 H          12.9049   36.0576   -0.9084 H         1 ZSV1215     0.0000 
     61 H           9.5201   34.6906   -0.0451 H         1 ZSV1215     0.0000 
     62 H           9.9458   33.5177   -1.3033 H         1 ZSV1215     0.0000 
     63 H          12.3278   33.6284    1.5003 H         1 ZSV1215     0.0000 
     64 H          13.4135   34.8186    0.7623 H         1 ZSV1215     0.0000 
     65 H          10.2090   29.1851    6.0778 H         1 ZSV1215     0.0000 
     66 H          10.5168   27.5319    6.6364 H         1 ZSV1215     0.0000 
     67 H          11.7651   27.1551    4.4664 H         1 ZSV1215     0.0000 
     68 H          10.0090   27.3349    4.3119 H         1 ZSV1215     0.0000 
     69 H           8.1916   35.4502   -3.7736 H         1 ZSV1215     0.0000 
     70 H          12.2522   33.6233   -0.9091 H         1 ZSV1215     0.0000 
     71 H           6.3349   31.6808    1.6565 H         1 ZSV1215     0.0000 
     72 H           5.4958   31.7576    3.0262 H         1 ZSV1215     0.0000 
     73 H           4.7974   32.1519    1.6323 H         1 ZSV1215     0.0000 
@<TRIPOS>BOND
     1    2    1 ar   
     2    3    1 ar   
     3   43    1 1    
     4    4    2 ar   
     5   44    2 1    
     6   11    3 ar   
     7   45    3 1    
     8   14    4 ar   
     9   46    4 1    
    10    8    5 ar   
    11   15    5 ar   
    12   47    5 1    
    13    9    6 ar   
    14   13    6 ar   
    15   48    6 1    
    16   10    7 ar   
    17   13    7 ar   
    18   49    7 1    
    19   16    8 ar   
    20   50    8 1    
    21   18    9 ar   
    22   51    9 1    
    23   18   10 ar   
    24   52   10 1    
    25   14   11 ar   
    26   21   11 1    
    27   15   12 ar   
    28   17   12 ar   
    29   22   12 1    
    30   27   13 1    
    31   28   14 1    
    32   29   15 1    
    33   17   16 ar   
    34   41   16 1    
    35   40   17 1    
    36   42   18 1    
    37   20   19 2    
    38   30   20 1    
    39   53   20 1    
    40   33   21 am   
    41   37   21 2    
    42   35   22 ar   
    43   38   22 ar   
    44   31   23 1    
    45   36   23 ar   
    46   39   23 ar   
    47   25   24 1    
    48   40   24 1    
    49   54   24 1    
    50   55   24 1    
    51   32   25 1    
    52   41   25 1    
    53   56   25 1    
    54   42   26 1    
    55   71   26 1    
    56   72   26 1    
    57   73   26 1    
    58   33   27 1    
    59   57   27 1    
    60   58   27 1    
    61   34   28 1    
    62   59   28 1    
    63   60   28 1    
    64   34   29 1    
    65   61   29 1    
    66   62   29 1    
    67   34   30 1    
    68   63   30 1    
    69   64   30 1    
    70   32   31 1    
    71   65   31 1    
    72   66   31 1    
    73   67   32 1    
    74   68   32 1    
    75   69   33 1    
    76   70   34 1    
@<TRIPOS>SUBSTRUCTURE
     1 ZSV1215     1 GROUP   
@<TRIPOS>SET

