#    Name: 3gr8_FMN_2_INTS_M
#    Modification time : Tue Mar 25 12:53:09 2014

@<TRIPOS>MOLECULE
3gr8_FMN_2_INTS_M
   64     0    12     0     0
SMALL
NO_CHARGES


@<TRIPOS>ATOM
      1 N         -14.6410  -22.2870  -24.0065 N.am      2 SEC2        0.0000 
      2 N         -14.9300  -23.1250  -25.0200 N.am     10 SEL2        0.0000 
      3 N         -14.3520  -21.4490  -22.9930 N.am      6 SEP2        0.0000 
      4 O         -14.8625  -24.0400  -22.6150 O.2       1 ALC1        0.0000 
      5 O         -15.1700  -24.9050  -23.6610 O.2       9 ALL1        0.0000 
      6 O         -14.5550  -23.1750  -21.5690 O.2       5 ALP1        0.0000 
      7 N         -14.7050  -26.2270  -20.9605 N.am      2 SEC2        0.0000 
      8 N         -15.4160  -26.7550  -22.4010 N.am     10 SEL2        0.0000 
      9 N         -13.9940  -25.6990  -19.5200 N.am      6 SEP2        0.0000 
     10 N         -15.0590  -29.0240  -23.4910 N.am      2 SEC2        0.0000 
     11 N         -15.8110  -28.3940  -24.5280 N.am     10 SEL2        0.0000 
     12 N         -14.3070  -29.6540  -22.4540 N.am      6 SEP2        0.0000 
     13 CA        -14.1405  -29.0065  -24.8225 C.3       4 GLC5        0.0000 
     14 CA        -15.6600  -29.1810  -25.6480 C.3      12 GLL5        0.0000 
     15 CA        -12.6210  -28.8320  -23.9970 C.3       8 GLP5        0.0000 
     16 CA        -15.1810  -30.4915  -23.4145 C.3       4 GLC5        0.0000 
     17 CA        -15.5520  -30.5580  -25.5070 C.3      12 GLL5        0.0000 
     18 CA        -14.8100  -30.4250  -21.3220 C.3       8 GLP5        0.0000 
     19 CA        -14.4640  -31.5815  -30.8105 C.3       4 GLC5        0.0000 
     20 CA        -15.1870  -31.6500  -29.1080 C.3      12 GLL5        0.0000 
     21 CA        -13.7410  -31.5130  -32.5130 C.3       8 GLP5        0.0000 
     22 CA        -12.8370  -27.9560  -27.5395 C.3       4 GLC5        0.0000 
     23 CA        -13.8930  -26.7610  -28.6730 C.3      12 GLL5        0.0000 
     24 CA        -11.7810  -29.1510  -26.4060 C.3       8 GLP5        0.0000 
     25 N         -12.0770  -25.2930  -27.8965 N.am      2 SEC2        0.0000 
     26 N         -13.1460  -26.0610  -27.7020 N.am     10 SEL2        0.0000 
     27 N         -11.0080  -24.5250  -28.0910 N.am      6 SEP2        0.0000 
     28 O         -12.9415  -26.1510  -26.3510 O.2       1 ALC1        0.0000 
     29 O         -13.1460  -26.0610  -27.7020 O.2       9 ALL1        0.0000 
     30 O         -12.7370  -26.2410  -25.0000 O.2       5 ALP1        0.0000 
     31 CA        -11.6315  -25.6685  -29.1790 C.3       4 GLC5        0.0000 
     32 CA        -13.5340  -26.2450  -30.0630 C.3      12 GLL5        0.0000 
     33 CA         -9.7290  -25.0920  -28.2950 C.3       8 GLP5        0.0000 
     34 CA        -12.4475  -24.8065  -30.9340 C.3       4 GLC5        0.0000 
     35 CA        -11.3610  -23.3680  -31.8050 C.3       8 GLP5        0.0000 
     36 N         -13.8545  -23.8430  -29.3080 N.am      2 SEC2        0.0000 
     37 N         -13.5610  -24.8390  -30.0760 N.am     10 SEL2        0.0000 
     38 N         -14.1480  -22.8470  -28.5400 N.am      6 SEP2        0.0000 
     39 N         -14.7485  -28.7325  -32.4170 N.am      2 SEC2        0.0000 
     40 N         -14.6630  -28.1630  -30.9510 N.am     10 SEL2        0.0000 
     41 N         -14.8340  -29.3020  -33.8830 N.am      6 SEP2        0.0000 
     42 CA        -12.6550  -24.9330  -32.1625 C.3       4 GLC5        0.0000 
     43 CA        -13.9490  -26.4980  -32.5200 C.3      12 GLL5        0.0000 
     44 CA        -13.3800  -25.3745  -34.1405 C.3       4 GLC5        0.0000 
     45 CA        -12.8110  -24.2510  -35.7610 C.3       8 GLP5        0.0000 
     46 NZ        -13.6600  -29.1850  -34.6185 N.4       3 LYC4        0.0000 
     47 NZ        -12.5150  -27.8890  -34.7500 N.4      11 LYL4        0.0000 
     48 NZ        -14.8050  -30.4810  -34.4870 N.4       7 LYP4        0.0000 
     49 N         -12.2620  -27.0840  -35.7720 N.am      2 SEC2        0.0000 
     50 N         -12.5150  -27.8890  -34.7500 N.am     10 SEL2        0.0000 
     51 N         -12.0090  -26.2790  -36.7940 N.am      6 SEP2        0.0000 
     52 N          -9.6225  -27.7850  -32.3760 N.am      2 SEC2        0.0000 
     53 N         -10.4000  -27.6710  -33.4810 N.am     10 SEL2        0.0000 
     54 N          -8.8450  -27.8990  -31.2710 N.am      6 SEP2        0.0000 
     55 NZ        -13.4975  -29.8270  -33.5870 N.4       3 LYC4        0.0000 
     56 NZ        -12.1900  -29.1730  -32.6870 N.4      11 LYL4        0.0000 
     57 N         -11.2940  -29.9690  -32.1080 N.am      2 SEC2        0.0000 
     58 N         -12.1900  -29.1730  -32.6870 N.am     10 SEL2        0.0000 
     59 N         -10.3980  -30.7650  -31.5290 N.am      6 SEP2        0.0000 
     60 CA        -13.7295  -30.3642  -25.5485 C.3       4 GLC5        0.0000 
     61 CA        -15.3980  -31.3630  -26.6290 C.3      12 GLL5        0.0000 
     62 CA        -11.9840  -29.7680  -25.0290 C.3       8 GLP5        0.0000 
     63 CA        -13.6453  -29.2503  -26.9209 C.3       4 GLC5        0.0000 
     64 CA        -15.3510  -30.7880  -27.8920 C.3      12 GLL5        0.0000 
@<TRIPOS>BOND
@<TRIPOS>SUBSTRUCTURE
     1 ALC1        4 GROUP        1 X    ALC  0     ROOT ALC X 1
     2 SEC2        1 GROUP        1 X    SEC  0     **** SEC X 2
     3 LYC4       46 GROUP        1 X    LYC  0     **** LYC X 4
     4 GLC5       13 GROUP        1 X    GLC  0     **** GLC X 6
     5 ALP1        6 GROUP        1 Y    ALP  0     ROOT ALP Y 8
     6 SEP2        3 GROUP        1 Y    SEP  0     **** SEP Y 9
     7 LYP4       48 GROUP        1 Y    LYP  0     **** LYP Y 11
     8 GLP5       15 GROUP        1 Y    GLP  0     **** GLP Y 13
     9 ALL1        5 GROUP        1 Z    ALL  0     ROOT ALL Z 15
    10 SEL2        2 GROUP        1 Z    SEL  0     **** SEL Z 16
    11 LYL4       47 GROUP        1 Z    LYL  0     **** LYL Z 18
    12 GLL5       14 GROUP        1 Z    GLL  0     **** GLL Z 20
@<TRIPOS>SET

