#    Name: 3gr8_FMN_2_ligand
#    Modification time : Tue Mar 25 12:53:09 2014

@<TRIPOS>MOLECULE
3gr8_FMN_2_ligand
   50    52     1     0     0
SMALL
NO_CHARGES


@<TRIPOS>ATOM
      1 N1        -15.3250  -25.1020  -26.0400 N.2       1 FMN341      0.0000 
      2 C2        -15.1380  -24.3300  -24.9130 C.2       1 FMN341      0.0000 
      3 O2        -14.9300  -23.1250  -25.0200 O.2       1 FMN341      0.0000 
      4 N3        -15.1700  -24.9050  -23.6610 N.am      1 FMN341      0.0000 
      5 C4        -15.3950  -26.2560  -23.5230 C.2       1 FMN341      0.0000 
      6 O4        -15.4160  -26.7550  -22.4010 O.2       1 FMN341      0.0000 
      7 C4A       -15.5860  -27.0410  -24.6550 C.2       1 FMN341      0.0000 
      8 N5        -15.8110  -28.3940  -24.5280 N.2       1 FMN341      0.0000 
      9 C5A       -15.6600  -29.1810  -25.6480 C.ar      1 FMN341      0.0000 
     10 C6        -15.5520  -30.5580  -25.5070 C.ar      1 FMN341      0.0000 
     11 C7        -15.3980  -31.3630  -26.6290 C.ar      1 FMN341      0.0000 
     12 C7M       -15.2880  -32.8510  -26.4830 C.3       1 FMN341      0.0000 
     13 C8        -15.3510  -30.7880  -27.8920 C.ar      1 FMN341      0.0000 
     14 C8M       -15.1870  -31.6500  -29.1080 C.3       1 FMN341      0.0000 
     15 C9        -15.4650  -29.4100  -28.0310 C.ar      1 FMN341      0.0000 
     16 C9A       -15.6110  -28.6000  -26.9100 C.ar      1 FMN341      0.0000 
     17 N10       -15.7050  -27.2270  -27.0530 N.pl3     1 FMN341      0.0000 
     18 C10       -15.5500  -26.4580  -25.9180 C.2       1 FMN341      0.0000 
     19 C1'       -15.3830  -26.6020  -28.3790 C.3       1 FMN341      0.0000 
     20 C2'       -13.8930  -26.7610  -28.6730 C.3       1 FMN341      0.0000 
     21 O2'       -13.1460  -26.0610  -27.7020 O.3       1 FMN341      0.0000 
     22 C3'       -13.5340  -26.2450  -30.0630 C.3       1 FMN341      0.0000 
     23 O3'       -13.5610  -24.8390  -30.0760 O.3       1 FMN341      0.0000 
     24 C4'       -14.4910  -26.7730  -31.1240 C.3       1 FMN341      0.0000 
     25 O4'       -14.6630  -28.1630  -30.9510 O.3       1 FMN341      0.0000 
     26 C5'       -13.9490  -26.4980  -32.5200 C.3       1 FMN341      0.0000 
     27 O5'       -12.5490  -26.6750  -32.5190 O.3       1 FMN341      0.0000 
     28 P         -11.8920  -27.8690  -33.3760 P.3       1 FMN341      0.0000 
     29 O1P       -12.5150  -27.8890  -34.7500 O.co2     1 FMN341      0.0000 
     30 O2P       -10.4000  -27.6710  -33.4810 O.co2     1 FMN341      0.0000 
     31 O3P       -12.1900  -29.1730  -32.6870 O.co2     1 FMN341      0.0000 
     32 H         -15.0242  -24.3181  -22.8214 H         1 FMN341      0.0000 
     33 H         -15.5860  -30.9835  -24.5703 H         1 FMN341      0.0000 
     34 H         -15.4413  -28.9854  -28.9702 H         1 FMN341      0.0000 
     35 H         -15.6284  -25.5434  -28.3607 H         1 FMN341      0.0000 
     36 H         -15.9523  -27.0876  -29.1672 H         1 FMN341      0.0000 
     37 H         -13.6621  -27.8249  -28.6440 H         1 FMN341      0.0000 
     38 H         -12.5370  -26.6147  -30.3064 H         1 FMN341      0.0000 
     39 H         -15.4304  -26.2450  -31.0193 H         1 FMN341      0.0000 
     40 H         -14.2365  -25.4753  -32.7930 H         1 FMN341      0.0000 
     41 H         -14.4521  -27.1832  -33.2131 H         1 FMN341      0.0000 
     42 H         -15.1775  -33.3038  -27.3677 H         1 FMN341      0.0000 
     43 H         -14.5037  -33.1120  -25.9202 H         1 FMN341      0.0000 
     44 H         -16.1010  -33.2431  -26.0526 H         1 FMN341      0.0000 
     45 H         -14.3361  -32.1746  -29.0794 H         1 FMN341      0.0000 
     46 H         -15.9341  -32.3082  -29.2001 H         1 FMN341      0.0000 
     47 H         -15.1689  -31.1077  -29.9480 H         1 FMN341      0.0000 
     48 H         -13.3154  -26.5476  -26.8450 H         1 FMN341      0.0000 
     49 H         -14.2969  -24.6002  -30.7096 H         1 FMN341      0.0000 
     50 H         -13.9435  -28.5835  -31.5038 H         1 FMN341      0.0000 
@<TRIPOS>BOND
     1    2    1 1    
     2   18    1 2    
     3    3    2 2    
     4    4    2 am   
     5    5    4 am   
     6   32    4 1    
     7    6    5 2    
     8    7    5 1    
     9    8    7 2    
    10   18    7 1    
    11    9    8 1    
    12   10    9 ar   
    13   16    9 ar   
    14   11   10 ar   
    15   33   10 1    
    16   12   11 1    
    17   13   11 ar   
    18   42   12 1    
    19   43   12 1    
    20   44   12 1    
    21   14   13 1    
    22   15   13 ar   
    23   45   14 1    
    24   46   14 1    
    25   47   14 1    
    26   16   15 ar   
    27   34   15 1    
    28   17   16 1    
    29   18   17 1    
    30   19   17 1    
    31   20   19 1    
    32   35   19 1    
    33   36   19 1    
    34   21   20 1    
    35   22   20 1    
    36   37   20 1    
    37   48   21 1    
    38   23   22 1    
    39   24   22 1    
    40   38   22 1    
    41   49   23 1    
    42   25   24 1    
    43   26   24 1    
    44   39   24 1    
    45   50   25 1    
    46   27   26 1    
    47   40   26 1    
    48   41   26 1    
    49   28   27 1    
    50   29   28 ar   
    51   30   28 ar   
    52   31   28 ar   
@<TRIPOS>SUBSTRUCTURE
     1 FMN341      1 GROUP   
@<TRIPOS>SET

