#    Name: 4h3j_10W_2_INTS_M
#    Modification time : Tue Mar 25 00:16:26 2014

@<TRIPOS>MOLECULE
4h3j_10W_2_INTS_M
   59     0     9     0     0
SMALL
NO_CHARGES


@<TRIPOS>ATOM
      1 OD1        20.9710   37.3185   57.6820 O.co2     2 ASC3        0.0000 
      2 OD1        21.0260   35.3370   57.9680 O.co2     8 ASL3        0.0000 
      3 OD1        20.2290   38.8810   58.2670 O.co2     5 ASP3        0.0000 
      4 OD1        21.3920   38.4920   56.4770 O.co2     5 ASP3        0.0000 
      5 OD1        20.1085   35.9675   60.2400 O.co2     2 ASC3        0.0000 
      6 OD1        19.6670   35.7900   61.5930 O.co2     5 ASP3        0.0000 
      7 O          21.4700   37.1795   56.6425 O.2       1 ALC1        0.0000 
      8 O          21.5480   35.8670   56.8080 O.2       7 ALL1        0.0000 
      9 O          21.3920   38.4920   56.4770 O.2       4 ALP1        0.0000 
     10 O          20.3895   37.5130   58.5770 O.2       1 ALC1        0.0000 
     11 O          20.5500   36.1450   58.8870 O.2       7 ALL1        0.0000 
     12 O          20.2290   38.8810   58.2670 O.2       4 ALP1        0.0000 
     13 O          20.9710   37.3185   57.6820 O.2       1 ALC1        0.0000 
     14 O          20.1085   35.9675   60.2400 O.2       1 ALC1        0.0000 
     15 O          19.6670   35.7900   61.5930 O.2       4 ALP1        0.0000 
     16 CA         22.5800   32.0285   55.2825 C.3       3 GLC5        0.0000 
     17 CA         22.4320   33.6780   56.1370 C.3       9 GLL5        0.0000 
     18 CA         22.7280   30.3790   54.4280 C.3       6 GLP5        0.0000 
     19 CA         23.9210   37.1675   56.0665 C.3       3 GLC5        0.0000 
     20 CA         23.0650   35.6480   54.9060 C.3       9 GLL5        0.0000 
     21 CA         24.7770   38.6870   57.2270 C.3       6 GLP5        0.0000 
     22 CA         22.9220   37.0550   53.7915 C.3       3 GLC5        0.0000 
     23 CA         22.7790   38.4620   52.6770 C.3       6 GLP5        0.0000 
     24 CA         24.4495   32.1815   55.8320 C.3       3 GLC5        0.0000 
     25 CA         23.8720   33.9450   56.5020 C.3       9 GLL5        0.0000 
     26 CA         25.0270   30.4180   55.1620 C.3       6 GLP5        0.0000 
     27 CA         18.0570   36.2390   56.9730 C.3       3 GLC5        0.0000 
     28 CA         19.0800   34.9900   55.4070 C.3       9 GLL5        0.0000 
     29 CA         17.0340   37.4880   58.5390 C.3       6 GLP5        0.0000 
     30 CA         14.3895   32.2995   51.3240 C.3       3 GLC5        0.0000 
     31 CA         14.7640   33.5570   52.8290 C.3       9 GLL5        0.0000 
     32 CA         14.0150   31.0420   49.8190 C.3       6 GLP5        0.0000 
     33 CA         12.3015   35.9420   54.3800 C.3       3 GLC5        0.0000 
     34 CA         12.7000   33.9110   53.8880 C.3       9 GLL5        0.0000 
     35 CA         11.9030   37.9730   54.8720 C.3       6 GLP5        0.0000 
     36 CA         24.2925   37.5365   53.6325 C.3       3 GLC5        0.0000 
     37 CA         25.8060   36.6110   54.5880 C.3       9 GLL5        0.0000 
     38 CA         27.5610   38.9940   53.6065 C.3       3 GLC5        0.0000 
     39 CA         27.1290   37.1070   54.4790 C.3       9 GLL5        0.0000 
     40 CA         27.9930   40.8810   52.7340 C.3       6 GLP5        0.0000 
     41 CA         18.0493   36.5735   54.3385 C.3       3 GLC5        0.0000 
     42 CA         17.4190   38.4450   53.9640 C.3       6 GLP5        0.0000 
     43 CA         16.9327   36.4887   54.2167 C.3       3 GLC5        0.0000 
     44 CA         16.8250   34.3040   53.9280 C.3       9 GLL5        0.0000 
     45 CA         13.1070   36.4370   55.2325 C.3       3 GLC5        0.0000 
     46 CA         14.6670   34.6470   55.0240 C.3       9 GLL5        0.0000 
     47 CA         11.6698   34.5530   53.5807 C.3       3 GLC5        0.0000 
     48 CA         14.0190   34.0430   53.9270 C.3       9 GLL5        0.0000 
     49 CA          9.9800   35.1290   53.2540 C.3       6 GLP5        0.0000 
     50 CA         26.2100   37.7645   56.0547 C.3       3 GLC5        0.0000 
     51 CA         28.2660   35.0470   54.2733 C.3       3 GLC5        0.0000 
     52 CA         28.8890   33.2520   53.6640 C.3       6 GLP5        0.0000 
     53 CA         29.8665   36.2745   55.5010 C.3       3 GLC5        0.0000 
     54 CA         28.1570   36.5770   55.2860 C.3       9 GLL5        0.0000 
     55 CA         31.7180   36.4850   55.2550 C.3       6 GLP5        0.0000 
     56 CA         28.0532   34.2760   54.9642 C.3       3 GLC5        0.0000 
     57 CA         27.8730   35.5510   56.2080 C.3       9 GLL5        0.0000 
     58 CA         25.4424   37.1282   56.4567 C.3       3 GLC5        0.0000 
     59 CA         26.5620   35.0490   56.3210 C.3       9 GLL5        0.0000 
@<TRIPOS>BOND
@<TRIPOS>SUBSTRUCTURE
     1 ALC1        7 GROUP        1 X    ALC  0     ROOT ALC X 1
     2 ASC3        1 GROUP        1 X    ASC  0     **** ASC X 3
     3 GLC5       16 GROUP        1 X    GLC  0     **** GLC X 6
     4 ALP1        9 GROUP        1 Y    ALP  0     ROOT ALP Y 8
     5 ASP3        3 GROUP        1 Y    ASP  0     **** ASP Y 10
     6 GLP5       18 GROUP        1 Y    GLP  0     **** GLP Y 13
     7 ALL1        8 GROUP        1 Z    ALL  0     ROOT ALL Z 15
     8 ASL3        2 GROUP        1 Z    ASL  0     **** ASL Z 17
     9 GLL5       17 GROUP        1 Z    GLL  0     **** GLL Z 20
@<TRIPOS>SET

