#    Name: 4h3j_10W_2_ligand
#    Modification time : Tue Mar 25 00:16:26 2014

@<TRIPOS>MOLECULE
4h3j_10W_2_ligand
   53    57     1     0     0
SMALL
NO_CHARGES


@<TRIPOS>ATOM
      1 C1         21.6490   33.0690   57.3260 C.2       1 10W503      0.0000 
      2 N1         20.9970   33.9690   58.1560 N.am      1 10W503      0.0000 
      3 C2         21.0260   35.3370   57.9680 C.cat     1 10W503      0.0000 
      4 N2         21.5480   35.8670   56.8080 N.pl3     1 10W503      0.0000 
      5 N3         20.5500   36.1450   58.8870 N.pl3     1 10W503      0.0000 
      6 C3         20.2440   33.3650   59.2840 C.3       1 10W503      0.0000 
      7 O1         21.6320   31.8560   57.5020 O.2       1 10W503      0.0000 
      8 C4         22.4320   33.6780   56.1370 C.3       1 10W503      0.0000 
      9 C5         21.8710   35.0560   55.6350 C.3       1 10W503      0.0000 
     10 C6         23.0650   35.6480   54.9060 C.3       1 10W503      0.0000 
     11 N4         24.2050   35.0740   55.6320 N.3       1 10W503      0.0000 
     12 C7         23.8720   33.9450   56.5020 C.3       1 10W503      0.0000 
     13 C8         20.6560   34.7520   54.8400 C.2       1 10W503      0.0000 
     14 C9         20.5710   34.2080   53.5000 C.2       1 10W503      0.0000 
     15 C10        19.2530   34.0160   53.0600 C.2       1 10W503      0.0000 
     16 C11        18.2790   34.4140   54.0190 C.2       1 10W503      0.0000 
     17 S1         19.0800   34.9900   55.4070 S.3       1 10W503      0.0000 
     18 C12        16.8250   34.3040   53.9280 C.ar      1 10W503      0.0000 
     19 C13        16.0680   34.7610   55.0110 C.ar      1 10W503      0.0000 
     20 C14        14.6670   34.6470   55.0240 C.ar      1 10W503      0.0000 
     21 C15        14.0190   34.0430   53.9270 C.ar      1 10W503      0.0000 
     22 C16        14.7640   33.5570   52.8290 C.ar      1 10W503      0.0000 
     23 C17        16.1750   33.6820   52.8410 C.ar      1 10W503      0.0000 
     24 C18        13.9550   35.1550   56.1620 C.1       1 10W503      0.0000 
     25 N5         13.4050   35.5730   57.0910 N.1       1 10W503      0.0000 
     26 F1         12.7000   33.9110   53.8880 F         1 10W503      0.0000 
     27 C19        25.5010   35.5690   55.5160 C.ar      1 10W503      0.0000 
     28 C20        25.8060   36.6110   54.5880 C.ar      1 10W503      0.0000 
     29 C21        27.1290   37.1070   54.4790 C.ar      1 10W503      0.0000 
     30 C22        28.1570   36.5770   55.2860 C.ar      1 10W503      0.0000 
     31 C23        27.8730   35.5510   56.2080 C.ar      1 10W503      0.0000 
     32 C24        26.5620   35.0490   56.3210 C.ar      1 10W503      0.0000 
     33 H          21.7335   36.8885   56.7287 H         1 10W503      0.0000 
     34 H          20.1566   35.7082   59.6960 H         1 10W503      0.0000 
     35 H          20.6243   37.1234   58.6940 H         1 10W503      0.0000 
     36 H          22.4126   32.9986   55.3002 H         1 10W503      0.0000 
     37 H          23.0417   36.7079   54.9999 H         1 10W503      0.0000 
     38 H          23.0509   35.3250   53.8920 H         1 10W503      0.0000 
     39 H          24.4601   33.0904   56.2675 H         1 10W503      0.0000 
     40 H          23.9315   34.2179   57.5282 H         1 10W503      0.0000 
     41 H          21.3623   34.0043   52.9772 H         1 10W503      0.0000 
     42 H          19.0172   33.6491   52.1903 H         1 10W503      0.0000 
     43 H          16.5454   35.1922   55.8206 H         1 10W503      0.0000 
     44 H          14.2953   33.1233   52.0405 H         1 10W503      0.0000 
     45 H          16.7226   33.3191   52.0574 H         1 10W503      0.0000 
     46 H          25.0648   36.9966   54.0033 H         1 10W503      0.0000 
     47 H          27.3363   37.8532   53.8108 H         1 10W503      0.0000 
     48 H          29.1098   36.9388   55.2009 H         1 10W503      0.0000 
     49 H          28.6184   35.1706   56.7952 H         1 10W503      0.0000 
     50 H          26.3555   34.2978   56.9893 H         1 10W503      0.0000 
     51 H          20.8413   32.8404   59.8907 H         1 10W503      0.0000 
     52 H          19.7942   34.0601   59.8448 H         1 10W503      0.0000 
     53 H          19.5314   32.7412   58.9631 H         1 10W503      0.0000 
@<TRIPOS>BOND
     1    2    1 am   
     2    7    1 2    
     3    8    1 1    
     4    3    2 1    
     5    6    2 1    
     6    4    3 ar   
     7    5    3 ar   
     8    9    4 1    
     9   33    4 1    
    10   34    5 1    
    11   35    5 1    
    12   51    6 1    
    13   52    6 1    
    14   53    6 1    
    15    9    8 1    
    16   12    8 1    
    17   36    8 1    
    18   10    9 1    
    19   13    9 1    
    20   11   10 1    
    21   37   10 1    
    22   38   10 1    
    23   12   11 1    
    24   27   11 1    
    25   39   12 1    
    26   40   12 1    
    27   14   13 2    
    28   17   13 1    
    29   15   14 1    
    30   41   14 1    
    31   16   15 2    
    32   42   15 1    
    33   17   16 1    
    34   18   16 1    
    35   19   18 ar   
    36   23   18 ar   
    37   20   19 ar   
    38   43   19 1    
    39   21   20 ar   
    40   24   20 1    
    41   22   21 ar   
    42   26   21 1    
    43   23   22 ar   
    44   44   22 1    
    45   45   23 1    
    46   25   24 3    
    47   28   27 ar   
    48   32   27 ar   
    49   29   28 ar   
    50   46   28 1    
    51   30   29 ar   
    52   47   29 1    
    53   31   30 ar   
    54   48   30 1    
    55   32   31 ar   
    56   49   31 1    
    57   50   32 1    
@<TRIPOS>SUBSTRUCTURE
     1 10W503      1 GROUP   
@<TRIPOS>SET

