#    Name: 3r21_D36_1_INTS_M
#    Modification time : Tue Mar 25 10:28:16 2014

@<TRIPOS>MOLECULE
3r21_D36_1_INTS_M
   61     0     9     0     0
SMALL
NO_CHARGES


@<TRIPOS>ATOM
      1 CA          4.0955   36.4535   -1.7505 C.3       3 GLC5        0.0000 
      2 CA          3.1210   35.8630   -0.4390 C.3       9 GLL5        0.0000 
      3 CA          5.0700   37.0440   -3.0620 C.3       6 GLP5        0.0000 
      4 N           5.8635   35.5740    2.3655 N.am      2 SEC2        0.0000 
      5 N           4.7240   35.3070    1.4110 N.am      8 SEL2        0.0000 
      6 N           7.0030   35.8410    3.3200 N.am      5 SEP2        0.0000 
      7 CA          1.4955   30.1155    1.4670 C.3       3 GLC5        0.0000 
      8 CA          2.0710   31.7210    0.0600 C.3       9 GLL5        0.0000 
      9 CA          0.9200   28.5100    2.8740 C.3       6 GLP5        0.0000 
     10 O           3.2340   34.1990    7.2645 O.2       1 ALC1        0.0000 
     11 O           3.2960   32.9040    6.6580 O.2       7 ALL1        0.0000 
     12 O           3.1720   35.4940    7.8710 O.2       4 ALP1        0.0000 
     13 CA          2.2060   31.3525    5.9545 C.3       3 GLC5        0.0000 
     14 CA          3.2720   33.0160    5.3020 C.3       9 GLL5        0.0000 
     15 CA          1.1400   29.6890    6.6070 C.3       6 GLP5        0.0000 
     16 N           3.5515   33.0850    9.6650 N.am      2 SEC2        0.0000 
     17 N           3.8090   31.9770    8.7910 N.am      8 SEL2        0.0000 
     18 N           3.2940   34.1930   10.5390 N.am      5 SEP2        0.0000 
     19 CA          2.5485   30.8385    7.0170 C.3       3 GLC5        0.0000 
     20 CA          3.9570   31.9880    7.4270 C.3       9 GLL5        0.0000 
     21 CA          4.5910   33.7105    8.6130 C.3       3 GLC5        0.0000 
     22 CA          5.2250   35.4330    9.7990 C.3       6 GLP5        0.0000 
     23 CA          5.4335   33.0560    7.3150 C.3       3 GLC5        0.0000 
     24 CA          6.9100   34.1240    7.2030 C.3       6 GLP5        0.0000 
     25 CA          3.2855   29.9220    7.0765 C.3       3 GLC5        0.0000 
     26 CA          5.4310   30.1550    7.5460 C.3       9 GLL5        0.0000 
     27 CA          7.9270   31.0795    7.1475 C.3       3 GLC5        0.0000 
     28 CA          7.9140   29.6720    5.5530 C.3       9 GLL5        0.0000 
     29 CA          7.9400   32.4870    8.7420 C.3       6 GLP5        0.0000 
     30 CA          3.6010   28.4515    4.6650 C.3       3 GLC5        0.0000 
     31 CA          5.7660   28.2610    5.0200 C.3       9 GLL5        0.0000 
     32 CA          1.4360   28.6420    4.3100 C.3       6 GLP5        0.0000 
     33 CA          3.2770   31.8630   10.7470 C.3       3 GLC5        0.0000 
     34 CA          4.4690   31.0760    9.5290 C.3       9 GLL5        0.0000 
     35 CA          2.0850   32.6500   11.9650 C.3       6 GLP5        0.0000 
     36 CA          4.8470   33.2545    9.6640 C.3       3 GLC5        0.0000 
     37 CA          0.9690   32.1245    4.7585 C.3       3 GLC5        0.0000 
     38 CA          2.2920   33.8700    4.7730 C.3       9 GLL5        0.0000 
     39 CA         -0.3540   30.3790    4.7440 C.3       6 GLP5        0.0000 
     40 CA          4.1910   34.5710    3.6535 C.3       3 GLC5        0.0000 
     41 CA          2.9740   33.4980    2.5600 C.3       9 GLL5        0.0000 
     42 CA          4.8960   36.0910    4.5140 C.3       6 GLP5        0.0000 
     43 CA          6.1198   32.8740    3.2207 C.3       3 GLC5        0.0000 
     44 CA          3.9980   32.6040    3.0260 C.3       9 GLL5        0.0000 
     45 CA          8.1630   33.2590    2.7220 C.3       6 GLP5        0.0000 
     46 CA          5.3117   33.4095    6.0302 C.3       3 GLC5        0.0000 
     47 CA          8.0397   31.5113    3.1458 C.3       3 GLC5        0.0000 
     48 CA          7.7600   30.2560    4.1360 C.3       9 GLL5        0.0000 
     49 CA          5.6204   26.3837    5.4464 C.3       3 GLC5        0.0000 
     50 CA          6.3550   27.5440    3.8110 C.3       9 GLL5        0.0000 
     51 CA          4.9020   24.7760    6.2280 C.3       6 GLP5        0.0000 
     52 CA          5.0394   27.4869    2.7295 C.3       3 GLC5        0.0000 
     53 CA          3.9200   26.8220    1.3240 C.3       6 GLP5        0.0000 
     54 CA          3.5770   29.7155    9.9373 C.3       3 GLC5        0.0000 
     55 CA          5.3090   30.1340    8.9000 C.3       9 GLL5        0.0000 
     56 CA          2.2650   28.8260   10.6600 C.3       6 GLP5        0.0000 
     57 CA          6.1885   30.6855   10.7257 C.3       3 GLC5        0.0000 
     58 CA          7.4880   30.7660   12.2370 C.3       6 GLP5        0.0000 
     59 CA          6.4298   31.5486    8.8090 C.3       3 GLC5        0.0000 
     60 CA          3.9494   34.6868    4.6646 C.3       3 GLC5        0.0000 
     61 CA          4.1550   32.3740    4.4130 C.3       9 GLL5        0.0000 
@<TRIPOS>BOND
@<TRIPOS>SUBSTRUCTURE
     1 ALC1       10 GROUP        1 X    ALC  0     ROOT ALC X 1
     2 SEC2        4 GROUP        1 X    SEC  0     **** SEC X 2
     3 GLC5        1 GROUP        1 X    GLC  0     **** GLC X 6
     4 ALP1       12 GROUP        1 Y    ALP  0     ROOT ALP Y 8
     5 SEP2        6 GROUP        1 Y    SEP  0     **** SEP Y 9
     6 GLP5        3 GROUP        1 Y    GLP  0     **** GLP Y 13
     7 ALL1       11 GROUP        1 Z    ALL  0     ROOT ALL Z 15
     8 SEL2        5 GROUP        1 Z    SEL  0     **** SEL Z 16
     9 GLL5        2 GROUP        1 Z    GLL  0     **** GLL Z 20
@<TRIPOS>SET

