#    Name: 3r21_D36_1_ligand
#    Modification time : Tue Mar 25 10:28:16 2014

@<TRIPOS>MOLECULE
3r21_D36_1_ligand
   60    63     1     0     0
SMALL
NO_CHARGES


@<TRIPOS>ATOM
      1 S           3.8050   34.6550    0.4860 S.o2      1 D361        0.0000 
      2 C1          3.1210   35.8630   -0.4390 C.3       1 D361        0.0000 
      3 N1          2.7750   33.7570    1.1990 N.pl3     1 D361        0.0000 
      4 O1          4.7240   35.3070    1.4110 O.2       1 D361        0.0000 
      5 C2          1.6330   33.1370    0.4900 C.3       1 D361        0.0000 
      6 N2          1.5950   31.3110   -1.2840 N.4       1 D361        0.0000 
      7 O2          4.6400   33.8240   -0.3130 O.2       1 D361        0.0000 
      8 C3          2.0710   31.7210    0.0600 C.3       1 D361        0.0000 
      9 N3          3.2960   32.9040    6.6580 N.pl3     1 D361        0.0000 
     10 C4          2.9740   33.4980    2.5600 C.ar      1 D361        0.0000 
     11 N4          4.7670   31.0750    6.8340 N.ar      1 D361        0.0000 
     12 C5          3.9980   32.6040    3.0260 C.ar      1 D361        0.0000 
     13 N5          6.2870   29.1630    7.2700 N.pl3     1 D361        0.0000 
     14 C6          4.1550   32.3740    4.4130 C.ar      1 D361        0.0000 
     15 N6          6.7390   28.5080    8.4310 N.2       1 D361        0.0000 
     16 C7          3.2720   33.0160    5.3020 C.ar      1 D361        0.0000 
     17 N7          3.8090   31.9770    8.7910 N.ar      1 D361        0.0000 
     18 C8          3.9570   31.9880    7.4270 C.ar      1 D361        0.0000 
     19 N8          2.1660   34.1140    3.4460 N.ar      1 D361        0.0000 
     20 C9          5.4310   30.1550    7.5460 C.ar      1 D361        0.0000 
     21 C10         6.8790   28.6170    6.0170 C.3       1 D361        0.0000 
     22 C11         7.9140   29.6720    5.5530 C.3       1 D361        0.0000 
     23 C12         7.7600   30.2560    4.1360 C.3       1 D361        0.0000 
     24 C13         8.0730   29.2710    3.0030 C.3       1 D361        0.0000 
     25 C14         6.7480   28.5410    2.6890 C.3       1 D361        0.0000 
     26 C15         6.3550   27.5440    3.8110 C.3       1 D361        0.0000 
     27 C16         5.7660   28.2610    5.0200 C.3       1 D361        0.0000 
     28 C17         6.1200   29.0930    9.4840 C.2       1 D361        0.0000 
     29 C18         5.3090   30.1340    8.9000 C.ar      1 D361        0.0000 
     30 C19         4.4690   31.0760    9.5290 C.ar      1 D361        0.0000 
     31 C20         2.2920   33.8700    4.7730 C.ar      1 D361        0.0000 
     32 H           1.3769   33.6980   -0.3946 H         1 D361        0.0000 
     33 H           0.7776   33.0465    1.1404 H         1 D361        0.0000 
     34 H           1.7090   31.0075    0.8267 H         1 D361        0.0000 
     35 H           3.1778   31.6823    0.1007 H         1 D361        0.0000 
     36 H           2.7063   33.6478    7.2096 H         1 D361        0.0000 
     37 H           4.6029   32.1429    2.3529 H         1 D361        0.0000 
     38 H           4.8837   31.7636    4.7541 H         1 D361        0.0000 
     39 H           7.4279   27.7118    6.2799 H         1 D361        0.0000 
     40 H           8.9321   29.2225    5.6417 H         1 D361        0.0000 
     41 H           7.9042   30.5143    6.2858 H         1 D361        0.0000 
     42 H           8.4234   31.1322    4.0415 H         1 D361        0.0000 
     43 H           6.7265   30.6225    4.0159 H         1 D361        0.0000 
     44 H           8.7980   28.5606    3.3320 H         1 D361        0.0000 
     45 H           8.3948   29.8061    2.1378 H         1 D361        0.0000 
     46 H           6.8552   27.9938    1.7535 H         1 D361        0.0000 
     47 H           5.9529   29.2770    2.5777 H         1 D361        0.0000 
     48 H           7.2452   26.9907    4.1108 H         1 D361        0.0000 
     49 H           5.6246   26.8409    3.4101 H         1 D361        0.0000 
     50 H           5.2739   29.1729    4.6974 H         1 D361        0.0000 
     51 H           5.0446   27.6148    5.5097 H         1 D361        0.0000 
     52 H           6.1688   28.9090   10.3874 H         1 D361        0.0000 
     53 H           4.3848   31.0443   10.5580 H         1 D361        0.0000 
     54 H           1.6352   34.3320    5.4539 H         1 D361        0.0000 
     55 H           3.8154   36.4233   -0.8905 H         1 D361        0.0000 
     56 H           2.5313   35.4925   -1.1566 H         1 D361        0.0000 
     57 H           2.5595   36.4800    0.1123 H         1 D361        0.0000 
     58 H           1.9280   31.9254   -1.9993 H         1 D361        0.0000 
     59 H           1.9030   30.3899   -1.5220 H         1 D361        0.0000 
     60 H           0.5966   31.3098   -1.3400 H         1 D361        0.0000 
@<TRIPOS>BOND
     1    2    1 1    
     2    3    1 1    
     3    4    1 2    
     4    7    1 2    
     5   55    2 1    
     6   56    2 1    
     7   57    2 1    
     8    5    3 1    
     9   10    3 1    
    10    8    5 1    
    11   32    5 1    
    12   33    5 1    
    13    8    6 1    
    14   58    6 1    
    15   59    6 1    
    16   60    6 1    
    17   34    8 1    
    18   35    8 1    
    19   16    9 1    
    20   18    9 1    
    21   36    9 1    
    22   12   10 ar   
    23   19   10 ar   
    24   18   11 ar   
    25   20   11 ar   
    26   14   12 ar   
    27   37   12 1    
    28   15   13 1    
    29   20   13 1    
    30   21   13 1    
    31   16   14 ar   
    32   38   14 1    
    33   28   15 2    
    34   31   16 ar   
    35   18   17 ar   
    36   30   17 ar   
    37   31   19 ar   
    38   29   20 ar   
    39   22   21 1    
    40   27   21 1    
    41   39   21 1    
    42   23   22 1    
    43   40   22 1    
    44   41   22 1    
    45   24   23 1    
    46   42   23 1    
    47   43   23 1    
    48   25   24 1    
    49   44   24 1    
    50   45   24 1    
    51   26   25 1    
    52   46   25 1    
    53   47   25 1    
    54   27   26 1    
    55   48   26 1    
    56   49   26 1    
    57   50   27 1    
    58   51   27 1    
    59   29   28 1    
    60   52   28 1    
    61   30   29 ar   
    62   53   30 1    
    63   54   31 1    
@<TRIPOS>SUBSTRUCTURE
     1 D361        1 GROUP   
@<TRIPOS>SET

