#    Name: 2doo_C4H_1_INTS_M
#    Modification time : Tue Mar 25 10:10:08 2014

@<TRIPOS>MOLECULE
2doo_C4H_1_INTS_M
   60     0     6     0     0
SMALL
NO_CHARGES


@<TRIPOS>ATOM
      1 CA         29.1625   43.2575   31.6920 C.3       2 GLC5        0.0000 
      2 CA         28.8450   44.6830   32.9420 C.3       6 GLL5        0.0000 
      3 CA         29.4800   41.8320   30.4420 C.3       4 GLP5        0.0000 
      4 CA         28.2575   47.4160   32.7280 C.3       2 GLC5        0.0000 
      5 CA         30.2050   46.9530   32.6940 C.3       6 GLL5        0.0000 
      6 CA         26.3100   47.8790   32.7620 C.3       4 GLP5        0.0000 
      7 CA         27.6500   47.8185   31.7865 C.3       2 GLC5        0.0000 
      8 CA         28.9900   47.7580   30.8110 C.3       6 GLL5        0.0000 
      9 CA         29.2695   49.8950   30.6830 C.3       2 GLC5        0.0000 
     10 CA         29.5490   52.0320   30.5550 C.3       4 GLP5        0.0000 
     11 CA         28.5045   47.2915   29.1640 C.3       2 GLC5        0.0000 
     12 CA         28.0190   46.8250   27.5170 C.3       4 GLP5        0.0000 
     13 CA         31.6795   47.1350   29.6670 C.3       2 GLC5        0.0000 
     14 CA         30.3060   46.1350   30.4870 C.3       6 GLL5        0.0000 
     15 CA         33.0530   48.1350   28.8470 C.3       4 GLP5        0.0000 
     16 CA         30.1695   45.7855   28.6270 C.3       2 GLC5        0.0000 
     17 CA         30.0330   45.4360   26.7670 C.3       4 GLP5        0.0000 
     18 CA         29.8930   43.9835   30.4645 C.3       2 GLC5        0.0000 
     19 CA         28.0750   41.9685   36.4150 C.3       2 GLC5        0.0000 
     20 CA         28.4680   43.6060   35.1070 C.3       6 GLL5        0.0000 
     21 CA         27.6820   40.3310   37.7230 C.3       4 GLP5        0.0000 
     22 CA         28.4705   42.2350   32.4705 C.3       2 GLC5        0.0000 
     23 CA         28.3030   43.6310   33.7190 C.3       6 GLL5        0.0000 
     24 CA         28.6380   40.8390   31.2220 C.3       4 GLP5        0.0000 
     25 Zn         30.1475   42.9305   42.2005 Zn        1 ZIC7        0.0000 
     26 Zn         30.8320   44.4080   37.9770 Zn        5 ZIL7        0.0000 
     27 Zn         29.4630   41.4530   46.4240 Zn        3 ZIP7        0.0000 
     28 Zn         31.0390   44.3390   41.3890 Zn        1 ZIC7        0.0000 
     29 Zn         31.2460   44.2700   44.8010 Zn        3 ZIP7        0.0000 
     30 CA         32.4550   43.7550   35.3860 C.3       2 GLC5        0.0000 
     31 CA         31.8760   43.8390   37.0940 C.3       6 GLL5        0.0000 
     32 CA         33.0340   43.6710   33.6780 C.3       4 GLP5        0.0000 
     33 CA         31.8045   45.5315   38.5430 C.3       2 GLC5        0.0000 
     34 CA         31.7330   47.2240   39.9920 C.3       4 GLP5        0.0000 
     35 CA         32.8705   41.7830   36.0350 C.3       2 GLC5        0.0000 
     36 CA         32.5270   42.5660   37.7580 C.3       6 GLL5        0.0000 
     37 CA         33.2140   41.0000   34.3120 C.3       4 GLP5        0.0000 
     38 CA         32.1465   44.2055   40.5395 C.3       2 GLC5        0.0000 
     39 CA         33.0550   42.9310   39.2220 C.3       6 GLL5        0.0000 
     40 CA         31.2380   45.4800   41.8570 C.3       4 GLP5        0.0000 
     41 CA         35.1910   40.7060   39.5985 C.3       2 GLC5        0.0000 
     42 CA         33.7680   41.7850   39.9060 C.3       6 GLL5        0.0000 
     43 CA         36.6140   39.6270   39.2910 C.3       4 GLP5        0.0000 
     44 CA         28.6500   41.8025   45.2485 C.3       2 GLC5        0.0000 
     45 CA         30.6760   41.9520   44.8060 C.3       6 GLL5        0.0000 
     46 CA         26.6240   41.6530   45.6910 C.3       4 GLP5        0.0000 
     47 CA         30.0995   43.6095   45.3005 C.3       2 GLC5        0.0000 
     48 CA         29.5230   45.2670   45.7950 C.3       4 GLP5        0.0000 
     49 CA         27.7680   46.5613   32.9843 C.3       2 GLC5        0.0000 
     50 CA         29.6070   45.8040   33.4710 C.3       6 GLL5        0.0000 
     51 CA         30.2293   49.1183   36.0315 C.3       2 GLC5        0.0000 
     52 CA         30.5070   46.8380   35.5810 C.3       6 GLL5        0.0000 
     53 CA         29.6710   50.8600   36.8500 C.3       4 GLP5        0.0000 
     54 CA         26.5925   43.7892   34.1634 C.3       2 GLC5        0.0000 
     55 CA         24.6640   43.6970   34.1080 C.3       4 GLP5        0.0000 
     56 CA         34.6812   43.8860   39.4390 C.3       2 GLC5        0.0000 
     57 CA         35.9510   45.4140   39.3140 C.3       4 GLP5        0.0000 
     58 CA         31.0188   40.4412   46.5060 C.3       2 GLC5        0.0000 
     59 CA         32.1730   40.9190   44.6920 C.3       6 GLL5        0.0000 
     60 CA         30.6130   39.4470   48.2630 C.3       4 GLP5        0.0000 
@<TRIPOS>BOND
@<TRIPOS>SUBSTRUCTURE
     1 ZIC7       25 GROUP        1 X    ZIC  0     ROOT ZIC X 5
     2 GLC5        1 GROUP        1 X    GLC  0     **** GLC X 6
     3 ZIP7       27 GROUP        1 Y    ZIP  0     ROOT ZIP Y 12
     4 GLP5        3 GROUP        1 Y    GLP  0     **** GLP Y 13
     5 ZIL7       26 GROUP        1 Z    ZIL  0     ROOT ZIL Z 19
     6 GLL5        2 GROUP        1 Z    GLL  0     **** GLL Z 20
@<TRIPOS>SET

