#    Name: 2doo_C4H_1_ligand
#    Modification time : Tue Mar 25 10:10:08 2014

@<TRIPOS>MOLECULE
2doo_C4H_1_ligand
   53    54     1     0     0
SMALL
NO_CHARGES


@<TRIPOS>ATOM
      1 C1         29.6070   45.8040   33.4710 C.ar      1 C4H601      0.0000 
      2 C2         28.8450   44.6830   32.9420 C.ar      1 C4H601      0.0000 
      3 C3         30.2050   46.9530   32.6940 C.ar      1 C4H601      0.0000 
      4 N4         30.1240   47.1320   31.1460 N.3       1 C4H601      0.0000 
      5 C5         28.9900   47.7580   30.8110 C.3       1 C4H601      0.0000 
      6 C6         30.3060   46.1350   30.4870 C.3       1 C4H601      0.0000 
      7 C7         30.9150   47.9550   33.4300 C.ar      1 C4H601      0.0000 
      8 C8         31.0680   47.9150   34.8450 C.ar      1 C4H601      0.0000 
      9 C9         30.5070   46.8380   35.5810 C.ar      1 C4H601      0.0000 
     10 C10        29.7670   45.7720   34.9400 C.ar      1 C4H601      0.0000 
     11 C11        29.2020   44.6540   35.7550 C.ar      1 C4H601      0.0000 
     12 C12        28.4680   43.6060   35.1070 C.ar      1 C4H601      0.0000 
     13 C13        28.3030   43.6310   33.7190 C.ar      1 C4H601      0.0000 
     14 S14        29.4140   44.6000   37.5190 S.o2      1 C4H601      0.0000 
     15 N15        30.8320   44.4080   37.9770 N.pl3     1 C4H601      0.0000 
     16 C16        31.8760   43.8390   37.0940 C.3       1 C4H601      0.0000 
     17 C17        32.5270   42.5660   37.7580 C.3       1 C4H601      0.0000 
     18 C18        33.0550   42.9310   39.2220 C.3       1 C4H601      0.0000 
     19 C19        33.7680   41.7850   39.9060 C.3       1 C4H601      0.0000 
     20 N20        33.9520   42.0030   41.3800 N.am      1 C4H601      0.0000 
     21 C21        33.1670   41.1300   42.3080 C.2       1 C4H601      0.0000 
     22 O22        32.4080   40.2780   41.8450 O.2       1 C4H601      0.0000 
     23 C23        33.3510   41.3770   43.8440 C.3       1 C4H601      0.0000 
     24 C24        32.1730   40.9190   44.6920 C.3       1 C4H601      0.0000 
     25 S25        30.6760   41.9520   44.8060 S.3       1 C4H601      0.0000 
     26 O26        28.5580   43.5070   38.1010 O.2       1 C4H601      0.0000 
     27 O27        29.0090   45.9080   38.0760 O.2       1 C4H601      0.0000 
     28 H          28.6939   44.6670   31.9030 H         1 C4H601      0.0000 
     29 H          31.3360   48.7450   32.9054 H         1 C4H601      0.0000 
     30 H          31.5753   48.6527   35.3232 H         1 C4H601      0.0000 
     31 H          30.6239   46.8039   36.6028 H         1 C4H601      0.0000 
     32 H          28.0751   42.8542   35.6697 H         1 C4H601      0.0000 
     33 H          27.7820   42.8785   33.2487 H         1 C4H601      0.0000 
     34 H          31.0727   44.6790   38.9209 H         1 C4H601      0.0000 
     35 H          32.6741   44.5564   36.9158 H         1 C4H601      0.0000 
     36 H          31.4572   43.5290   36.1390 H         1 C4H601      0.0000 
     37 H          33.3612   42.2459   37.1673 H         1 C4H601      0.0000 
     38 H          31.7879   41.7958   37.8469 H         1 C4H601      0.0000 
     39 H          32.1862   43.2455   39.8082 H         1 C4H601      0.0000 
     40 H          33.7244   43.7903   39.1176 H         1 C4H601      0.0000 
     41 H          34.7529   41.6416   39.4310 H         1 C4H601      0.0000 
     42 H          33.1946   40.8574   39.7415 H         1 C4H601      0.0000 
     43 H          34.5580   42.6852   41.7163 H         1 C4H601      0.0000 
     44 H          33.5199   42.4528   43.9956 H         1 C4H601      0.0000 
     45 H          34.2631   40.8529   44.1639 H         1 C4H601      0.0000 
     46 H          32.4349   40.7896   45.7601 H         1 C4H601      0.0000 
     47 H          31.7501   39.9521   44.3566 H         1 C4H601      0.0000 
     48 H          28.9285   48.6643   31.2292 H         1 C4H601      0.0000 
     49 H          28.9145   47.8859   29.8221 H         1 C4H601      0.0000 
     50 H          28.1826   47.2452   31.1027 H         1 C4H601      0.0000 
     51 H          31.2112   45.7423   30.6498 H         1 C4H601      0.0000 
     52 H          29.6357   45.4234   30.6972 H         1 C4H601      0.0000 
     53 H          30.2389   46.3204   29.5066 H         1 C4H601      0.0000 
@<TRIPOS>BOND
     1    2    1 ar   
     2    3    1 ar   
     3   10    1 ar   
     4   13    2 ar   
     5   28    2 1    
     6    4    3 1    
     7    7    3 ar   
     8    5    4 1    
     9    6    4 1    
    10   48    5 1    
    11   49    5 1    
    12   50    5 1    
    13   51    6 1    
    14   52    6 1    
    15   53    6 1    
    16    8    7 ar   
    17   29    7 1    
    18    9    8 ar   
    19   30    8 1    
    20   10    9 ar   
    21   31    9 1    
    22   11   10 ar   
    23   12   11 ar   
    24   14   11 1    
    25   13   12 ar   
    26   32   12 1    
    27   33   13 1    
    28   15   14 1    
    29   26   14 2    
    30   27   14 2    
    31   16   15 1    
    32   34   15 1    
    33   17   16 1    
    34   35   16 1    
    35   36   16 1    
    36   18   17 1    
    37   37   17 1    
    38   38   17 1    
    39   19   18 1    
    40   39   18 1    
    41   40   18 1    
    42   20   19 1    
    43   41   19 1    
    44   42   19 1    
    45   21   20 am   
    46   43   20 1    
    47   22   21 2    
    48   23   21 1    
    49   24   23 1    
    50   44   23 1    
    51   45   23 1    
    52   25   24 1    
    53   46   24 1    
    54   47   24 1    
@<TRIPOS>SUBSTRUCTURE
     1 C4H601      1 GROUP   
@<TRIPOS>SET

