#    Name: 1rx5_DDF_1_INTS_M
#    Modification time : Tue Mar 25 01:26:01 2014

@<TRIPOS>MOLECULE
1rx5_DDF_1_INTS_M
   61     0    12     0     0
SMALL
NO_CHARGES


@<TRIPOS>ATOM
      1 O          31.5630   37.6390   12.4250 O.2       1 ALC1        0.0000 
      2 O          30.3840   38.6640   12.5810 O.2       9 ALL1        0.0000 
      3 O          32.7420   36.6140   12.2690 O.2       5 ALP1        0.0000 
      4 N          33.2655   39.0635   12.0885 N.am      2 SEC2        0.0000 
      5 N          32.1950   39.9680   12.1820 N.am     10 SEL2        0.0000 
      6 N          34.3360   38.1590   11.9950 N.am      6 SEP2        0.0000 
      7 CA         32.6375   41.1265   13.6300 C.3       4 GLC5        0.0000 
      8 CA         31.8750   42.3210   11.9830 C.3      12 GLL5        0.0000 
      9 CA         33.4000   39.9320   15.2770 C.3       8 GLP5        0.0000 
     10 CA         28.4400   45.0550   11.2160 C.3       4 GLC5        0.0000 
     11 CA         30.1010   44.3710   12.1830 C.3      12 GLL5        0.0000 
     12 CA         26.7790   45.7390   10.2490 C.3       8 GLP5        0.0000 
     13 O          28.3960   42.8750   12.9915 O.2       1 ALC1        0.0000 
     14 O          29.6210   43.1130   12.2240 O.2       9 ALL1        0.0000 
     15 O          27.1710   42.6370   13.7590 O.2       5 ALP1        0.0000 
     16 CA         29.7020   41.6735   13.7845 C.3       4 GLC5        0.0000 
     17 CA         30.5380   42.1340   12.2030 C.3      12 GLL5        0.0000 
     18 CA         28.8660   41.2130   15.3660 C.3       8 GLP5        0.0000 
     19 CA         29.5680   46.2700    9.3265 C.3       4 GLC5        0.0000 
     20 CA         31.4300   45.4810   10.2950 C.3      12 GLL5        0.0000 
     21 CA         27.7060   47.0590    8.3580 C.3       8 GLP5        0.0000 
     22 CA         33.7730   46.3715    5.3090 C.3       4 GLC5        0.0000 
     23 CA         34.5210   44.5750    6.2340 C.3      12 GLL5        0.0000 
     24 CA         33.0250   48.1680    4.3840 C.3       8 GLP5        0.0000 
     25 N          33.9825   43.7710    1.9010 N.am      2 SEC2        0.0000 
     26 N          34.5150   43.2620    3.3600 N.am     10 SEL2        0.0000 
     27 N          33.4500   44.2800    0.4420 N.am      6 SEP2        0.0000 
     28 CA         31.6325   43.2850    2.7130 C.3       4 GLC5        0.0000 
     29 CA         32.8360   41.4870    2.6490 C.3      12 GLL5        0.0000 
     30 CA         30.4290   45.0830    2.7770 C.3       8 GLP5        0.0000 
     31 CA         34.3345   39.0560    4.6890 C.3       4 GLC5        0.0000 
     32 CA         33.7790   40.3150    3.0600 C.3      12 GLL5        0.0000 
     33 CA         34.8900   37.7970    6.3180 C.3       8 GLP5        0.0000 
     34 NZ         29.1340   41.2545    3.0375 N.4       3 LYC4        0.0000 
     35 NZ         30.5020   41.0600    3.1340 N.4      11 LYL4        0.0000 
     36 NZ         27.5700   42.0330    1.7660 N.4       7 LYP4        0.0000 
     37 N          29.1340   41.2545    3.0375 N.am      2 SEC2        0.0000 
     38 N          30.5020   41.0600    3.1340 N.am     10 SEL2        0.0000 
     39 N          27.7660   41.4490    2.9410 N.am      6 SEP2        0.0000 
     40 N          29.5270   41.5175    1.9980 N.am      2 SEC2        0.0000 
     41 N          28.5520   41.9750    0.8620 N.am      6 SEP2        0.0000 
     42 NZ         30.7550   39.9530    0.3115 N.4       3 LYC4        0.0000 
     43 NZ         31.1160   41.1010    1.0460 N.4      11 LYL4        0.0000 
     44 NZ         30.3940   38.8050   -0.4230 N.4       7 LYP4        0.0000 
     45 NZ         29.5270   41.5175    1.9980 N.4       3 LYC4        0.0000 
     46 N          29.8340   41.5380    0.9540 N.am      2 SEC2        0.0000 
     47 N          31.1160   41.1010    1.0460 N.am     10 SEL2        0.0000 
     48 CA         33.1105   47.2155   10.2877 C.3       4 GLC5        0.0000 
     49 CA         32.8620   45.4830    9.6440 C.3      12 GLL5        0.0000 
     50 CA         34.0750   48.9490   10.6060 C.3       8 GLP5        0.0000 
     51 CA         31.6625   47.4635   10.1297 C.3       4 GLC5        0.0000 
     52 CA         31.1790   49.4450   10.2900 C.3       8 GLP5        0.0000 
     53 CA         31.9095   46.8095    8.3287 C.3       4 GLC5        0.0000 
     54 CA         31.6730   48.1370    6.6880 C.3       8 GLP5        0.0000 
     55 CA         33.9282   41.8858    6.6105 C.3       4 GLC5        0.0000 
     56 CA         32.3860   43.5810    6.3070 C.3      12 GLL5        0.0000 
     57 CA         34.8870   40.0930    7.2830 C.3       8 GLP5        0.0000 
     58 CA         31.6992   44.3808    4.3575 C.3       4 GLC5        0.0000 
     59 CA         33.5530   43.7760    5.5690 C.3      12 GLL5        0.0000 
     60 CA         32.2801   46.3362    7.2120 C.3       4 GLC5        0.0000 
     61 CA         33.0390   44.8500    8.2220 C.3      12 GLL5        0.0000 
@<TRIPOS>BOND
@<TRIPOS>SUBSTRUCTURE
     1 ALC1        1 GROUP        1 X    ALC  0     ROOT ALC X 1
     2 SEC2        4 GROUP        1 X    SEC  0     **** SEC X 2
     3 LYC4       34 GROUP        1 X    LYC  0     **** LYC X 4
     4 GLC5        7 GROUP        1 X    GLC  0     **** GLC X 6
     5 ALP1        3 GROUP        1 Y    ALP  0     ROOT ALP Y 8
     6 SEP2        6 GROUP        1 Y    SEP  0     **** SEP Y 9
     7 LYP4       36 GROUP        1 Y    LYP  0     **** LYP Y 11
     8 GLP5        9 GROUP        1 Y    GLP  0     **** GLP Y 13
     9 ALL1        2 GROUP        1 Z    ALL  0     ROOT ALL Z 15
    10 SEL2        5 GROUP        1 Z    SEL  0     **** SEL Z 16
    11 LYL4       35 GROUP        1 Z    LYL  0     **** LYL Z 18
    12 GLL5        8 GROUP        1 Z    GLL  0     **** GLL Z 20
@<TRIPOS>SET

