#    Name: 1rx5_DDF_1_ligand
#    Modification time : Tue Mar 25 01:26:01 2014

@<TRIPOS>MOLECULE
1rx5_DDF_1_ligand
   55    57     1     0     0
SMALL
NO_CHARGES


@<TRIPOS>ATOM
      1 N1         29.9880   40.9130   12.4290 N.pl3     1 DDF161      0.0000 
      2 C2         30.7960   39.8420   12.4120 C.2       1 DDF161      0.0000 
      3 NA2        30.3840   38.6640   12.5810 N.pl3     1 DDF161      0.0000 
      4 N3         32.1950   39.9680   12.1820 N.2       1 DDF161      0.0000 
      5 C4         32.7940   41.1540   11.9670 C.2       1 DDF161      0.0000 
      6 O4         34.0050   41.2180   11.7830 O.2       1 DDF161      0.0000 
      7 C4A        31.8750   42.3210   11.9830 C.2       1 DDF161      0.0000 
      8 C5         32.4200   43.6100   11.6260 C.3       1 DDF161      0.0000 
      9 C6         31.3590   44.5820   11.5060 C.3       1 DDF161      0.0000 
     10 C7         30.1010   44.3710   12.1830 C.3       1 DDF161      0.0000 
     11 N8         29.6210   43.1130   12.2240 N.pl3     1 DDF161      0.0000 
     12 C8A        30.5380   42.1340   12.2030 C.2       1 DDF161      0.0000 
     13 C9         31.4300   45.4810   10.2950 C.3       1 DDF161      0.0000 
     14 C10        32.8620   45.4830    9.6440 C.3       1 DDF161      0.0000 
     15 C11        33.5530   43.7760    5.5690 C.ar      1 DDF161      0.0000 
     16 C12        34.5210   44.5750    6.2340 C.ar      1 DDF161      0.0000 
     17 C13        34.2880   45.0960    7.5160 C.ar      1 DDF161      0.0000 
     18 C14        33.0390   44.8500    8.2220 C.ar      1 DDF161      0.0000 
     19 C15        32.1110   44.0980    7.6030 C.ar      1 DDF161      0.0000 
     20 C16        32.3860   43.5810    6.3070 C.ar      1 DDF161      0.0000 
     21 C          33.6410   43.1240    4.2160 C.2       1 DDF161      0.0000 
     22 O          34.5150   43.2620    3.3600 O.2       1 DDF161      0.0000 
     23 N          32.7660   42.2280    3.9220 N.am      1 DDF161      0.0000 
     24 CA         32.8360   41.4870    2.6490 C.3       1 DDF161      0.0000 
     25 CB         33.7790   40.3150    3.0600 C.3       1 DDF161      0.0000 
     26 CG         34.8700   39.8320    1.9660 C.3       1 DDF161      0.0000 
     27 CD         34.6800   38.3020    1.8360 C.2       1 DDF161      0.0000 
     28 OE1        33.5940   37.9550    2.4000 O.co2     1 DDF161      0.0000 
     29 OE2        35.4930   37.5440    1.2720 O.co2     1 DDF161      0.0000 
     30 CT         31.3920   41.1150    2.2650 C.2       1 DDF161      0.0000 
     31 O1         30.5020   41.0600    3.1340 O.co2     1 DDF161      0.0000 
     32 O2         31.1160   41.1010    1.0460 O.co2     1 DDF161      0.0000 
     33 H          28.9786   40.8200   12.6076 H         1 DDF161      0.0000 
     34 H          31.0696   37.9413   12.4935 H         1 DDF161      0.0000 
     35 H          29.4105   38.5636   12.7866 H         1 DDF161      0.0000 
     36 H          32.9734   43.5352   10.6730 H         1 DDF161      0.0000 
     37 H          33.1475   43.9371   12.3901 H         1 DDF161      0.0000 
     38 H          31.8642   45.4642   12.3488 H         1 DDF161      0.0000 
     39 H          29.3375   45.0901   11.7178 H         1 DDF161      0.0000 
     40 H          30.2029   44.8095   13.2384 H         1 DDF161      0.0000 
     41 H          28.6240   42.9201   12.2682 H         1 DDF161      0.0000 
     42 H          31.1885   46.5086   10.5720 H         1 DDF161      0.0000 
     43 H          30.7194   45.1499    9.5358 H         1 DDF161      0.0000 
     44 H          33.5580   44.9655   10.3441 H         1 DDF161      0.0000 
     45 H          33.2183   46.5383    9.6017 H         1 DDF161      0.0000 
     46 H          35.4148   44.7729    5.7568 H         1 DDF161      0.0000 
     47 H          35.0007   45.6664    7.9857 H         1 DDF161      0.0000 
     48 H          31.2044   43.8801    8.0315 H         1 DDF161      0.0000 
     49 H          31.6165   42.9863    5.8645 H         1 DDF161      0.0000 
     50 H          31.9667   41.9623    4.5354 H         1 DDF161      0.0000 
     51 H          33.3010   42.0755    1.9253 H         1 DDF161      0.0000 
     52 H          33.1708   39.4319    3.3204 H         1 DDF161      0.0000 
     53 H          34.3371   40.5978    3.9689 H         1 DDF161      0.0000 
     54 H          35.8283   40.0562    2.3475 H         1 DDF161      0.0000 
     55 H          34.6449   40.3131    1.0539 H         1 DDF161      0.0000 
@<TRIPOS>BOND
     1    2    1 1    
     2   12    1 1    
     3   33    1 1    
     4    3    2 1    
     5    4    2 2    
     6   34    3 1    
     7   35    3 1    
     8    5    4 1    
     9    6    5 2    
    10    7    5 1    
    11    8    7 1    
    12   12    7 2    
    13    9    8 1    
    14   36    8 1    
    15   37    8 1    
    16   10    9 1    
    17   13    9 1    
    18   38    9 1    
    19   11   10 1    
    20   39   10 1    
    21   40   10 1    
    22   12   11 1    
    23   41   11 1    
    24   14   13 1    
    25   42   13 1    
    26   43   13 1    
    27   18   14 1    
    28   44   14 1    
    29   45   14 1    
    30   16   15 ar   
    31   20   15 ar   
    32   21   15 1    
    33   17   16 ar   
    34   46   16 1    
    35   18   17 ar   
    36   47   17 1    
    37   19   18 ar   
    38   20   19 ar   
    39   48   19 1    
    40   49   20 1    
    41   22   21 2    
    42   23   21 am   
    43   24   23 1    
    44   50   23 1    
    45   25   24 1    
    46   30   24 1    
    47   51   24 1    
    48   26   25 1    
    49   52   25 1    
    50   53   25 1    
    51   27   26 1    
    52   54   26 1    
    53   55   26 1    
    54   28   27 ar   
    55   29   27 ar   
    56   31   30 ar   
    57   32   30 ar   
@<TRIPOS>SUBSTRUCTURE
     1 DDF161      1 GROUP   
@<TRIPOS>SET

