#    Name: 2ep7_NAD_2_INTS_M
#    Modification time : Tue Mar 25 11:13:13 2014

@<TRIPOS>MOLECULE
2ep7_NAD_2_INTS_M
   82     0     9     0     0
SMALL
NO_CHARGES


@<TRIPOS>ATOM
      1 N           4.2110  -39.1995    0.0120 N.am      2 SEC2        0.0000 
      2 N           3.1710  -37.9650   -0.4840 N.am      8 SEL2        0.0000 
      3 N           5.2510  -40.4340    0.5080 N.am      5 SEP2        0.0000 
      4 N           2.9365  -36.8445    0.4900 N.am      2 SEC2        0.0000 
      5 N           2.7020  -35.7240    1.4640 N.am      5 SEP2        0.0000 
      6 CA          5.0475  -40.4600   -5.8200 C.3       3 GLC5        0.0000 
      7 CA          4.2880  -38.8850   -4.8000 C.3       9 GLL5        0.0000 
      8 CA          5.8070  -42.0350   -6.8400 C.3       6 GLP5        0.0000 
      9 O           7.0935  -38.3035   -5.2980 O.2       1 ALC1        0.0000 
     10 O           6.2830  -37.6480   -4.1620 O.2       7 ALL1        0.0000 
     11 O           7.9040  -38.9590   -6.4340 O.2       4 ALP1        0.0000 
     12 CA          4.9565  -35.9210   -8.1315 C.3       3 GLC5        0.0000 
     13 CA          4.9010  -36.9690   -6.1560 C.3       9 GLL5        0.0000 
     14 CA          5.0120  -34.8730  -10.1070 C.3       6 GLP5        0.0000 
     15 O           6.9835  -37.5740   -6.4695 O.2       1 ALC1        0.0000 
     16 O           6.0630  -36.1890   -6.5050 O.2       7 ALL1        0.0000 
     17 O           7.2540  -36.5605   -6.7885 O.2       1 ALC1        0.0000 
     18 O           8.4450  -36.9320   -7.0720 O.2       4 ALP1        0.0000 
     19 CA          5.2865  -40.1315   -6.9180 C.3       3 GLC5        0.0000 
     20 CA          4.7660  -38.2280   -6.9960 C.3       9 GLL5        0.0000 
     21 CA          3.2475  -39.8615   -7.0725 C.3       3 GLC5        0.0000 
     22 CA          1.7290  -41.4950   -7.1490 C.3       6 GLP5        0.0000 
     23 CA          4.1725  -36.4910  -10.2235 C.3       3 GLC5        0.0000 
     24 CA          3.3330  -38.1090  -10.3400 C.3       9 GLL5        0.0000 
     25 CA          4.8040  -37.2910  -11.8670 C.3       3 GLC5        0.0000 
     26 CA          3.4530  -38.5130  -11.7290 C.3       9 GLL5        0.0000 
     27 CA          6.1550  -36.0690  -12.0050 C.3       6 GLP5        0.0000 
     28 CA          4.2620  -38.0090  -13.4905 C.3       3 GLC5        0.0000 
     29 CA          5.0710  -37.5050  -15.2520 C.3       6 GLP5        0.0000 
     30 O           2.8095  -38.5010  -14.0720 O.2       1 ALC1        0.0000 
     31 O           2.5580  -38.1910  -12.6620 O.2       7 ALL1        0.0000 
     32 O           3.0610  -38.8110  -15.4820 O.2       4 ALP1        0.0000 
     33 CA          7.2430  -39.3430  -10.2750 C.3       3 GLC5        0.0000 
     34 CA          5.4960  -39.6000  -11.0770 C.3       9 GLL5        0.0000 
     35 CA          8.9900  -39.0860   -9.4730 C.3       6 GLP5        0.0000 
     36 CA          5.8255  -37.8345  -11.5410 C.3       3 GLC5        0.0000 
     37 CA          4.2625  -40.6910  -10.1815 C.3       3 GLC5        0.0000 
     38 CA          3.0290  -41.7820   -9.2860 C.3       6 GLP5        0.0000 
     39 CA          5.3090  -37.0800  -10.0075 C.3       3 GLC5        0.0000 
     40 CA          4.3610  -38.5310   -9.4660 C.3       9 GLL5        0.0000 
     41 CA          6.2570  -35.6290  -10.5490 C.3       6 GLP5        0.0000 
     42 N           3.4990  -42.1195    0.3350 N.am      2 SEC2        0.0000 
     43 N           2.6280  -41.1540   -0.2620 N.am      8 SEL2        0.0000 
     44 N           4.3700  -43.0850    0.9320 N.am      5 SEP2        0.0000 
     45 CA          1.1015  -43.2925   -0.7400 C.3       3 GLC5        0.0000 
     46 CA          0.3970  -42.1300   -2.4270 C.3       9 GLL5        0.0000 
     47 CA          1.8060  -44.4550    0.9470 C.3       6 GLP5        0.0000 
     48 N          -0.3515  -45.2360   -2.5300 N.am      2 SEC2        0.0000 
     49 N          -0.7250  -44.1040   -1.5940 N.am      8 SEL2        0.0000 
     50 N           0.0220  -46.3680   -3.4660 N.am      5 SEP2        0.0000 
     51 CA         -0.1005  -44.2865   -0.0280 C.3       3 GLC5        0.0000 
     52 CA         -2.0070  -44.1180   -1.0030 C.3       9 GLL5        0.0000 
     53 CA         -3.3850  -45.2250   -2.1450 C.3       3 GLC5        0.0000 
     54 CA         -4.7630  -46.3320   -3.2870 C.3       6 GLP5        0.0000 
     55 CA          0.1825  -43.9650    1.1390 C.3       3 GLC5        0.0000 
     56 CA         -1.4410  -43.4750    1.3310 C.3       9 GLL5        0.0000 
     57 N          -0.9610  -42.6985    6.3555 N.am      2 SEC2        0.0000 
     58 N          -0.8880  -43.2240    4.9470 N.am      8 SEL2        0.0000 
     59 N          -1.0340  -42.1730    7.7640 N.am      5 SEP2        0.0000 
     60 CA         -3.1925  -45.3850    4.2465 C.3       3 GLC5        0.0000 
     61 CA         -1.7900  -45.1360    3.1600 C.3       9 GLL5        0.0000 
     62 CA         -4.5950  -45.6340    5.3330 C.3       6 GLP5        0.0000 
     63 CA         -2.9360  -46.6070    3.8755 C.3       3 GLC5        0.0000 
     64 CA         -2.2440  -46.0390    2.1620 C.3       9 GLL5        0.0000 
     65 CA         -3.6280  -47.1750    5.5890 C.3       6 GLP5        0.0000 
     66 CA         -1.1315  -47.5895    3.2910 C.3       3 GLC5        0.0000 
     67 CA         -0.0190  -49.1400    4.4200 C.3       6 GLP5        0.0000 
     68 CA         -0.2650  -45.1180    0.8830 C.3       3 GLC5        0.0000 
     69 CA         -2.3360  -45.7810    0.8190 C.3       9 GLL5        0.0000 
     70 CA          2.6695  -40.2047   -5.8105 C.3       3 GLC5        0.0000 
     71 CA          5.2615  -39.1531   -3.1365 C.3       3 GLC5        0.0000 
     72 CA          2.9320  -38.9440   -4.1440 C.3       9 GLL5        0.0000 
     73 CA          6.2410  -40.0960   -1.6860 C.3       6 GLP5        0.0000 
     74 CA          3.4530  -40.1015   -9.7681 C.3       3 GLC5        0.0000 
     75 CA          1.0208  -43.7430   -3.9947 C.3       3 GLC5        0.0000 
     76 CA          2.2100  -44.8630   -5.4330 C.3       6 GLP5        0.0000 
     77 CA         -1.5269  -42.0315   -4.3731 C.3       3 GLC5        0.0000 
     78 CA         -0.7340  -43.1160   -2.6860 C.3       9 GLL5        0.0000 
     79 CA         -1.8970  -41.4930   -6.1080 C.3       6 GLP5        0.0000 
     80 CA         -0.0286  -45.1164    2.4661 C.3       3 GLC5        0.0000 
     81 CA         -1.3870  -43.8170    2.6890 C.3       9 GLL5        0.0000 
     82 CA          1.8590  -44.9750    2.3890 C.3       6 GLP5        0.0000 
@<TRIPOS>BOND
@<TRIPOS>SUBSTRUCTURE
     1 ALC1        9 GROUP        1 X    ALC  0     ROOT ALC X 1
     2 SEC2        1 GROUP        1 X    SEC  0     **** SEC X 2
     3 GLC5        6 GROUP        1 X    GLC  0     **** GLC X 6
     4 ALP1       11 GROUP        1 Y    ALP  0     ROOT ALP Y 8
     5 SEP2        3 GROUP        1 Y    SEP  0     **** SEP Y 9
     6 GLP5        8 GROUP        1 Y    GLP  0     **** GLP Y 13
     7 ALL1       10 GROUP        1 Z    ALL  0     ROOT ALL Z 15
     8 SEL2        2 GROUP        1 Z    SEL  0     **** SEL Z 16
     9 GLL5        7 GROUP        1 Z    GLL  0     **** GLL Z 20
@<TRIPOS>SET

