#    Name: 2ep7_NAD_2_ligand
#    Modification time : Tue Mar 25 11:13:13 2014

@<TRIPOS>MOLECULE
2ep7_NAD_2_ligand
   70    74     1     0     0
SMALL
NO_CHARGES


@<TRIPOS>ATOM
      1 PA          2.3200  -38.3270   -1.6110 P.3       1 NAD402      0.0000 
      2 O1A         3.1710  -37.9650   -0.4840 O.co2     1 NAD402      0.0000 
      3 O2A         1.7760  -37.1390   -2.2890 O.co2     1 NAD402      0.0000 
      4 O5B         3.0920  -39.1740   -2.7280 O.3       1 NAD402      0.0000 
      5 C5B         2.9320  -38.9440   -4.1440 C.3       1 NAD402      0.0000 
      6 C4B         4.2880  -38.8850   -4.8000 C.3       1 NAD402      0.0000 
      7 O4B         3.9920  -39.0750   -6.2060 O.3       1 NAD402      0.0000 
      8 C3B         4.9540  -37.5060   -4.7020 C.3       1 NAD402      0.0000 
      9 O3B         6.2830  -37.6480   -4.1620 O.3       1 NAD402      0.0000 
     10 C2B         4.9010  -36.9690   -6.1560 C.3       1 NAD402      0.0000 
     11 O2B         6.0630  -36.1890   -6.5050 O.3       1 NAD402      0.0000 
     12 C1B         4.7660  -38.2280   -6.9960 C.3       1 NAD402      0.0000 
     13 N9A         4.0030  -38.0270   -8.2200 N.pl3     1 NAD402      0.0000 
     14 C8A         2.8120  -37.3430   -8.3980 C.2       1 NAD402      0.0000 
     15 N7A         2.3550  -37.3580   -9.6720 N.2       1 NAD402      0.0000 
     16 C5A         3.3330  -38.1090  -10.3400 C.ar      1 NAD402      0.0000 
     17 C6A         3.4530  -38.5130  -11.7290 C.ar      1 NAD402      0.0000 
     18 N6A         2.5580  -38.1910  -12.6620 N.pl3     1 NAD402      0.0000 
     19 N1A         4.5660  -39.2670  -12.0600 N.ar      1 NAD402      0.0000 
     20 C2A         5.4960  -39.6000  -11.0770 C.ar      1 NAD402      0.0000 
     21 N3A         5.4690  -39.2790   -9.7860 N.ar      1 NAD402      0.0000 
     22 C4A         4.3610  -38.5310   -9.4660 C.ar      1 NAD402      0.0000 
     23 O3          1.2010  -39.2760   -1.0800 O.3       1 NAD402      0.0000 
     24 PN          1.2300  -40.6960   -0.3510 P.3       1 NAD402      0.0000 
     25 O1N         0.6410  -40.4100    0.9890 O.co2     1 NAD402      0.0000 
     26 O2N         2.6280  -41.1540   -0.2620 O.co2     1 NAD402      0.0000 
     27 O5D         0.2310  -41.6840   -1.0640 O.3       1 NAD402      0.0000 
     28 C5D         0.3970  -42.1300   -2.4270 C.3       1 NAD402      0.0000 
     29 C4D        -0.7340  -43.1160   -2.6860 C.3       1 NAD402      0.0000 
     30 O4D        -0.7250  -44.1040   -1.5940 O.3       1 NAD402      0.0000 
     31 C3D        -2.1450  -42.5170   -2.7200 C.3       1 NAD402      0.0000 
     32 O3D        -2.9920  -43.0950   -3.7290 O.3       1 NAD402      0.0000 
     33 C2D        -2.6390  -42.7740   -1.2880 C.3       1 NAD402      0.0000 
     34 O2D        -4.0860  -42.7480   -1.2300 O.3       1 NAD402      0.0000 
     35 C1D        -2.0070  -44.1180   -1.0030 C.3       1 NAD402      0.0000 
     36 N1N        -1.9190  -44.4700    0.4560 N.pl3     1 NAD402      0.0000 
     37 C2N        -1.4410  -43.4750    1.3310 C.ar      1 NAD402      0.0000 
     38 C3N        -1.3870  -43.8170    2.6890 C.ar      1 NAD402      0.0000 
     39 C7N        -0.8830  -42.8500    3.7740 C.2       1 NAD402      0.0000 
     40 O7N        -0.8880  -43.2240    4.9470 O.2       1 NAD402      0.0000 
     41 N7N        -0.4470  -41.6240    3.4370 N.am      1 NAD402      0.0000 
     42 C4N        -1.7900  -45.1360    3.1600 C.ar      1 NAD402      0.0000 
     43 C5N        -2.2440  -46.0390    2.1620 C.ar      1 NAD402      0.0000 
     44 C6N        -2.3360  -45.7810    0.8190 C.ar      1 NAD402      0.0000 
     45 H           2.4122  -37.9990   -4.3339 H         1 NAD402      0.0000 
     46 H           2.3540  -39.7482   -4.6114 H         1 NAD402      0.0000 
     47 H           4.9162  -39.6309   -4.4440 H         1 NAD402      0.0000 
     48 H           4.3167  -36.8915   -4.1019 H         1 NAD402      0.0000 
     49 H           3.9818  -36.4151   -6.2482 H         1 NAD402      0.0000 
     50 H           5.7192  -38.6313   -7.1820 H         1 NAD402      0.0000 
     51 H           2.3468  -36.8869   -7.6468 H         1 NAD402      0.0000 
     52 H           1.7931  -37.6219  -12.3602 H         1 NAD402      0.0000 
     53 H           2.7318  -38.5474  -13.5800 H         1 NAD402      0.0000 
     54 H           6.3399  -40.1965  -11.4323 H         1 NAD402      0.0000 
     55 H           1.3365  -42.6426   -2.5676 H         1 NAD402      0.0000 
     56 H           0.3065  -41.3140   -3.1278 H         1 NAD402      0.0000 
     57 H          -0.5537  -43.6333   -3.6162 H         1 NAD402      0.0000 
     58 H          -2.0292  -41.4487   -2.8215 H         1 NAD402      0.0000 
     59 H          -2.1721  -42.0417   -0.6672 H         1 NAD402      0.0000 
     60 H          -2.6268  -44.8790   -1.5053 H         1 NAD402      0.0000 
     61 H          -1.1576  -42.5782    0.9992 H         1 NAD402      0.0000 
     62 H          -0.0941  -41.0615    4.1847 H         1 NAD402      0.0000 
     63 H          -0.5144  -41.3838    2.4686 H         1 NAD402      0.0000 
     64 H          -1.7438  -45.3691    4.1137 H         1 NAD402      0.0000 
     65 H          -2.5378  -47.0079    2.5110 H         1 NAD402      0.0000 
     66 H          -2.6569  -46.4241    0.1473 H         1 NAD402      0.0000 
     67 H           6.8146  -38.0768   -4.8925 H         1 NAD402      0.0000 
     68 H           6.7918  -36.8592   -6.6455 H         1 NAD402      0.0000 
     69 H          -2.9406  -42.4636   -4.5027 H         1 NAD402      0.0000 
     70 H          -4.3851  -42.8707   -2.1763 H         1 NAD402      0.0000 
@<TRIPOS>BOND
     1    2    1 ar   
     2    3    1 ar   
     3    4    1 1    
     4   23    1 1    
     5    5    4 1    
     6    6    5 1    
     7   45    5 1    
     8   46    5 1    
     9    7    6 1    
    10    8    6 1    
    11   47    6 1    
    12   12    7 1    
    13    9    8 1    
    14   10    8 1    
    15   48    8 1    
    16   67    9 1    
    17   11   10 1    
    18   12   10 1    
    19   49   10 1    
    20   68   11 1    
    21   13   12 1    
    22   50   12 1    
    23   14   13 1    
    24   22   13 1    
    25   15   14 2    
    26   51   14 1    
    27   16   15 1    
    28   17   16 ar   
    29   22   16 ar   
    30   18   17 1    
    31   19   17 ar   
    32   52   18 1    
    33   53   18 1    
    34   20   19 ar   
    35   21   20 ar   
    36   54   20 1    
    37   22   21 ar   
    38   24   23 1    
    39   25   24 ar   
    40   26   24 ar   
    41   27   24 1    
    42   28   27 1    
    43   29   28 1    
    44   55   28 1    
    45   56   28 1    
    46   30   29 1    
    47   31   29 1    
    48   57   29 1    
    49   35   30 1    
    50   32   31 1    
    51   33   31 1    
    52   58   31 1    
    53   69   32 1    
    54   34   33 1    
    55   35   33 1    
    56   59   33 1    
    57   70   34 1    
    58   36   35 1    
    59   60   35 1    
    60   37   36 ar   
    61   44   36 ar   
    62   38   37 ar   
    63   61   37 1    
    64   39   38 1    
    65   42   38 ar   
    66   40   39 2    
    67   41   39 am   
    68   62   41 1    
    69   63   41 1    
    70   43   42 ar   
    71   64   42 1    
    72   44   43 ar   
    73   65   43 1    
    74   66   44 1    
@<TRIPOS>SUBSTRUCTURE
     1 NAD402      1 GROUP   
@<TRIPOS>SET

