#    Name: 1zoy_UQ1_1_INTS_M
#    Modification time : Mon Apr  7 17:19:12 2014

@<TRIPOS>MOLECULE
1zoy_UQ1_1_INTS_M
   51     0     6     0     0
SMALL
NO_CHARGES


@<TRIPOS>ATOM
      1 N          86.8810   68.4665   86.6620 N.am      1 SEC2        0.0000 
      2 N          86.6980   67.7900   85.4510 N.am      5 SEL2        0.0000 
      3 N          87.0640   69.1430   87.8730 N.am      3 SEP2        0.0000 
      4 N          85.4755   68.6785   84.8240 N.am      1 SEC2        0.0000 
      5 N          84.2530   69.5670   84.1970 N.am      3 SEP2        0.0000 
      6 N          84.1480   68.8095   85.2650 N.am      1 SEC2        0.0000 
      7 N          84.0430   68.0520   86.3330 N.am      5 SEL2        0.0000 
      8 CA         84.8590   66.8030   88.7430 C.3       2 GLC5        0.0000 
      9 CA         83.9760   68.2690   87.7560 C.3       6 GLL5        0.0000 
     10 CA         85.7420   65.3370   89.7300 C.3       4 GLP5        0.0000 
     11 CA         85.2110   69.1635   88.2230 C.3       2 GLC5        0.0000 
     12 CA         86.4460   70.0580   88.6900 C.3       4 GLP5        0.0000 
     13 CA         84.4750   69.8440   86.6305 C.3       2 GLC5        0.0000 
     14 CA         84.9740   71.4190   85.5050 C.3       4 GLP5        0.0000 
     15 CA         82.9850   64.9820   87.8945 C.3       2 GLC5        0.0000 
     16 CA         83.8840   65.6450   86.2580 C.3       6 GLL5        0.0000 
     17 CA         82.0860   64.3190   89.5310 C.3       4 GLP5        0.0000 
     18 CA         81.8890   65.0445   87.5215 C.3       2 GLC5        0.0000 
     19 CA         81.6920   65.7700   85.5120 C.3       6 GLL5        0.0000 
     20 CA         81.1070   63.5990   85.4520 C.3       2 GLC5        0.0000 
     21 CA         80.5220   61.4280   85.3920 C.3       4 GLP5        0.0000 
     22 CA         81.1015   67.1740   84.3455 C.3       2 GLC5        0.0000 
     23 CA         80.5110   68.5780   83.1790 C.3       4 GLP5        0.0000 
     24 CA         85.2665   63.2900   84.0345 C.3       2 GLC5        0.0000 
     25 CA         85.9680   64.2660   85.5240 C.3       6 GLL5        0.0000 
     26 CA         84.5650   62.3140   82.5450 C.3       4 GLP5        0.0000 
     27 CA         87.5645   61.5620   84.5050 C.3       2 GLC5        0.0000 
     28 CA         86.6220   62.9300   85.2500 C.3       6 GLL5        0.0000 
     29 CA         88.5070   60.1940   83.7600 C.3       4 GLP5        0.0000 
     30 CA         86.0145   61.2225   86.2730 C.3       2 GLC5        0.0000 
     31 CA         85.4070   59.5150   87.2960 C.3       4 GLP5        0.0000 
     32 CA         86.2575   62.2800   83.7345 C.3       2 GLC5        0.0000 
     33 CA         85.8930   61.6300   82.2190 C.3       4 GLP5        0.0000 
     34 CA         88.8425   66.9760   86.1025 C.3       2 GLC5        0.0000 
     35 CA         88.2250   65.4020   84.8010 C.3       6 GLL5        0.0000 
     36 CA         89.4600   68.5500   87.4040 C.3       4 GLP5        0.0000 
     37 CA         89.3000   63.1190   83.4440 C.3       2 GLC5        0.0000 
     38 CA         88.9630   65.2790   83.4540 C.3       6 GLL5        0.0000 
     39 CA         89.6370   60.9590   83.4340 C.3       4 GLP5        0.0000 
     40 CA         92.0230   64.2245   84.7285 C.3       2 GLC5        0.0000 
     41 CA         91.2260   64.4710   83.3180 C.3       6 GLL5        0.0000 
     42 CA         92.8200   63.9780   86.1390 C.3       4 GLP5        0.0000 
     43 CA         90.4315   62.7150   83.3760 C.3       2 GLC5        0.0000 
     44 CA         90.1480   67.6855   85.8045 C.3       2 GLC5        0.0000 
     45 CA         90.8360   66.8210   84.2050 C.3       6 GLL5        0.0000 
     46 CA         84.9993   65.7880   87.9497 C.3       2 GLC5        0.0000 
     47 CA         84.6290   66.8330   86.0810 C.3       6 GLL5        0.0000 
     48 CA         86.0298   65.0958   87.5820 C.3       2 GLC5        0.0000 
     49 CA         90.2310   65.1437   85.4622 C.3       2 GLC5        0.0000 
     50 CA         91.8680   64.9470   86.7970 C.3       4 GLP5        0.0000 
     51 CA         91.1882   65.6347   85.2850 C.3       2 GLC5        0.0000 
@<TRIPOS>BOND
@<TRIPOS>SUBSTRUCTURE
     1 SEC2        1 GROUP        1 X    SEC  0     ROOT SEC X 2
     2 GLC5        8 GROUP        1 X    GLC  0     **** GLC X 6
     3 SEP2        3 GROUP        1 Y    SEP  0     ROOT SEP Y 9
     4 GLP5       10 GROUP        1 Y    GLP  0     **** GLP Y 13
     5 SEL2        2 GROUP        1 Z    SEL  0     ROOT SEL Z 16
     6 GLL5        9 GROUP        1 Z    GLL  0     **** GLL Z 20
@<TRIPOS>SET

