#    Name: 1zoy_UQ1_1_ligand
#    Modification time : Mon Apr  7 17:19:12 2014

@<TRIPOS>MOLECULE
1zoy_UQ1_1_ligand
   36    36     1     0     0
SMALL
NO_CHARGES


@<TRIPOS>ATOM
      1 C1         86.0130   66.7860   85.6300 C.2       1 UQ11201     0.0000 
      2 O1         86.6980   67.7900   85.4510 O.2       1 UQ11201     0.0000 
      3 C2         84.6290   66.8330   86.0810 C.2       1 UQ11201     0.0000 
      4 O2         84.0430   68.0520   86.3330 O.3       1 UQ11201     0.0000 
      5 CM2        83.9760   68.2690   87.7560 C.3       1 UQ11201     0.0000 
      6 C3         83.8840   65.6450   86.2580 C.2       1 UQ11201     0.0000 
      7 O3         82.5570   65.6970   86.6760 O.3       1 UQ11201     0.0000 
      8 CM3        81.6920   65.7700   85.5120 C.3       1 UQ11201     0.0000 
      9 C4         84.5310   64.3110   85.9870 C.2       1 UQ11201     0.0000 
     10 O4         83.8900   63.2730   86.1430 O.2       1 UQ11201     0.0000 
     11 C5         85.9680   64.2660   85.5240 C.2       1 UQ11201     0.0000 
     12 CM5        86.6220   62.9300   85.2500 C.3       1 UQ11201     0.0000 
     13 C6         86.6670   65.4430   85.3440 C.2       1 UQ11201     0.0000 
     14 C7         88.2250   65.4020   84.8010 C.3       1 UQ11201     0.0000 
     15 C8         88.9630   65.2790   83.4540 C.2       1 UQ11201     0.0000 
     16 C9         90.1810   65.8240   83.3410 C.2       1 UQ11201     0.0000 
     17 C10        91.2260   64.4710   83.3180 C.3       1 UQ11201     0.0000 
     18 C11        90.8360   66.8210   84.2050 C.3       1 UQ11201     0.0000 
     19 H          88.7364   64.5857   85.5394 H         1 UQ11201     0.0000 
     20 H          88.7244   66.3497   85.3718 H         1 UQ11201     0.0000 
     21 H          88.4647   64.7847   82.7348 H         1 UQ11201     0.0000 
     22 H          84.8839   68.2665   88.1752 H         1 UQ11201     0.0000 
     23 H          83.5530   69.1474   87.9782 H         1 UQ11201     0.0000 
     24 H          83.4393   67.5608   88.2148 H         1 UQ11201     0.0000 
     25 H          81.8794   66.5828   84.9604 H         1 UQ11201     0.0000 
     26 H          81.8066   64.9769   84.9138 H         1 UQ11201     0.0000 
     27 H          80.7262   65.8063   85.7687 H         1 UQ11201     0.0000 
     28 H          87.5716   63.0350   84.9547 H         1 UQ11201     0.0000 
     29 H          86.6304   62.3470   86.0624 H         1 UQ11201     0.0000 
     30 H          86.1457   62.4239   84.5310 H         1 UQ11201     0.0000 
     31 H          92.1848   64.7436   83.2384 H         1 UQ11201     0.0000 
     32 H          91.1448   63.9248   84.1517 H         1 UQ11201     0.0000 
     33 H          91.0294   63.8629   82.5489 H         1 UQ11201     0.0000 
     34 H          91.7538   67.0485   83.8798 H         1 UQ11201     0.0000 
     35 H          90.3186   67.6758   84.2440 H         1 UQ11201     0.0000 
     36 H          90.9311   66.4928   85.1448 H         1 UQ11201     0.0000 
@<TRIPOS>BOND
     1    2    1 2    
     2    3    1 1    
     3   13    1 1    
     4    4    3 1    
     5    6    3 2    
     6    5    4 1    
     7   22    5 1    
     8   23    5 1    
     9   24    5 1    
    10    7    6 1    
    11    9    6 1    
    12    8    7 1    
    13   25    8 1    
    14   26    8 1    
    15   27    8 1    
    16   10    9 2    
    17   11    9 1    
    18   12   11 1    
    19   13   11 2    
    20   28   12 1    
    21   29   12 1    
    22   30   12 1    
    23   14   13 1    
    24   15   14 1    
    25   19   14 1    
    26   20   14 1    
    27   16   15 2    
    28   21   15 1    
    29   17   16 1    
    30   18   16 1    
    31   31   17 1    
    32   32   17 1    
    33   33   17 1    
    34   34   18 1    
    35   35   18 1    
    36   36   18 1    
@<TRIPOS>SUBSTRUCTURE
     1 UQ11201     1 GROUP   
@<TRIPOS>SET

