#    Name: 2zaf_FAD_4_INTS_M
#    Modification time : Mon Apr  7 18:41:34 2014

@<TRIPOS>MOLECULE
2zaf_FAD_4_INTS_M
  134     0     9     0     0
SMALL
NO_CHARGES


@<TRIPOS>ATOM
      1 N          78.2460   28.5130   52.6475 N.am      2 SEC2        0.0000 
      2 N          77.5120   27.8970   51.6530 N.am      8 SEL2        0.0000 
      3 N          78.9800   29.1290   53.6420 N.am      5 SEP2        0.0000 
      4 N          76.9610   29.0345   52.2675 N.am      2 SEC2        0.0000 
      5 N          76.4100   30.1720   52.8820 N.am      5 SEP2        0.0000 
      6 N          79.6840   25.4400   50.8810 N.am      2 SEC2        0.0000 
      7 N          79.0060   26.5980   50.0880 N.am      8 SEL2        0.0000 
      8 N          80.3620   24.2820   51.6740 N.am      5 SEP2        0.0000 
      9 CA         77.0420   24.4940   50.3570 C.3       3 GLC5        0.0000 
     10 CA         76.4700   25.3080   49.0230 C.3       9 GLL5        0.0000 
     11 CA         77.6140   23.6800   51.6910 C.3       6 GLP5        0.0000 
     12 CA         75.9950   24.9285   50.3630 C.3       3 GLC5        0.0000 
     13 CA         75.1160   25.0620   48.3700 C.3       9 GLL5        0.0000 
     14 CA         76.8740   24.7950   52.3560 C.3       6 GLP5        0.0000 
     15 O          74.5490   25.6140   45.0040 O.2       1 ALC1        0.0000 
     16 O          74.9790   26.5010   46.4090 O.2       7 ALL1        0.0000 
     17 O          74.1190   24.7270   43.5990 O.2       4 ALP1        0.0000 
     18 CA         71.6810   26.4440   46.3365 C.3       3 GLC5        0.0000 
     19 CA         73.0490   25.9950   47.7180 C.3       9 GLL5        0.0000 
     20 CA         70.3130   26.8930   44.9550 C.3       6 GLP5        0.0000 
     21 O          73.2505   23.9945   46.4500 O.2       1 ALC1        0.0000 
     22 O          72.7360   25.2620   46.5490 O.2       7 ALL1        0.0000 
     23 O          73.7650   22.7270   46.3510 O.2       4 ALP1        0.0000 
     24 CA         72.7515   23.8475   50.4145 C.3       3 GLC5        0.0000 
     25 CA         72.8660   25.1170   48.9520 C.3       9 GLL5        0.0000 
     26 CA         72.6370   22.5780   51.8770 C.3       6 GLP5        0.0000 
     27 N          72.7220   27.3385   53.4080 N.am      2 SEC2        0.0000 
     28 N          72.1810   27.0650   51.9410 N.am      8 SEL2        0.0000 
     29 N          73.2630   27.6120   54.8750 N.am      5 SEP2        0.0000 
     30 CA         72.7350   28.5145   51.3800 C.3       3 GLC5        0.0000 
     31 CA         71.0640   27.3270   51.2700 C.3       9 GLL5        0.0000 
     32 CA         74.4060   29.7020   51.4900 C.3       6 GLP5        0.0000 
     33 O          70.5830   28.6620   53.9100 O.2       1 ALC1        0.0000 
     34 O          69.8400   28.5740   52.8200 O.2       7 ALL1        0.0000 
     35 O          71.3260   28.7500   55.0000 O.2       4 ALP1        0.0000 
     36 N          67.4705   28.5065   50.4550 N.am      2 SEC2        0.0000 
     37 N          68.9160   28.1970   50.6870 N.am      8 SEL2        0.0000 
     38 N          66.0250   28.8160   50.2230 N.am      5 SEP2        0.0000 
     39 CA         67.9895   26.2100   50.1290 C.3       3 GLC5        0.0000 
     40 CA         68.9920   27.5160   49.4860 C.3       9 GLL5        0.0000 
     41 CA         66.9870   24.9040   50.7720 C.3       6 GLP5        0.0000 
     42 CA         69.3155   25.6780   48.6540 C.3       3 GLC5        0.0000 
     43 CA         69.6390   23.8400   47.8220 C.3       6 GLP5        0.0000 
     44 CA         70.6610   28.5525   48.8190 C.3       3 GLC5        0.0000 
     45 CA         72.3300   29.5890   48.1520 C.3       6 GLP5        0.0000 
     46 CA         68.5165   29.4530   49.2065 C.3       3 GLC5        0.0000 
     47 CA         68.0410   31.3900   48.9270 C.3       6 GLP5        0.0000 
     48 CA         70.3850   25.2425   48.9420 C.3       3 GLC5        0.0000 
     49 CA         71.1310   26.6450   50.0620 C.3       9 GLL5        0.0000 
     50 N          84.5680   32.6565   49.4925 N.am      2 SEC2        0.0000 
     51 N          85.3620   33.2890   48.6180 N.am      8 SEL2        0.0000 
     52 N          83.7740   32.0240   50.3670 N.am      5 SEP2        0.0000 
     53 N          85.6940   35.0240   51.8540 N.am      2 SEC2        0.0000 
     54 N          85.0760   34.6020   50.4200 N.am      8 SEL2        0.0000 
     55 N          86.3120   35.4460   53.2880 N.am      5 SEP2        0.0000 
     56 N          84.9695   33.7900   51.6045 N.am      2 SEC2        0.0000 
     57 N          84.8630   32.9780   52.7890 N.am      5 SEP2        0.0000 
     58 O          87.0370   36.3180   49.7655 O.2       1 ALC1        0.0000 
     59 O          86.3200   35.4860   48.7340 O.2       7 ALL1        0.0000 
     60 O          87.7540   37.1500   50.7970 O.2       4 ALP1        0.0000 
     61 CA         88.4050   33.0015   40.2365 C.3       3 GLC5        0.0000 
     62 CA         87.9880   31.2730   41.5310 C.3       9 GLL5        0.0000 
     63 CA         88.8220   34.7300   38.9420 C.3       6 GLP5        0.0000 
     64 CA         88.9705   29.3405   41.4560 C.3       3 GLC5        0.0000 
     65 CA         89.9530   27.4080   41.3810 C.3       6 GLP5        0.0000 
     66 CA         89.9055   30.7045   41.2645 C.3       3 GLC5        0.0000 
     67 CA         91.8230   30.1360   40.9980 C.3       6 GLP5        0.0000 
     68 CA         86.2220   32.3620   41.3580 C.3       3 GLC5        0.0000 
     69 CA         84.4560   33.4510   41.1850 C.3       6 GLP5        0.0000 
     70 CA         86.0615   27.4735   41.5420 C.3       3 GLC5        0.0000 
     71 CA         86.3720   29.0390   42.7540 C.3       9 GLL5        0.0000 
     72 CA         85.7510   25.9080   40.3300 C.3       6 GLP5        0.0000 
     73 CA         88.1625   28.2235   42.0675 C.3       3 GLC5        0.0000 
     74 CA         84.4050   31.1720   49.1255 C.3       3 GLC5        0.0000 
     75 CA         84.3600   31.2340   47.0520 C.3       9 GLL5        0.0000 
     76 CA         84.4500   31.1100   51.1990 C.3       6 GLP5        0.0000 
     77 CA         85.6510   30.4190   47.7920 C.3       3 GLC5        0.0000 
     78 CA         86.9420   29.6040   48.5320 C.3       6 GLP5        0.0000 
     79 CA         82.2225   33.4410   45.4715 C.3       3 GLC5        0.0000 
     80 CA         83.0800   31.9050   46.5280 C.3       9 GLL5        0.0000 
     81 CA         81.3650   34.9770   44.4150 C.3       6 GLP5        0.0000 
     82 N          80.2160   32.7950   45.9635 N.am      2 SEC2        0.0000 
     83 N          80.7860   31.6310   46.1260 N.am      8 SEL2        0.0000 
     84 N          79.6460   33.9590   45.8010 N.am      5 SEP2        0.0000 
     85 O          80.1245   30.8250   44.9415 O.2       1 ALC1        0.0000 
     86 O          80.7860   31.6310   46.1260 O.2       7 ALL1        0.0000 
     87 O          79.4630   30.0190   43.7570 O.2       4 ALP1        0.0000 
     88 CA         82.9725   30.9625   49.7510 C.3       3 GLC5        0.0000 
     89 CA         81.4950   30.8150   48.3030 C.3       9 GLL5        0.0000 
     90 O          82.9865   30.8660   49.5930 O.2       1 ALC1        0.0000 
     91 O          82.1990   29.7080   48.8190 O.2       7 ALL1        0.0000 
     92 O          83.7740   32.0240   50.3670 O.2       4 ALP1        0.0000 
     93 CA         79.1550   32.1320   47.4005 C.3       3 GLC5        0.0000 
     94 CA         80.0210   30.5100   48.5170 C.3       9 GLL5        0.0000 
     95 CA         78.2890   33.7540   46.2840 C.3       6 GLP5        0.0000 
     96 CA         78.2660   31.6230   49.0020 C.3       3 GLC5        0.0000 
     97 CA         76.5110   32.7360   49.4870 C.3       6 GLP5        0.0000 
     98 N          77.4525   30.7890   46.2990 N.am      2 SEC2        0.0000 
     99 N          77.5810   29.8400   47.2590 N.am      8 SEL2        0.0000 
    100 N          77.3240   31.7380   45.3390 N.am      5 SEP2        0.0000 
    101 N          79.0630   26.5150   46.3575 N.am      2 SEC2        0.0000 
    102 N          78.2980   27.4100   47.0640 N.am      8 SEL2        0.0000 
    103 N          79.8280   25.6200   45.6510 N.am      5 SEP2        0.0000 
    104 CA         76.3688   25.2615   46.7391 C.3       3 GLC5        0.0000 
    105 CA         77.5820   24.7750   45.2700 C.3       6 GLP5        0.0000 
    106 CA         73.0568   27.8710   47.9355 C.3       3 GLC5        0.0000 
    107 CA         74.5180   26.3110   47.7200 C.3       9 GLL5        0.0000 
    108 CA         71.2982   24.6980   48.0785 C.3       3 GLC5        0.0000 
    109 CA         71.5722   25.2040   51.8160 C.3       3 GLC5        0.0000 
    110 CA         72.0470   23.4220   52.9660 C.3       6 GLP5        0.0000 
    111 CA         69.8621   26.1421   51.6230 C.3       3 GLC5        0.0000 
    112 CA         68.9010   25.1040   52.5010 C.3       6 GLP5        0.0000 
    113 CA         71.5766   28.3846   49.4485 C.3       3 GLC5        0.0000 
    114 CA         69.9670   28.1040   51.5860 C.3       9 GLL5        0.0000 
    115 CA         89.1665   33.5835   44.4267 C.3       3 GLC5        0.0000 
    116 CA         86.9770   32.7370   44.8610 C.3       9 GLL5        0.0000 
    117 CA         91.0790   34.5150   44.6230 C.3       6 GLP5        0.0000 
    118 CA         86.3190   30.7000   40.7722 C.3       3 GLC5        0.0000 
    119 CA         87.3540   31.3830   42.8920 C.3       9 GLL5        0.0000 
    120 CA         84.9670   30.0720   39.3330 C.3       6 GLP5        0.0000 
    121 CA         85.7275   29.8828   41.2230 C.3       3 GLC5        0.0000 
    122 CA         84.7225   29.1621   44.0145 C.3       3 GLC5        0.0000 
    123 CA         86.6040   30.3480   43.4720 C.3       9 GLL5        0.0000 
    124 CA         83.1800   28.2130   44.1010 C.3       6 GLP5        0.0000 
    125 CA         86.5382   30.3642   46.8130 C.3       3 GLC5        0.0000 
    126 CA         86.0420   30.5290   44.7430 C.3       9 GLL5        0.0000 
    127 CA         84.7129   30.9273   43.0232 C.3       3 GLC5        0.0000 
    128 CA         83.0670   31.6140   42.1910 C.3       6 GLP5        0.0000 
    129 CA         82.8675   30.5003   45.6740 C.3       3 GLC5        0.0000 
    130 CA         82.0150   29.4310   44.5580 C.3       6 GLP5        0.0000 
    131 CA         82.0673   31.4860   44.7613 C.3       3 GLC5        0.0000 
    132 CA         81.8550   31.0410   46.8210 C.3       9 GLL5        0.0000 
    133 CA         81.6670   31.4990   42.8480 C.3       6 GLP5        0.0000 
    134 CA         81.8450   30.1795   46.0600 C.3       3 GLC5        0.0000 
@<TRIPOS>BOND
@<TRIPOS>SUBSTRUCTURE
     1 ALC1       15 GROUP        1 X    ALC  0     ROOT ALC X 1
     2 SEC2        1 GROUP        1 X    SEC  0     **** SEC X 2
     3 GLC5        9 GROUP        1 X    GLC  0     **** GLC X 6
     4 ALP1       17 GROUP        1 Y    ALP  0     ROOT ALP Y 8
     5 SEP2        3 GROUP        1 Y    SEP  0     **** SEP Y 9
     6 GLP5       11 GROUP        1 Y    GLP  0     **** GLP Y 13
     7 ALL1       16 GROUP        1 Z    ALL  0     ROOT ALL Z 15
     8 SEL2        2 GROUP        1 Z    SEL  0     **** SEL Z 16
     9 GLL5       10 GROUP        1 Z    GLL  0     **** GLL Z 20
@<TRIPOS>SET

