#    Name: 2zaf_FAD_4_ligand
#    Modification time : Mon Apr  7 18:41:35 2014

@<TRIPOS>MOLECULE
2zaf_FAD_4_ligand
   84    89     1     0     0
SMALL
NO_CHARGES


@<TRIPOS>ATOM
      1 PA         77.6690   27.2660   50.2840 P.3       1 FAD500      0.0000 
      2 O1A        77.5120   27.8970   51.6530 O.co2     1 FAD500      0.0000 
      3 O2A        79.0060   26.5980   50.0880 O.co2     1 FAD500      0.0000 
      4 O5B        76.3900   26.3160   50.0170 O.3       1 FAD500      0.0000 
      5 C5B        76.4700   25.3080   49.0230 C.3       1 FAD500      0.0000 
      6 C4B        75.1160   25.0620   48.3700 C.3       1 FAD500      0.0000 
      7 O4B        74.1380   24.5810   49.2820 O.3       1 FAD500      0.0000 
      8 C3B        74.5180   26.3110   47.7200 C.3       1 FAD500      0.0000 
      9 O3B        74.9790   26.5010   46.4090 O.3       1 FAD500      0.0000 
     10 C2B        73.0490   25.9950   47.7180 C.3       1 FAD500      0.0000 
     11 O2B        72.7360   25.2620   46.5490 O.3       1 FAD500      0.0000 
     12 C1B        72.8660   25.1170   48.9520 C.3       1 FAD500      0.0000 
     13 N9A        72.3350   25.9690   50.0340 N.pl3     1 FAD500      0.0000 
     14 C8A        72.9680   26.2500   51.2040 C.2       1 FAD500      0.0000 
     15 N7A        72.1810   27.0650   51.9410 N.2       1 FAD500      0.0000 
     16 C5A        71.0640   27.3270   51.2700 C.ar      1 FAD500      0.0000 
     17 C6A        69.9670   28.1040   51.5860 C.ar      1 FAD500      0.0000 
     18 N6A        69.8400   28.5740   52.8200 N.pl3     1 FAD500      0.0000 
     19 N1A        68.9160   28.1970   50.6870 N.ar      1 FAD500      0.0000 
     20 C2A        68.9920   27.5160   49.4860 C.ar      1 FAD500      0.0000 
     21 N3A        70.1010   26.7490   49.1810 N.ar      1 FAD500      0.0000 
     22 C4A        71.1310   26.6450   50.0620 C.ar      1 FAD500      0.0000 
     23 N1         85.3620   33.2890   48.6180 N.2       1 FAD500      0.0000 
     24 C2         85.5690   34.4690   49.3030 C.2       1 FAD500      0.0000 
     25 O2         85.0760   34.6020   50.4200 O.2       1 FAD500      0.0000 
     26 N3         86.3200   35.4860   48.7340 N.am      1 FAD500      0.0000 
     27 C4         86.8620   35.3120   47.4780 C.2       1 FAD500      0.0000 
     28 O4         87.5190   36.2200   46.9840 O.2       1 FAD500      0.0000 
     29 C4X        86.6550   34.1180   46.7820 C.2       1 FAD500      0.0000 
     30 N5         87.1890   33.9240   45.5270 N.2       1 FAD500      0.0000 
     31 C5X        86.9770   32.7370   44.8610 C.ar      1 FAD500      0.0000 
     32 C6         87.5310   32.5670   43.6000 C.ar      1 FAD500      0.0000 
     33 C7         87.3540   31.3830   42.8920 C.ar      1 FAD500      0.0000 
     34 C7M        87.9880   31.2730   41.5310 C.3       1 FAD500      0.0000 
     35 C8         86.6040   30.3480   43.4720 C.ar      1 FAD500      0.0000 
     36 C8M        86.3720   29.0390   42.7540 C.3       1 FAD500      0.0000 
     37 C9         86.0420   30.5290   44.7430 C.ar      1 FAD500      0.0000 
     38 C9A        86.2270   31.7200   45.4450 C.ar      1 FAD500      0.0000 
     39 N10        85.6610   31.9210   46.6990 N.pl3     1 FAD500      0.0000 
     40 C10        85.9040   33.1050   47.3640 C.2       1 FAD500      0.0000 
     41 C1'        84.3600   31.2340   47.0520 C.3       1 FAD500      0.0000 
     42 C2'        83.0800   31.9050   46.5280 C.3       1 FAD500      0.0000 
     43 O2'        82.8490   33.2000   47.0460 O.3       1 FAD500      0.0000 
     44 C3'        81.8550   31.0410   46.8210 C.3       1 FAD500      0.0000 
     45 O3'        80.7860   31.6310   46.1260 O.3       1 FAD500      0.0000 
     46 C4'        81.4950   30.8150   48.3030 C.3       1 FAD500      0.0000 
     47 O4'        82.1990   29.7080   48.8190 O.3       1 FAD500      0.0000 
     48 C5'        80.0210   30.5100   48.5170 C.3       1 FAD500      0.0000 
     49 O5'        79.7810   29.1490   48.2200 O.3       1 FAD500      0.0000 
     50 P          78.2900   28.6750   47.8910 P.3       1 FAD500      0.0000 
     51 O1P        77.5810   29.8400   47.2590 O.co2     1 FAD500      0.0000 
     52 O2P        78.2980   27.4100   47.0640 O.co2     1 FAD500      0.0000 
     53 O3P        77.4530   28.4720   49.2410 O.3       1 FAD500      0.0000 
     54 H          76.8167   24.3464   49.4422 H         1 FAD500      0.0000 
     55 H          77.1813   25.5785   48.2221 H         1 FAD500      0.0000 
     56 H          75.2531   24.3278   47.5598 H         1 FAD500      0.0000 
     57 H          74.6823   27.1297   48.3725 H         1 FAD500      0.0000 
     58 H          72.5001   26.8768   47.8401 H         1 FAD500      0.0000 
     59 H          72.1603   24.3534   48.7020 H         1 FAD500      0.0000 
     60 H          73.8380   25.9190   51.4620 H         1 FAD500      0.0000 
     61 H          70.5500   28.3022   53.4696 H         1 FAD500      0.0000 
     62 H          69.0457   29.1576   52.9890 H         1 FAD500      0.0000 
     63 H          68.2115   27.5811   48.8093 H         1 FAD500      0.0000 
     64 H          86.4701   36.3637   49.2482 H         1 FAD500      0.0000 
     65 H          88.0857   33.3337   43.1780 H         1 FAD500      0.0000 
     66 H          85.4841   29.7689   45.1628 H         1 FAD500      0.0000 
     67 H          84.2803   31.1496   48.1580 H         1 FAD500      0.0000 
     68 H          84.3846   30.1889   46.6728 H         1 FAD500      0.0000 
     69 H          83.1645   31.9452   45.4246 H         1 FAD500      0.0000 
     70 H          82.0583   30.0434   46.3742 H         1 FAD500      0.0000 
     71 H          81.7340   31.7133   48.8552 H         1 FAD500      0.0000 
     72 H          79.4434   31.1809   47.8704 H         1 FAD500      0.0000 
     73 H          79.7767   30.7540   49.5575 H         1 FAD500      0.0000 
     74 H          88.9814   31.3795   41.5743 H         1 FAD500      0.0000 
     75 H          87.8066   30.3855   41.1074 H         1 FAD500      0.0000 
     76 H          87.6453   31.9726   40.9040 H         1 FAD500      0.0000 
     77 H          87.2313   28.5704   42.5491 H         1 FAD500      0.0000 
     78 H          85.8177   28.4097   43.2988 H         1 FAD500      0.0000 
     79 H          85.8959   29.1715   41.8847 H         1 FAD500      0.0000 
     80 H          74.4248   25.8859   45.8482 H         1 FAD500      0.0000 
     81 H          72.6957   24.3077   46.8451 H         1 FAD500      0.0000 
     82 H          81.8775   33.3736   46.8848 H         1 FAD500      0.0000 
     83 H          80.5526   30.9767   45.4067 H         1 FAD500      0.0000 
     84 H          82.8935   30.1011   49.4216 H         1 FAD500      0.0000 
@<TRIPOS>BOND
     1    2    1 ar   
     2    3    1 ar   
     3    4    1 1    
     4   53    1 1    
     5    5    4 1    
     6    6    5 1    
     7   54    5 1    
     8   55    5 1    
     9    7    6 1    
    10    8    6 1    
    11   56    6 1    
    12   12    7 1    
    13    9    8 1    
    14   10    8 1    
    15   57    8 1    
    16   80    9 1    
    17   11   10 1    
    18   12   10 1    
    19   58   10 1    
    20   81   11 1    
    21   13   12 1    
    22   59   12 1    
    23   14   13 1    
    24   22   13 1    
    25   15   14 2    
    26   60   14 1    
    27   16   15 1    
    28   17   16 ar   
    29   22   16 ar   
    30   18   17 1    
    31   19   17 ar   
    32   61   18 1    
    33   62   18 1    
    34   20   19 ar   
    35   21   20 ar   
    36   63   20 1    
    37   22   21 ar   
    38   24   23 1    
    39   40   23 2    
    40   25   24 2    
    41   26   24 am   
    42   27   26 am   
    43   64   26 1    
    44   28   27 2    
    45   29   27 1    
    46   30   29 2    
    47   40   29 1    
    48   31   30 1    
    49   32   31 ar   
    50   38   31 ar   
    51   33   32 ar   
    52   65   32 1    
    53   34   33 1    
    54   35   33 ar   
    55   74   34 1    
    56   75   34 1    
    57   76   34 1    
    58   36   35 1    
    59   37   35 ar   
    60   77   36 1    
    61   78   36 1    
    62   79   36 1    
    63   38   37 ar   
    64   66   37 1    
    65   39   38 1    
    66   40   39 1    
    67   41   39 1    
    68   42   41 1    
    69   67   41 1    
    70   68   41 1    
    71   43   42 1    
    72   44   42 1    
    73   69   42 1    
    74   82   43 1    
    75   45   44 1    
    76   46   44 1    
    77   70   44 1    
    78   83   45 1    
    79   47   46 1    
    80   48   46 1    
    81   71   46 1    
    82   84   47 1    
    83   49   48 1    
    84   72   48 1    
    85   73   48 1    
    86   50   49 1    
    87   51   50 ar   
    88   52   50 ar   
    89   53   50 1    
@<TRIPOS>SUBSTRUCTURE
     1 FAD500      1 GROUP   
@<TRIPOS>SET

