#    Name: 3twj_07R_1_INTS_M
#    Modification time : Mon Mar 24 21:05:57 2014

@<TRIPOS>MOLECULE
3twj_07R_1_INTS_M
   69     0     9     0     0
SMALL
NO_CHARGES


@<TRIPOS>ATOM
      1 O          17.7045   36.5845   16.2395 O.2       1 ALC1        0.0000 
      2 O          16.7840   35.2250   15.8200 O.2       7 ALL1        0.0000 
      3 O          18.6250   37.9440   16.6590 O.2       4 ALP1        0.0000 
      4 CA         20.4730   33.7475   12.2090 C.3       3 GLC5        0.0000 
      5 CA         18.2700   34.0950   12.0560 C.3       9 GLL5        0.0000 
      6 CA         22.6760   33.4000   12.3620 C.3       6 GLP5        0.0000 
      7 O          18.1620   35.0645   10.1430 O.2       1 ALC1        0.0000 
      8 O          19.2520   34.8570   11.3830 O.2       7 ALL1        0.0000 
      9 O          17.0720   35.2720    8.9030 O.2       4 ALP1        0.0000 
     10 CA         16.8080   30.1715   11.9520 C.3       3 GLC5        0.0000 
     11 CA         16.9630   31.9720   12.3300 C.3       9 GLL5        0.0000 
     12 CA         16.6530   28.3710   11.5740 C.3       6 GLP5        0.0000 
     13 CA         14.8180   28.6730   22.2855 C.3       3 GLC5        0.0000 
     14 CA         13.2520   30.1420   22.4060 C.3       9 GLL5        0.0000 
     15 CA         16.3840   27.2040   22.1650 C.3       6 GLP5        0.0000 
     16 CA         12.9515   30.6860   24.3120 C.3       3 GLC5        0.0000 
     17 CA         12.6510   31.2300   26.2180 C.3       6 GLP5        0.0000 
     18 N          13.4215   29.2460   24.8880 N.am      2 SEC2        0.0000 
     19 N          13.7090   29.6190   23.5810 N.am      8 SEL2        0.0000 
     20 N          13.1340   28.8730   26.1950 N.am      5 SEP2        0.0000 
     21 CA         14.9415   28.6535   25.0525 C.3       3 GLC5        0.0000 
     22 CA         14.9640   30.0280   24.0520 C.3       9 GLL5        0.0000 
     23 CA         14.9190   27.2790   26.0530 C.3       6 GLP5        0.0000 
     24 CA         13.8075   30.6290   25.1350 C.3       3 GLC5        0.0000 
     25 CA         17.2075   31.8805   24.4545 C.3       3 GLC5        0.0000 
     26 CA         15.8490   30.9900   23.3790 C.3       9 GLL5        0.0000 
     27 CA         18.5660   32.7710   25.5300 C.3       6 GLP5        0.0000 
     28 CA         14.8670   31.3820   25.1210 C.3       3 GLC5        0.0000 
     29 CA         13.8850   31.7740   26.8630 C.3       6 GLP5        0.0000 
     30 CA         18.0355   32.9240   23.4730 C.3       3 GLC5        0.0000 
     31 CA         17.5050   33.0770   21.4160 C.3       9 GLL5        0.0000 
     32 CA         15.5195   33.4945   22.3730 C.3       3 GLC5        0.0000 
     33 CA         13.5340   33.9120   23.3300 C.3       6 GLP5        0.0000 
     34 CA         17.1370   35.0680   21.4755 C.3       3 GLC5        0.0000 
     35 CA         17.8690   34.1450   20.1850 C.3       9 GLL5        0.0000 
     36 CA         16.4050   35.9910   22.7660 C.3       6 GLP5        0.0000 
     37 CA         18.0825   35.8185   19.7295 C.3       3 GLC5        0.0000 
     38 CA         18.2960   37.4920   19.2740 C.3       6 GLP5        0.0000 
     39 CA         16.1760   32.3448   15.1173 C.3       3 GLC5        0.0000 
     40 CA         15.7660   34.5490   14.9280 C.3       9 GLL5        0.0000 
     41 CA         16.2200   30.4870   15.8870 C.3       6 GLP5        0.0000 
     42 CA         16.3203   34.0895   11.8405 C.3       3 GLC5        0.0000 
     43 CA         16.4980   33.8560   13.7670 C.3       9 GLL5        0.0000 
     44 CA         15.6150   33.9220   10.2550 C.3       6 GLP5        0.0000 
     45 CA         18.6483   34.0965   14.1815 C.3       3 GLC5        0.0000 
     46 CA         17.5530   34.6580   13.0850 C.3       9 GLL5        0.0000 
     47 CA         20.2710   33.9360   14.9370 C.3       6 GLP5        0.0000 
     48 CA         16.8738   33.6770   11.0595 C.3       3 GLC5        0.0000 
     49 CA         19.2018   33.6840   13.4005 C.3       3 GLC5        0.0000 
     50 CA         17.9950   32.7690   11.6720 C.3       9 GLL5        0.0000 
     51 CA         18.3410   31.1227   10.6110 C.3       3 GLC5        0.0000 
     52 CA         19.2030   29.8750    9.2210 C.3       6 GLP5        0.0000 
     53 CA         15.0518   31.5065   11.6618 C.3       3 GLC5        0.0000 
     54 CA         13.5130   30.7620   10.4640 C.3       6 GLP5        0.0000 
     55 CA         16.1028   33.0865   11.5572 C.3       3 GLC5        0.0000 
     56 CA         16.4053   31.3690   14.3732 C.3       3 GLC5        0.0000 
     57 CA         14.6455   32.9935   22.5400 C.3       3 GLC5        0.0000 
     58 CA         16.1340   32.5800   21.3290 C.3       9 GLL5        0.0000 
     59 CA         16.6122   34.4098   22.0693 C.3       3 GLC5        0.0000 
     60 CA         13.5965   32.2690   22.6875 C.3       3 GLC5        0.0000 
     61 CA         14.0660   31.1100   21.6840 C.3       9 GLL5        0.0000 
     62 CA         15.8366   28.9290   22.7892 C.3       3 GLC5        0.0000 
     63 CA         15.3800   31.5700   22.1710 C.3       9 GLL5        0.0000 
     64 CA         14.4703   32.2105   23.5228 C.3       3 GLC5        0.0000 
     65 CA         17.7205   31.4697   22.0523 C.3       3 GLC5        0.0000 
     66 CA         19.6380   31.4070   21.5400 C.3       6 GLP5        0.0000 
     67 CA         18.9760   34.4445   21.5892 C.3       3 GLC5        0.0000 
     68 CA         20.2650   35.2780   22.3780 C.3       6 GLP5        0.0000 
     69 CA         18.6625   32.5090   21.1702 C.3       3 GLC5        0.0000 
@<TRIPOS>BOND
@<TRIPOS>SUBSTRUCTURE
     1 ALC1        1 GROUP        1 X    ALC  0     ROOT ALC X 1
     2 SEC2       18 GROUP        1 X    SEC  0     **** SEC X 2
     3 GLC5        4 GROUP        1 X    GLC  0     **** GLC X 6
     4 ALP1        3 GROUP        1 Y    ALP  0     ROOT ALP Y 8
     5 SEP2       20 GROUP        1 Y    SEP  0     **** SEP Y 9
     6 GLP5        6 GROUP        1 Y    GLP  0     **** GLP Y 13
     7 ALL1        2 GROUP        1 Z    ALL  0     ROOT ALL Z 15
     8 SEL2       19 GROUP        1 Z    SEL  0     **** SEL Z 16
     9 GLL5        5 GROUP        1 Z    GLL  0     **** GLL Z 20
@<TRIPOS>SET

