#    Name: 3twj_07R_1_ligand
#    Modification time : Mon Mar 24 21:05:57 2014

@<TRIPOS>MOLECULE
3twj_07R_1_ligand
   37    39     1     0     0
SMALL
NO_CHARGES


@<TRIPOS>ATOM
      1 O01        18.1410   33.9910   17.4340 O.2       1 07R1        0.0000 
      2 C02        17.0810   34.6940   17.1920 C.2       1 07R1        0.0000 
      3 N03        16.7840   35.2250   15.8200 N.am      1 07R1        0.0000 
      4 C04        15.7660   34.5490   14.9280 C.3       1 07R1        0.0000 
      5 C05        16.4980   33.8560   13.7670 C.ar      1 07R1        0.0000 
      6 C06        17.5530   34.6580   13.0850 C.ar      1 07R1        0.0000 
      7 C07        18.2700   34.0950   12.0560 C.ar      1 07R1        0.0000 
      8 O08        19.2520   34.8570   11.3830 O.3       1 07R1        0.0000 
      9 C09        17.9950   32.7690   11.6720 C.ar      1 07R1        0.0000 
     10 C10        16.9630   31.9720   12.3300 C.ar      1 07R1        0.0000 
     11 C11        16.2180   32.5300   13.3890 C.ar      1 07R1        0.0000 
     12 N12        16.1300   34.9920   18.2600 N.am      1 07R1        0.0000 
     13 C13        16.3900   34.1760   19.4700 C.2       1 07R1        0.0000 
     14 N14        15.5060   33.2670   20.1570 N.2       1 07R1        0.0000 
     15 C15        16.1340   32.5800   21.3290 C.2       1 07R1        0.0000 
     16 C16        15.3800   31.5700   22.1710 C.ar      1 07R1        0.0000 
     17 C17        14.0660   31.1100   21.6840 C.ar      1 07R1        0.0000 
     18 C18        13.2520   30.1420   22.4060 C.ar      1 07R1        0.0000 
     19 N19        13.7090   29.6190   23.5810 N.ar      1 07R1        0.0000 
     20 C20        14.9640   30.0280   24.0520 C.ar      1 07R1        0.0000 
     21 C21        15.8490   30.9900   23.3790 C.ar      1 07R1        0.0000 
     22 C22        17.5050   33.0770   21.4160 C.2       1 07R1        0.0000 
     23 S23        17.8690   34.1450   20.1850 S.3       1 07R1        0.0000 
     24 H          17.2614   36.0340   15.4871 H         1 07R1        0.0000 
     25 H          15.0831   35.2844   14.5239 H         1 07R1        0.0000 
     26 H          15.2175   33.8058   15.4912 H         1 07R1        0.0000 
     27 H          17.7008   35.6029   13.4144 H         1 07R1        0.0000 
     28 H          18.5239   32.3283   10.9083 H         1 07R1        0.0000 
     29 H          16.8005   31.0259   12.0108 H         1 07R1        0.0000 
     30 H          15.5062   31.9937   13.8604 H         1 07R1        0.0000 
     31 H          15.4337   35.6226   18.1986 H         1 07R1        0.0000 
     32 H          13.7180   31.4920   20.7999 H         1 07R1        0.0000 
     33 H          12.3521   29.8830   22.0022 H         1 07R1        0.0000 
     34 H          15.3252   29.6307   24.9561 H         1 07R1        0.0000 
     35 H          16.7318   31.2087   23.7714 H         1 07R1        0.0000 
     36 H          18.1622   32.8919   22.0249 H         1 07R1        0.0000 
     37 H          18.8262   35.1214   10.5177 H         1 07R1        0.0000 
@<TRIPOS>BOND
     1    2    1 2    
     2    3    2 am   
     3   12    2 am   
     4    4    3 1    
     5   24    3 1    
     6    5    4 1    
     7   25    4 1    
     8   26    4 1    
     9    6    5 ar   
    10   11    5 ar   
    11    7    6 ar   
    12   27    6 1    
    13    8    7 1    
    14    9    7 ar   
    15   37    8 1    
    16   10    9 ar   
    17   28    9 1    
    18   11   10 ar   
    19   29   10 1    
    20   30   11 1    
    21   13   12 1    
    22   31   12 1    
    23   14   13 2    
    24   23   13 1    
    25   15   14 1    
    26   16   15 1    
    27   22   15 2    
    28   17   16 ar   
    29   21   16 ar   
    30   18   17 ar   
    31   32   17 1    
    32   19   18 ar   
    33   33   18 1    
    34   20   19 ar   
    35   21   20 ar   
    36   34   20 1    
    37   35   21 1    
    38   23   22 1    
    39   36   22 1    
@<TRIPOS>SUBSTRUCTURE
     1 07R1        1 GROUP   
@<TRIPOS>SET

