#    Name: 3lkz_SFG_2_INTS_M
#    Modification time : Mon Mar 24 21:45:35 2014

@<TRIPOS>MOLECULE
3lkz_SFG_2_INTS_M
   59     0    12     0     0
SMALL
NO_CHARGES


@<TRIPOS>ATOM
      1 OD1         2.4250   -1.4090  -53.4590 O.co2     3 ASC3        0.0000 
      2 OD1         2.7310   -1.2500  -52.0750 O.co2    11 ASL3        0.0000 
      3 OD1         2.1190   -1.5680  -54.8430 O.co2     7 ASP3        0.0000 
      4 O           2.4250   -1.4090  -53.4590 O.2       1 ALC1        0.0000 
      5 O           2.7310   -1.2500  -52.0750 O.2       9 ALL1        0.0000 
      6 O           2.1190   -1.5680  -54.8430 O.2       5 ALP1        0.0000 
      7 CA          1.6745   -1.6385  -51.1180 C.3       4 GLC5        0.0000 
      8 CA          3.1390   -0.0020  -51.4190 C.3      12 GLL5        0.0000 
      9 CA          0.2100   -3.2750  -50.8170 C.3       8 GLP5        0.0000 
     10 N           1.0365    2.2150  -49.6020 N.am      2 SEC2        0.0000 
     11 N           2.1100    1.6800  -49.9430 N.am     10 SEL2        0.0000 
     12 N          -0.0370    2.7500  -49.2610 N.am      6 SEP2        0.0000 
     13 N           2.0830    1.0090  -48.5270 N.am      2 SEC2        0.0000 
     14 N           2.0560    0.3380  -47.1110 N.am      6 SEP2        0.0000 
     15 CA          4.3615   -1.1000  -54.2345 C.3       4 GLC5        0.0000 
     16 CA          4.6280    0.6550  -53.3470 C.3      12 GLL5        0.0000 
     17 CA          4.0950   -2.8550  -55.1220 C.3       8 GLP5        0.0000 
     18 CA          8.4535   -0.0325  -53.6905 C.3       4 GLC5        0.0000 
     19 CA          7.4470    1.6830  -54.4280 C.3      12 GLL5        0.0000 
     20 CA          9.4600   -1.7480  -52.9530 C.3       8 GLP5        0.0000 
     21 O           7.3830    5.1275  -53.3085 O.2       1 ALC1        0.0000 
     22 O           7.6040    3.7270  -53.1140 O.2       9 ALL1        0.0000 
     23 O           7.1620    6.5280  -53.5030 O.2       5 ALP1        0.0000 
     24 O          10.8135    5.1250  -54.9705 O.2       1 ALC1        0.0000 
     25 O           9.8910    4.3490  -54.2840 O.2       9 ALL1        0.0000 
     26 O          11.7360    5.9010  -55.6570 O.2       5 ALP1        0.0000 
     27 CA          9.6025    0.0785  -53.8305 C.3       4 GLC5        0.0000 
     28 CA          9.7450    1.9050  -54.7080 C.3      12 GLL5        0.0000 
     29 CA         15.6555   -0.3720  -55.3340 C.3       4 GLC5        0.0000 
     30 CA         13.8070   -0.2130  -56.4300 C.3      12 GLL5        0.0000 
     31 CA         17.5040   -0.5310  -54.2380 C.3       8 GLP5        0.0000 
     32 CA         13.9270   -2.1480  -56.0005 C.3       4 GLC5        0.0000 
     33 CA         14.0470   -4.0830  -55.5710 C.3       8 GLP5        0.0000 
     34 O          15.9530   -0.6485  -57.2695 O.2       1 ALC1        0.0000 
     35 O          14.6060   -0.3770  -57.5360 O.2       9 ALL1        0.0000 
     36 O          17.3000   -0.9200  -57.0030 O.2       5 ALP1        0.0000 
     37 N          15.2530   -1.7525  -54.8580 N.am      2 SEC2        0.0000 
     38 N          14.1120   -0.8310  -55.2660 N.am     10 SEL2        0.0000 
     39 N          16.3940   -2.6740  -54.4500 N.am      6 SEP2        0.0000 
     40 CA         11.4005   -1.2190  -53.5625 C.3       4 GLC5        0.0000 
     41 CA         13.3410   -0.6900  -54.1720 C.3      12 GLL5        0.0000 
     42 CA         12.8295   -0.1935  -52.3285 C.3       4 GLC5        0.0000 
     43 CA         12.3180    0.3030  -50.4850 C.3       8 GLP5        0.0000 
     44 CA         13.9380    1.2065  -53.9645 C.3       4 GLC5        0.0000 
     45 CA         14.5350    3.1030  -53.7570 C.3       8 GLP5        0.0000 
     46 CA         15.4225   -0.6105  -54.2050 C.3       4 GLC5        0.0000 
     47 CA         13.6940   -2.3865  -54.8715 C.3       4 GLC5        0.0000 
     48 CA         12.2135   -1.7495  -55.3720 C.3       4 GLC5        0.0000 
     49 CA         11.0860   -2.8090  -56.5720 C.3       8 GLP5        0.0000 
     50 N          12.8935    0.9535  -53.0460 N.am      2 SEC2        0.0000 
     51 N          12.2450    0.0600  -54.1870 N.am     10 SEL2        0.0000 
     52 N          13.5420    1.8470  -51.9050 N.am      6 SEP2        0.0000 
     53 CA         10.6625   -0.5160  -54.1300 C.3       4 GLC5        0.0000 
     54 CA         11.8650    0.7160  -55.3070 C.3      12 GLL5        0.0000 
     55 CA          7.4607    2.4648  -52.2758 C.3       4 GLC5        0.0000 
     56 CA          7.3300    2.4910  -50.1250 C.3       8 GLP5        0.0000 
     57 CA         13.5399    1.7796  -54.8199 C.3       4 GLC5        0.0000 
     58 CA         12.6420    0.6060  -56.4870 C.3      12 GLL5        0.0000 
     59 CA         11.8154   -1.1764  -56.2274 C.3       4 GLC5        0.0000 
@<TRIPOS>BOND
@<TRIPOS>SUBSTRUCTURE
     1 ALC1        4 GROUP        1 X    ALC  0     ROOT ALC X 1
     2 SEC2       10 GROUP        1 X    SEC  0     **** SEC X 2
     3 ASC3        1 GROUP        1 X    ASC  0     **** ASC X 3
     4 GLC5        7 GROUP        1 X    GLC  0     **** GLC X 6
     5 ALP1        6 GROUP        1 Y    ALP  0     ROOT ALP Y 8
     6 SEP2       12 GROUP        1 Y    SEP  0     **** SEP Y 9
     7 ASP3        3 GROUP        1 Y    ASP  0     **** ASP Y 10
     8 GLP5        9 GROUP        1 Y    GLP  0     **** GLP Y 13
     9 ALL1        5 GROUP        1 Z    ALL  0     ROOT ALL Z 15
    10 SEL2       11 GROUP        1 Z    SEL  0     **** SEL Z 16
    11 ASL3        2 GROUP        1 Z    ASL  0     **** ASL Z 17
    12 GLL5        8 GROUP        1 Z    GLL  0     **** GLL Z 20
@<TRIPOS>SET

