#    Name: 3lkz_SFG_2_ligand
#    Modification time : Mon Mar 24 21:45:35 2014

@<TRIPOS>MOLECULE
3lkz_SFG_2_ligand
   48    50     1     0     0
SMALL
NO_CHARGES


@<TRIPOS>ATOM
      1 N           2.7310   -1.2500  -52.0750 N.4       1 SFG301      0.0000 
      2 CA          3.1390   -0.0020  -51.4190 C.3       1 SFG301      0.0000 
      3 C           2.0180    0.4690  -50.5200 C.2       1 SFG301      0.0000 
      4 O           1.0600   -0.2390  -50.2930 O.co2     1 SFG301      0.0000 
      5 OXT         2.1100    1.6800  -49.9430 O.co2     1 SFG301      0.0000 
      6 CB          3.4480    1.0860  -52.4660 C.3       1 SFG301      0.0000 
      7 CG          4.6280    0.6550  -53.3470 C.3       1 SFG301      0.0000 
      8 CD          4.9580    1.7480  -54.3700 C.3       1 SFG301      0.0000 
      9 NE          3.8060    1.9670  -55.2530 N.3       1 SFG301      0.0000 
     10 C5'         6.1720    1.3360  -55.2160 C.3       1 SFG301      0.0000 
     11 C4'         7.4470    1.6830  -54.4280 C.3       1 SFG301      0.0000 
     12 O4'         8.6120    1.0270  -54.9550 O.3       1 SFG301      0.0000 
     13 C3'         7.7360    3.1940  -54.4250 C.3       1 SFG301      0.0000 
     14 O3'         7.6040    3.7270  -53.1140 O.3       1 SFG301      0.0000 
     15 C2'         9.1740    3.3150  -54.9680 C.3       1 SFG301      0.0000 
     16 O2'         9.8910    4.3490  -54.2840 O.3       1 SFG301      0.0000 
     17 C1'         9.7450    1.9050  -54.7080 C.3       1 SFG301      0.0000 
     18 N9         10.8200    1.5290  -55.6280 N.pl3     1 SFG301      0.0000 
     19 C8         10.9730    1.8970  -56.9420 C.2       1 SFG301      0.0000 
     20 N7         12.0370    1.3550  -57.4370 N.2       1 SFG301      0.0000 
     21 C5         12.6420    0.6060  -56.4870 C.ar      1 SFG301      0.0000 
     22 C6         13.8070   -0.2130  -56.4300 C.ar      1 SFG301      0.0000 
     23 N6         14.6060   -0.3770  -57.5360 N.pl3     1 SFG301      0.0000 
     24 N1         14.1120   -0.8310  -55.2660 N.ar      1 SFG301      0.0000 
     25 C2         13.3410   -0.6900  -54.1720 C.ar      1 SFG301      0.0000 
     26 N3         12.2450    0.0600  -54.1870 N.ar      1 SFG301      0.0000 
     27 C4         11.8650    0.7160  -55.3070 C.ar      1 SFG301      0.0000 
     28 H           4.0185   -0.1581  -50.8235 H         1 SFG301      0.0000 
     29 H           3.6987    2.0088  -51.9553 H         1 SFG301      0.0000 
     30 H           2.5728    1.2395  -53.0870 H         1 SFG301      0.0000 
     31 H           4.3678   -0.2596  -53.8708 H         1 SFG301      0.0000 
     32 H           5.4961    0.4769  -52.7199 H         1 SFG301      0.0000 
     33 H           5.2031    2.6505  -53.8419 H         1 SFG301      0.0000 
     34 H           6.1654    1.8824  -56.1426 H         1 SFG301      0.0000 
     35 H           6.1409    0.2758  -55.3954 H         1 SFG301      0.0000 
     36 H           7.2934    1.3889  -53.3865 H         1 SFG301      0.0000 
     37 H           7.0795    3.6460  -55.1385 H         1 SFG301      0.0000 
     38 H           9.1058    3.4517  -56.0186 H         1 SFG301      0.0000 
     39 H          10.0372    1.8412  -53.6938 H         1 SFG301      0.0000 
     40 H          10.3371    2.4918  -57.4012 H         1 SFG301      0.0000 
     41 H          14.2933    0.0689  -58.3747 H         1 SFG301      0.0000 
     42 H          15.4303   -0.9279  -57.4056 H         1 SFG301      0.0000 
     43 H          13.6205   -1.1905  -53.2847 H         1 SFG301      0.0000 
     44 H           3.5140   -1.8414  -52.2678 H         1 SFG301      0.0000 
     45 H           2.0977   -1.7774  -51.5086 H         1 SFG301      0.0000 
     46 H           2.2716   -1.0785  -52.9465 H         1 SFG301      0.0000 
     47 H           7.9235    4.6719  -53.1856 H         1 SFG301      0.0000 
     48 H          10.3642    4.8558  -55.0046 H         1 SFG301      0.0000 
@<TRIPOS>BOND
     1    2    1 1    
     2   44    1 1    
     3   45    1 1    
     4   46    1 1    
     5    3    2 1    
     6    6    2 1    
     7   28    2 1    
     8    4    3 ar   
     9    5    3 ar   
    10    7    6 1    
    11   29    6 1    
    12   30    6 1    
    13    8    7 1    
    14   31    7 1    
    15   32    7 1    
    16    9    8 1    
    17   10    8 1    
    18   33    8 1    
    19   11   10 1    
    20   34   10 1    
    21   35   10 1    
    22   12   11 1    
    23   13   11 1    
    24   36   11 1    
    25   17   12 1    
    26   14   13 1    
    27   15   13 1    
    28   37   13 1    
    29   47   14 1    
    30   16   15 1    
    31   17   15 1    
    32   38   15 1    
    33   48   16 1    
    34   18   17 1    
    35   39   17 1    
    36   19   18 1    
    37   27   18 1    
    38   20   19 2    
    39   40   19 1    
    40   21   20 1    
    41   22   21 ar   
    42   27   21 ar   
    43   23   22 1    
    44   24   22 ar   
    45   41   23 1    
    46   42   23 1    
    47   25   24 ar   
    48   26   25 ar   
    49   43   25 1    
    50   27   26 ar   
@<TRIPOS>SUBSTRUCTURE
     1 SFG301      1 GROUP   
@<TRIPOS>SET

