#    Name: 4btt_VYR_2_INTS_M
#    Modification time : Tue Mar 25 08:21:51 2014

@<TRIPOS>MOLECULE
4btt_VYR_2_INTS_M
   71     0     6     0     0
SMALL
NO_CHARGES


@<TRIPOS>ATOM
      1 CA         28.5395  -20.0665  -43.4830 C.3       2 GLC5        0.0000 
      2 CA         29.6400  -21.2610  -43.0580 C.3       6 GLL5        0.0000 
      3 CA         27.4390  -18.8720  -43.9080 C.3       4 GLP5        0.0000 
      4 CA         31.2295  -22.4365  -44.7605 C.3       2 GLC5        0.0000 
      5 CA         31.8540  -23.3520  -42.9360 C.3       6 GLL5        0.0000 
      6 CA         30.6050  -21.5210  -46.5850 C.3       4 GLP5        0.0000 
      7 CA         32.9355  -23.9270  -44.7865 C.3       2 GLC5        0.0000 
      8 CA         34.0170  -24.5020  -46.6370 C.3       4 GLP5        0.0000 
      9 CA         31.5655  -24.2725  -40.9970 C.3       2 GLC5        0.0000 
     10 CA         31.2770  -25.1930  -39.0580 C.3       4 GLP5        0.0000 
     11 CA         34.2455  -24.1570  -44.4700 C.3       2 GLC5        0.0000 
     12 CA         34.4740  -23.8120  -42.3030 C.3       6 GLL5        0.0000 
     13 CA         32.9060  -25.1010  -40.3930 C.3       2 GLC5        0.0000 
     14 CA         34.5350  -25.0090  -41.7280 C.3       6 GLL5        0.0000 
     15 CA         34.2125  -26.2730  -43.5155 C.3       2 GLC5        0.0000 
     16 CA         33.8900  -27.5370  -45.3030 C.3       4 GLP5        0.0000 
     17 CA         39.1655  -20.4510  -39.0310 C.3       2 GLC5        0.0000 
     18 CA         38.7470  -22.4460  -39.1630 C.3       6 GLL5        0.0000 
     19 CA         39.5840  -18.4560  -38.8990 C.3       4 GLP5        0.0000 
     20 CA         40.5725  -19.9730  -39.8445 C.3       2 GLC5        0.0000 
     21 CA         41.5610  -21.4900  -40.7900 C.3       6 GLL5        0.0000 
     22 CA         43.1545  -19.9895  -41.1305 C.3       2 GLC5        0.0000 
     23 CA         44.7480  -18.4890  -41.4710 C.3       4 GLP5        0.0000 
     24 O          34.3635  -27.2430  -39.0805 O.2       1 ALC1        0.0000 
     25 O          35.7080  -27.6590  -39.0690 O.2       5 ALL1        0.0000 
     26 O          33.0190  -26.8270  -39.0920 O.2       3 ALP1        0.0000 
     27 CA         33.3880  -28.5030  -33.5680 C.3       2 GLC5        0.0000 
     28 CA         34.1040  -27.5360  -34.9140 C.3       6 GLL5        0.0000 
     29 CA         32.6720  -29.4700  -32.2220 C.3       4 GLP5        0.0000 
     30 CA         32.2695  -28.3590  -35.3515 C.3       2 GLC5        0.0000 
     31 CA         30.4350  -29.1820  -35.7890 C.3       4 GLP5        0.0000 
     32 CA         36.7450  -21.8400  -33.9850 C.3       2 GLC5        0.0000 
     33 CA         35.9780  -23.6170  -34.4070 C.3       6 GLL5        0.0000 
     34 CA         37.5120  -20.0630  -33.5630 C.3       4 GLP5        0.0000 
     35 CA         34.8820  -22.8790  -35.8530 C.3       2 GLC5        0.0000 
     36 CA         33.7860  -22.1410  -37.2990 C.3       4 GLP5        0.0000 
     37 CA         34.9820  -22.0200  -31.4185 C.3       2 GLC5        0.0000 
     38 CA         35.0550  -22.8720  -33.4180 C.3       6 GLL5        0.0000 
     39 CA         34.9090  -21.1680  -29.4190 C.3       4 GLP5        0.0000 
     40 CA         35.7215  -21.2600  -33.8470 C.3       2 GLC5        0.0000 
     41 CA         36.3880  -19.6480  -34.2760 C.3       4 GLP5        0.0000 
     42 CA         33.5375  -22.8180  -34.4390 C.3       2 GLC5        0.0000 
     43 CA         32.0200  -22.7640  -35.4600 C.3       4 GLP5        0.0000 
     44 CA         35.1505  -22.8915  -30.5880 C.3       2 GLC5        0.0000 
     45 CA         35.3920  -24.6150  -31.7570 C.3       6 GLL5        0.0000 
     46 CA         34.2460  -26.0195  -31.0830 C.3       2 GLC5        0.0000 
     47 CA         33.1000  -27.4240  -30.4090 C.3       4 GLP5        0.0000 
     48 CA         32.7283  -19.9310  -43.2605 C.3       2 GLC5        0.0000 
     49 CA         33.3960  -21.6360  -42.1050 C.3       6 GLL5        0.0000 
     50 CA         32.6530  -18.5340  -44.3440 C.3       4 GLP5        0.0000 
     51 CA         33.0547  -19.7100  -40.8170 C.3       2 GLC5        0.0000 
     52 CA         32.2110  -21.0200  -42.2490 C.3       6 GLL5        0.0000 
     53 CA         33.3060  -18.0920  -39.4570 C.3       4 GLP5        0.0000 
     54 CA         30.5245  -21.5255  -44.7405 C.3       2 GLC5        0.0000 
     55 CA         31.2480  -21.7990  -42.7340 C.3       6 GLL5        0.0000 
     56 CA         31.5485  -20.0320  -43.6200 C.3       2 GLC5        0.0000 
     57 CA         32.6174  -21.7297  -40.5832 C.3       2 GLC5        0.0000 
     58 CA         33.2090  -21.8960  -38.7110 C.3       4 GLP5        0.0000 
     59 CA         28.8200  -22.3105  -42.1085 C.3       2 GLC5        0.0000 
     60 CA         27.1960  -23.0910  -41.3210 C.3       4 GLP5        0.0000 
     61 CA         33.5730  -22.6358  -40.5323 C.3       2 GLC5        0.0000 
     62 CA         33.4000  -22.9390  -42.4040 C.3       6 GLL5        0.0000 
     63 CA         37.9875  -21.5985  -37.5180 C.3       2 GLC5        0.0000 
     64 CA         38.0890  -23.5040  -38.2570 C.3       6 GLL5        0.0000 
     65 CA         37.5570  -20.2220  -36.3260 C.3       4 GLP5        0.0000 
     66 CA         39.8685  -24.1313  -42.2428 C.3       2 GLC5        0.0000 
     67 CA         39.9010  -23.0020  -40.0580 C.3       6 GLL5        0.0000 
     68 CA         39.7850  -24.5020  -44.2470 C.3       4 GLP5        0.0000 
     69 CA         33.1350  -25.6185  -35.4835 C.3       2 GLC5        0.0000 
     70 CA         34.7880  -26.6300  -35.9380 C.3       6 GLL5        0.0000 
     71 CA         31.8240  -24.1540  -35.5410 C.3       4 GLP5        0.0000 
@<TRIPOS>BOND
@<TRIPOS>SUBSTRUCTURE
     1 ALC1       24 GROUP        1 X    ALC  0     ROOT ALC X 1
     2 GLC5        1 GROUP        1 X    GLC  0     **** GLC X 6
     3 ALP1       26 GROUP        1 Y    ALP  0     ROOT ALP Y 8
     4 GLP5        3 GROUP        1 Y    GLP  0     **** GLP Y 13
     5 ALL1       25 GROUP        1 Z    ALL  0     ROOT ALL Z 15
     6 GLL5        2 GROUP        1 Z    GLL  0     **** GLL Z 20
@<TRIPOS>SET

