#    Name: 4btt_VYR_2_ligand
#    Modification time : Tue Mar 25 08:21:51 2014

@<TRIPOS>MOLECULE
4btt_VYR_2_ligand
   75    79     1     0     0
SMALL
NO_CHARGES


@<TRIPOS>ATOM
      1 C34        33.3960  -21.6360  -42.1050 C.2       1 VYR1246     0.0000 
      2 C35        32.2110  -21.0200  -42.2490 C.2       1 VYR1246     0.0000 
      3 C36        31.2480  -21.7990  -42.7340 C.2       1 VYR1246     0.0000 
      4 CL         29.6400  -21.2610  -43.0580 Cl        1 VYR1246     0.0000 
      5 S37        31.8540  -23.3520  -42.9360 S.3       1 VYR1246     0.0000 
      6 C33        33.4000  -22.9390  -42.4040 C.2       1 VYR1246     0.0000 
      7 C31        34.4740  -23.8120  -42.3030 C.2       1 VYR1246     0.0000 
      8 C32        34.5350  -25.0090  -41.7280 C.2       1 VYR1246     0.0000 
      9 O30        35.7110  -23.4640  -42.7430 O.3       1 VYR1246     0.0000 
     10 N29        36.5410  -24.5460  -42.4280 N.2       1 VYR1246     0.0000 
     11 C28        35.7890  -25.4610  -41.8220 C.2       1 VYR1246     0.0000 
     12 C27        36.3020  -26.8080  -41.3070 C.3       1 VYR1246     0.0000 
     13 C17        36.6740  -26.8250  -39.8090 C.3       1 VYR1246     0.0000 
     14 C18        36.8040  -25.4240  -39.1520 C.2       1 VYR1246     0.0000 
     15 O43        35.7860  -24.8770  -38.7210 O.2       1 VYR1246     0.0000 
     16 N19        38.0060  -24.8310  -38.9490 N.am      1 VYR1246     0.0000 
     17 C20        38.0890  -23.5040  -38.2570 C.3       1 VYR1246     0.0000 
     18 C21        38.7470  -22.4460  -39.1630 C.3       1 VYR1246     0.0000 
     19 C22        39.9010  -23.0020  -40.0580 C.3       1 VYR1246     0.0000 
     20 O25        41.1790  -22.4120  -39.7530 O.3       1 VYR1246     0.0000 
     21 C26        41.5610  -21.4900  -40.7900 C.3       1 VYR1246     0.0000 
     22 C23        40.0030  -24.5190  -40.4190 C.3       1 VYR1246     0.0000 
     23 C24        39.2980  -25.4410  -39.4050 C.3       1 VYR1246     0.0000 
     24 N16        35.7080  -27.6590  -39.0690 N.pl3     1 VYR1246     0.0000 
     25 S15        36.4250  -28.5700  -37.9000 S.o2      1 VYR1246     0.0000 
     26 O40        35.4060  -29.4990  -37.3080 O.2       1 VYR1246     0.0000 
     27 O41        37.5060  -29.4180  -38.5100 O.2       1 VYR1246     0.0000 
     28 C9         37.1180  -27.5180  -36.6360 C.ar      1 VYR1246     0.0000 
     29 C8         36.3280  -26.6760  -35.8110 C.ar      1 VYR1246     0.0000 
     30 C13        34.7880  -26.6300  -35.9380 C.3       1 VYR1246     0.0000 
     31 C14        34.1040  -27.5360  -34.9140 C.3       1 VYR1246     0.0000 
     32 C10        38.5130  -27.5250  -36.5210 C.ar      1 VYR1246     0.0000 
     33 C11        39.1650  -26.7260  -35.5870 C.ar      1 VYR1246     0.0000 
     34 C12        38.4070  -25.9020  -34.7600 C.ar      1 VYR1246     0.0000 
     35 C7         37.0110  -25.8650  -34.8700 C.ar      1 VYR1246     0.0000 
     36 N3         36.3250  -25.0110  -33.9700 N.am      1 VYR1246     0.0000 
     37 C2         35.9780  -23.6170  -34.4070 C.3       1 VYR1246     0.0000 
     38 C1         35.0550  -22.8720  -33.4180 C.3       1 VYR1246     0.0000 
     39 O6         34.4950  -23.6230  -32.3010 O.3       1 VYR1246     0.0000 
     40 C5         35.3920  -24.6150  -31.7570 C.3       1 VYR1246     0.0000 
     41 C4         36.0570  -25.4580  -32.6450 C.2       1 VYR1246     0.0000 
     42 O39        36.3460  -26.5990  -32.2830 O.2       1 VYR1246     0.0000 
     43 H          34.2253  -21.1455  -41.7921 H         1 VYR1246     0.0000 
     44 H          32.0707  -20.0518  -42.0086 H         1 VYR1246     0.0000 
     45 H          33.7944  -25.4797  -41.3086 H         1 VYR1246     0.0000 
     46 H          37.1901  -27.1022  -41.8920 H         1 VYR1246     0.0000 
     47 H          35.5323  -27.5782  -41.4857 H         1 VYR1246     0.0000 
     48 H          37.6689  -27.3109  -39.7302 H         1 VYR1246     0.0000 
     49 H          38.6803  -23.5930  -37.3434 H         1 VYR1246     0.0000 
     50 H          37.0891  -23.1565  -37.9895 H         1 VYR1246     0.0000 
     51 H          39.1529  -21.6391  -38.5390 H         1 VYR1246     0.0000 
     52 H          37.9833  -22.0073  -39.8183 H         1 VYR1246     0.0000 
     53 H          39.6369  -22.5110  -41.1322 H         1 VYR1246     0.0000 
     54 H          41.0626  -24.7897  -40.4764 H         1 VYR1246     0.0000 
     55 H          39.5614  -24.6685  -41.4100 H         1 VYR1246     0.0000 
     56 H          39.1118  -26.4021  -39.8825 H         1 VYR1246     0.0000 
     57 H          39.9624  -25.5928  -38.5553 H         1 VYR1246     0.0000 
     58 H          34.7997  -27.7239  -39.1809 H         1 VYR1246     0.0000 
     59 H          34.5097  -26.9457  -36.9449 H         1 VYR1246     0.0000 
     60 H          34.4548  -25.6012  -35.7920 H         1 VYR1246     0.0000 
     61 H          39.0674  -28.1381  -37.1450 H         1 VYR1246     0.0000 
     62 H          40.1823  -26.7436  -35.5093 H         1 VYR1246     0.0000 
     63 H          38.8752  -25.3100  -34.0564 H         1 VYR1246     0.0000 
     64 H          35.4775  -23.6462  -35.3881 H         1 VYR1246     0.0000 
     65 H          36.8982  -23.0239  -34.5310 H         1 VYR1246     0.0000 
     66 H          34.2282  -22.4083  -34.0286 H         1 VYR1246     0.0000 
     67 H          35.6340  -21.9824  -33.0375 H         1 VYR1246     0.0000 
     68 H          34.8106  -25.2353  -30.9900 H         1 VYR1246     0.0000 
     69 H          36.1490  -24.0780  -31.0864 H         1 VYR1246     0.0000 
     70 H          42.4448  -21.0626  -40.5998 H         1 VYR1246     0.0000 
     71 H          41.6392  -21.9420  -41.6786 H         1 VYR1246     0.0000 
     72 H          40.8947  -20.7516  -40.8944 H         1 VYR1246     0.0000 
     73 H          34.3789  -28.4915  -35.0213 H         1 VYR1246     0.0000 
     74 H          34.3266  -27.2705  -33.9759 H         1 VYR1246     0.0000 
     75 H          33.1080  -27.5063  -34.9985 H         1 VYR1246     0.0000 
@<TRIPOS>BOND
     1    2    1 1    
     2    6    1 2    
     3   43    1 1    
     4    3    2 2    
     5   44    2 1    
     6    4    3 1    
     7    5    3 1    
     8    6    5 1    
     9    7    6 1    
    10    8    7 2    
    11    9    7 1    
    12   11    8 1    
    13   45    8 1    
    14   10    9 1    
    15   11   10 2    
    16   12   11 1    
    17   13   12 1    
    18   46   12 1    
    19   47   12 1    
    20   14   13 1    
    21   24   13 1    
    22   48   13 1    
    23   15   14 2    
    24   16   14 am   
    25   17   16 1    
    26   23   16 1    
    27   18   17 1    
    28   49   17 1    
    29   50   17 1    
    30   19   18 1    
    31   51   18 1    
    32   52   18 1    
    33   20   19 1    
    34   22   19 1    
    35   53   19 1    
    36   21   20 1    
    37   70   21 1    
    38   71   21 1    
    39   72   21 1    
    40   23   22 1    
    41   54   22 1    
    42   55   22 1    
    43   56   23 1    
    44   57   23 1    
    45   25   24 1    
    46   58   24 1    
    47   26   25 2    
    48   27   25 2    
    49   28   25 1    
    50   29   28 ar   
    51   32   28 ar   
    52   30   29 1    
    53   35   29 ar   
    54   31   30 1    
    55   59   30 1    
    56   60   30 1    
    57   73   31 1    
    58   74   31 1    
    59   75   31 1    
    60   33   32 ar   
    61   61   32 1    
    62   34   33 ar   
    63   62   33 1    
    64   35   34 ar   
    65   63   34 1    
    66   36   35 1    
    67   37   36 1    
    68   41   36 am   
    69   38   37 1    
    70   64   37 1    
    71   65   37 1    
    72   39   38 1    
    73   66   38 1    
    74   67   38 1    
    75   40   39 1    
    76   41   40 1    
    77   68   40 1    
    78   69   40 1    
    79   42   41 2    
@<TRIPOS>SUBSTRUCTURE
     1 VYR1246     1 GROUP   
@<TRIPOS>SET

