#    Name: 1hwi_115_2_INTS_M
#    Modification time : Tue Mar 25 06:22:24 2014

@<TRIPOS>MOLECULE
1hwi_115_2_INTS_M
   89     0    12     0     0
SMALL
NO_CHARGES


@<TRIPOS>ATOM
      1 CA         34.8230  -11.0660  -14.7200 C.3       4 GLC5        0.0000 
      2 CA         35.6320   -9.4120  -13.6910 C.3      12 GLL5        0.0000 
      3 CA         34.0140  -12.7200  -15.7490 C.3       8 GLP5        0.0000 
      4 CA         36.9480  -11.0395  -13.1785 C.3       4 GLC5        0.0000 
      5 CA         38.2640  -12.6670  -12.6660 C.3       8 GLP5        0.0000 
      6 CA         35.7615   -5.7490  -16.1415 C.3       4 GLC5        0.0000 
      7 CA         36.2530   -7.4010  -14.9230 C.3      12 GLL5        0.0000 
      8 CA         35.2700   -4.0970  -17.3600 C.3       8 GLP5        0.0000 
      9 CA         36.0160   -6.7550  -12.1885 C.3       4 GLC5        0.0000 
     10 CA         35.3460   -6.6540  -14.1560 C.3      12 GLL5        0.0000 
     11 CA         36.6860   -6.8560  -10.2210 C.3       8 GLP5        0.0000 
     12 CA         35.6390   -4.7420  -14.4945 C.3       4 GLC5        0.0000 
     13 CA         35.9320   -2.8300  -14.8330 C.3       8 GLP5        0.0000 
     14 CA         32.9355   -1.9075   -9.2060 C.3       4 GLC5        0.0000 
     15 CA         32.7590   -3.2800  -10.7910 C.3      12 GLL5        0.0000 
     16 CA         33.1120   -0.5350   -7.6210 C.3       8 GLP5        0.0000 
     17 CA         30.3015   -0.7215  -10.8280 C.3       4 GLC5        0.0000 
     18 CA         31.7350   -1.3640  -11.7930 C.3      12 GLL5        0.0000 
     19 CA         28.8680   -0.0790   -9.8630 C.3       8 GLP5        0.0000 
     20 CA         32.4235   -0.9495   -9.7070 C.3       4 GLC5        0.0000 
     21 NZ         34.0155   -2.6035   -5.0840 N.4       3 LYC4        0.0000 
     22 NZ         32.4980   -3.2890   -4.9480 N.4      11 LYL4        0.0000 
     23 NZ         35.5330   -1.9180   -5.2200 N.4       7 LYP4        0.0000 
     24 NZ         32.8680   -3.9335   -3.6410 N.4       3 LYC4        0.0000 
     25 NZ         33.2380   -4.5780   -2.3340 N.4       7 LYP4        0.0000 
     26 N          32.6545   -2.0470   -5.5990 N.am      2 SEC2        0.0000 
     27 N          32.4980   -3.2890   -4.9480 N.am     10 SEL2        0.0000 
     28 N          32.8110   -0.8050   -6.2500 N.am      6 SEP2        0.0000 
     29 N          32.8680   -3.9335   -3.6410 N.am      2 SEC2        0.0000 
     30 N          33.2380   -4.5780   -2.3340 N.am      6 SEP2        0.0000 
     31 NZ         34.7775   -2.8950   -5.8840 N.4       3 LYC4        0.0000 
     32 NZ         34.0220   -3.8720   -6.5480 N.4      11 LYL4        0.0000 
     33 N          34.7775   -2.8950   -5.8840 N.am      2 SEC2        0.0000 
     34 N          34.0220   -3.8720   -6.5480 N.am     10 SEL2        0.0000 
     35 N          35.5330   -1.9180   -5.2200 N.am      6 SEP2        0.0000 
     36 N          33.4165   -2.3385   -6.3990 N.am      2 SEC2        0.0000 
     37 N          30.3980   -3.8915   -7.3415 N.am      2 SEC2        0.0000 
     38 N          30.8900   -5.3120   -7.3940 N.am     10 SEL2        0.0000 
     39 N          29.9060   -2.4710   -7.2890 N.am      6 SEP2        0.0000 
     40 O          29.8630   -5.7800   -6.6025 O.2       1 ALC1        0.0000 
     41 O          30.8900   -5.3120   -7.3940 O.2       9 ALL1        0.0000 
     42 O          28.8360   -6.2480   -5.8110 O.2       5 ALP1        0.0000 
     43 CA         33.6905   -7.3840   -5.2055 C.3       4 GLC5        0.0000 
     44 CA         32.5760   -5.5940   -5.6880 C.3      12 GLL5        0.0000 
     45 CA         34.8050   -9.1740   -4.7230 C.3       8 GLP5        0.0000 
     46 CA         30.6055   -5.0050   -5.0120 C.3       4 GLC5        0.0000 
     47 CA         28.6350   -4.4160   -4.3360 C.3       8 GLP5        0.0000 
     48 CA         34.1720   -6.6095   -7.3940 C.3       4 GLC5        0.0000 
     49 CA         32.0460   -6.0870   -7.0450 C.3      12 GLL5        0.0000 
     50 CA         36.2980   -7.1320   -7.7430 C.3       8 GLP5        0.0000 
     51 CA         33.2235   -8.3700   -5.8465 C.3       4 GLC5        0.0000 
     52 CA         31.6420   -7.5660   -6.9700 C.3      12 GLL5        0.0000 
     53 CA         30.5670   -8.6650   -5.5985 C.3       4 GLC5        0.0000 
     54 CA         29.4920   -9.7640   -4.2270 C.3       8 GLP5        0.0000 
     55 CA         33.7300  -12.0845  -14.1285 C.3       4 GLC5        0.0000 
     56 CA         33.4460  -11.4490  -12.5080 C.3      12 GLL5        0.0000 
     57 CA         33.9565  -13.2135  -12.0475 C.3       4 GLC5        0.0000 
     58 CA         34.4670  -14.9780  -11.5870 C.3       8 GLP5        0.0000 
     59 CA         34.7625  -12.6705   -9.5050 C.3       4 GLC5        0.0000 
     60 CA         34.8620  -10.8430  -10.4960 C.3      12 GLL5        0.0000 
     61 CA         34.6630  -14.4980   -8.5140 C.3       8 GLP5        0.0000 
     62 CA         36.5630  -11.7550  -11.5810 C.3       4 GLC5        0.0000 
     63 CA         35.7740   -8.8495  -10.3585 C.3       4 GLC5        0.0000 
     64 N          31.3700  -10.3435   -7.2955 N.am      2 SEC2        0.0000 
     65 N          30.4700   -9.3470   -8.0030 N.am     10 SEL2        0.0000 
     66 N          32.2700  -11.3400   -6.5880 N.am      6 SEP2        0.0000 
     67 N          29.6850  -10.1460   -7.1835 N.am      2 SEC2        0.0000 
     68 N          28.9000  -10.9450   -6.3640 N.am      6 SEP2        0.0000 
     69 O          30.2355  -10.1720   -9.1185 O.2       1 ALC1        0.0000 
     70 O          30.4700   -9.3470   -8.0030 O.2       9 ALL1        0.0000 
     71 O          30.0010  -10.9970  -10.2340 O.2       5 ALP1        0.0000 
     72 CA         35.9150   -7.7755  -11.7937 C.3       4 GLC5        0.0000 
     73 CA         34.7220   -8.6540  -12.9220 C.3      12 GLL5        0.0000 
     74 CA         37.7179   -6.5775  -14.1099 C.3       4 GLC5        0.0000 
     75 CA         36.3980   -8.7790  -14.6960 C.3      12 GLL5        0.0000 
     76 CA         39.6000   -5.7830  -13.7370 C.3       8 GLP5        0.0000 
     77 CA         35.0335   -7.0673  -11.0467 C.3       4 GLC5        0.0000 
     78 CA         33.5600   -6.7290  -12.2210 C.3      12 GLL5        0.0000 
     79 CA         33.5568   -3.0568  -14.3983 C.3       4 GLC5        0.0000 
     80 CA         32.5040   -4.6520  -13.2230 C.3      12 GLL5        0.0000 
     81 CA         34.8340   -2.1210  -15.6300 C.3       8 GLP5        0.0000 
     82 CA         34.9158   -5.8995  -10.8655 C.3       4 GLC5        0.0000 
     83 CA         33.2080   -4.5980  -10.9020 C.3      12 GLL5        0.0000 
     84 CA         34.7092   -2.8715  -10.7272 C.3       4 GLC5        0.0000 
     85 CA         36.4350   -1.8040  -10.6080 C.3       8 GLP5        0.0000 
     86 CA         30.0777   -1.8189  -12.9067 C.3       4 GLC5        0.0000 
     87 CA         28.2290   -1.4600  -13.6650 C.3       8 GLP5        0.0000 
     88 CA         33.0319   -1.0159  -12.0476 C.3       4 GLC5        0.0000 
     89 CA         33.9770    0.2180  -12.3750 C.3       8 GLP5        0.0000 
@<TRIPOS>BOND
@<TRIPOS>SUBSTRUCTURE
     1 ALC1       40 GROUP        1 X    ALC  0     ROOT ALC X 1
     2 SEC2       26 GROUP        1 X    SEC  0     **** SEC X 2
     3 LYC4       21 GROUP        1 X    LYC  0     **** LYC X 4
     4 GLC5        1 GROUP        1 X    GLC  0     **** GLC X 6
     5 ALP1       42 GROUP        1 Y    ALP  0     ROOT ALP Y 8
     6 SEP2       28 GROUP        1 Y    SEP  0     **** SEP Y 9
     7 LYP4       23 GROUP        1 Y    LYP  0     **** LYP Y 11
     8 GLP5        3 GROUP        1 Y    GLP  0     **** GLP Y 13
     9 ALL1       41 GROUP        1 Z    ALL  0     ROOT ALL Z 15
    10 SEL2       27 GROUP        1 Z    SEL  0     **** SEL Z 16
    11 LYL4       22 GROUP        1 Z    LYL  0     **** LYL Z 18
    12 GLL5        2 GROUP        1 Z    GLL  0     **** GLL Z 20
@<TRIPOS>SET

