#    Name: 1hwi_115_2_ligand
#    Modification time : Tue Mar 25 06:22:24 2014

@<TRIPOS>MOLECULE
1hwi_115_2_ligand
   57    59     1     0     0
SMALL
NO_CHARGES


@<TRIPOS>ATOM
      1 C10        34.5900   -7.3020  -13.1620 C.ar      1 1151        0.0000 
      2 C15        34.7220   -8.6540  -12.9220 C.ar      1 1151        0.0000 
      3 C14        35.6320   -9.4120  -13.6910 C.ar      1 1151        0.0000 
      4 C13        36.3980   -8.7790  -14.6960 C.ar      1 1151        0.0000 
      5 C12        36.2530   -7.4010  -14.9230 C.ar      1 1151        0.0000 
      6 C11        35.3460   -6.6540  -14.1560 C.ar      1 1151        0.0000 
      7 C8         33.5600   -6.7290  -12.2210 C.2       1 1151        0.0000 
      8 C9         33.2020   -7.8280  -11.5240 C.2       1 1151        0.0000 
      9 N1         33.9300   -9.0170  -11.9660 N.pl3     1 1151        0.0000 
     10 C83        32.0550   -3.3330  -13.1100 C.ar      1 1151        0.0000 
     11 C82        32.5040   -4.6520  -13.2230 C.ar      1 1151        0.0000 
     12 C81        33.0830   -5.2880  -12.1180 C.ar      1 1151        0.0000 
     13 C86        33.2080   -4.5980  -10.9020 C.ar      1 1151        0.0000 
     14 C85        32.7590   -3.2800  -10.7910 C.ar      1 1151        0.0000 
     15 C84        32.1810   -2.6500  -11.8980 C.ar      1 1151        0.0000 
     16 F1         31.7350   -1.3640  -11.7930 F         1 1151        0.0000 
     17 O1B        32.4980   -3.2890   -4.9480 O.co2     1 1151        0.0000 
     18 O1A        34.0220   -3.8720   -6.5480 O.co2     1 1151        0.0000 
     19 O3         30.8900   -5.3120   -7.3940 O.3       1 1151        0.0000 
     20 C1         33.0070   -4.1330   -5.6760 C.2       1 1151        0.0000 
     21 C2         32.5760   -5.5940   -5.6880 C.3       1 1151        0.0000 
     22 C3         32.0460   -6.0870   -7.0450 C.3       1 1151        0.0000 
     23 C4         31.6420   -7.5660   -6.9700 C.3       1 1151        0.0000 
     24 C5         31.1070   -8.1150   -8.2960 C.3       1 1151        0.0000 
     25 C6         32.2290   -8.2910   -9.2940 C.3       1 1151        0.0000 
     26 C7         32.2660   -7.7600  -10.5290 C.3       1 1151        0.0000 
     27 C91        33.6970  -10.4120  -11.4090 C.3       1 1151        0.0000 
     28 C92        33.4460  -11.4490  -12.5080 C.3       1 1151        0.0000 
     29 C93        34.8620  -10.8430  -10.4960 C.3       1 1151        0.0000 
     30 O5         30.4700   -9.3470   -8.0030 O.3       1 1151        0.0000 
     31 H          35.7364  -10.4116  -13.5224 H         1 1151        0.0000 
     32 H          37.0551   -9.3268  -15.2543 H         1 1151        0.0000 
     33 H          36.8100   -6.9410  -15.6492 H         1 1151        0.0000 
     34 H          35.2351   -5.6547  -14.3156 H         1 1151        0.0000 
     35 H          31.6314   -2.8652  -13.9205 H         1 1151        0.0000 
     36 H          32.4102   -5.1530  -14.1115 H         1 1151        0.0000 
     37 H          33.6317   -5.0668  -10.0925 H         1 1151        0.0000 
     38 H          32.8521   -2.7770   -9.9045 H         1 1151        0.0000 
     39 H          31.7907   -5.7459   -4.9280 H         1 1151        0.0000 
     40 H          33.4314   -6.2260   -5.3943 H         1 1151        0.0000 
     41 H          32.8215   -5.9794   -7.7739 H         1 1151        0.0000 
     42 H          30.8719   -7.6855   -6.1963 H         1 1151        0.0000 
     43 H          32.5147   -8.1579   -6.6635 H         1 1151        0.0000 
     44 H          30.4009   -7.3933   -8.6805 H         1 1151        0.0000 
     45 H          32.4040   -9.4560   -9.3374 H         1 1151        0.0000 
     46 H          33.2040   -8.0123   -8.6927 H         1 1151        0.0000 
     47 H          31.1955   -8.0231  -11.0572 H         1 1151        0.0000 
     48 H          31.9875   -6.5756  -10.4111 H         1 1151        0.0000 
     49 H          32.7931  -10.3754  -10.7754 H         1 1151        0.0000 
     50 H          34.2212  -11.5199  -13.1358 H         1 1151        0.0000 
     51 H          33.2911  -12.3615  -12.1293 H         1 1151        0.0000 
     52 H          32.6431  -11.2200  -13.0584 H         1 1151        0.0000 
     53 H          35.7332  -10.8562  -10.9868 H         1 1151        0.0000 
     54 H          34.9730  -10.2241   -9.7184 H         1 1151        0.0000 
     55 H          34.7218  -11.7602  -10.1230 H         1 1151        0.0000 
     56 H          30.1518   -5.6793   -6.8282 H         1 1151        0.0000 
     57 H          30.3538   -9.7953   -8.8893 H         1 1151        0.0000 
@<TRIPOS>BOND
     1    2    1 ar   
     2    6    1 ar   
     3    7    1 1    
     4    3    2 ar   
     5    9    2 1    
     6    4    3 ar   
     7   31    3 1    
     8    5    4 ar   
     9   32    4 1    
    10    6    5 ar   
    11   33    5 1    
    12   34    6 1    
    13    8    7 2    
    14   12    7 1    
    15    9    8 1    
    16   26    8 1    
    17   27    9 1    
    18   11   10 ar   
    19   15   10 ar   
    20   35   10 1    
    21   12   11 ar   
    22   36   11 1    
    23   13   12 ar   
    24   14   13 ar   
    25   37   13 1    
    26   15   14 ar   
    27   38   14 1    
    28   16   15 1    
    29   20   17 ar   
    30   20   18 ar   
    31   22   19 1    
    32   56   19 1    
    33   21   20 1    
    34   22   21 1    
    35   39   21 1    
    36   40   21 1    
    37   23   22 1    
    38   41   22 1    
    39   24   23 1    
    40   42   23 1    
    41   43   23 1    
    42   25   24 1    
    43   30   24 1    
    44   44   24 1    
    45   26   25 1    
    46   45   25 1    
    47   46   25 1    
    48   47   26 1    
    49   48   26 1    
    50   28   27 1    
    51   29   27 1    
    52   49   27 1    
    53   50   28 1    
    54   51   28 1    
    55   52   28 1    
    56   53   29 1    
    57   54   29 1    
    58   55   29 1    
    59   57   30 1    
@<TRIPOS>SUBSTRUCTURE
     1 1151        1 GROUP   
@<TRIPOS>SET

