#    Name: 3px3_SAH_1_INTS_M
#    Modification time : Tue Mar 25 08:40:47 2014

@<TRIPOS>MOLECULE
3px3_SAH_1_INTS_M
   74     0     9     0     0
SMALL
NO_CHARGES


@<TRIPOS>ATOM
      1 O          35.8080   -2.4420   24.5735 O.2       1 ALC1        0.0000 
      2 O          35.0190   -1.2740   24.7770 O.2       7 ALL1        0.0000 
      3 O          36.5970   -3.6100   24.3700 O.2       4 ALP1        0.0000 
      4 O          34.8220   -1.1325   26.4850 O.2       1 ALC1        0.0000 
      5 O          34.6250   -0.9910   28.1930 O.2       4 ALP1        0.0000 
      6 CA         32.1945   -1.0185   26.2640 C.3       3 GLC5        0.0000 
      7 CA         32.3690   -2.6630   25.0630 C.3       9 GLL5        0.0000 
      8 CA         32.0200    0.6260   27.4650 C.3       6 GLP5        0.0000 
      9 CA         29.7555   -5.2650   24.1965 C.3       3 GLC5        0.0000 
     10 CA         31.1510   -3.9320   24.7900 C.3       9 GLL5        0.0000 
     11 CA         28.3600   -6.5980   23.6030 C.3       6 GLP5        0.0000 
     12 CA         30.0220   -3.2580   23.3580 C.3       3 GLC5        0.0000 
     13 CA         28.8930   -2.5840   21.9260 C.3       6 GLP5        0.0000 
     14 N          31.3715   -0.3855   23.0655 N.am      2 SEC2        0.0000 
     15 N          32.4390    0.4660   22.9080 N.am      8 SEL2        0.0000 
     16 N          30.3040   -1.2370   23.2230 N.am      5 SEP2        0.0000 
     17 N          31.7430    1.4500   22.5180 N.am      2 SEC2        0.0000 
     18 N          31.0470    2.4340   22.1280 N.am      5 SEP2        0.0000 
     19 N          32.9625    0.1045   21.6395 N.am      2 SEC2        0.0000 
     20 N          33.4860   -0.2570   20.3710 N.am      5 SEP2        0.0000 
     21 CA         30.3325   -6.2600   25.2245 C.3       3 GLC5        0.0000 
     22 CA         31.8780   -5.2900   25.6740 C.3       9 GLL5        0.0000 
     23 CA         28.7870   -7.2300   24.7750 C.3       6 GLP5        0.0000 
     24 CA         31.2725   -7.1525   24.7920 C.3       3 GLC5        0.0000 
     25 CA         33.0570   -5.8760   24.8620 C.3       9 GLL5        0.0000 
     26 CA         29.4880   -8.4290   24.7220 C.3       6 GLP5        0.0000 
     27 CA         35.0420   -5.7675   25.4905 C.3       3 GLC5        0.0000 
     28 CA         37.0270   -5.6590   26.1190 C.3       6 GLP5        0.0000 
     29 CA         31.9750   -5.6970   21.7715 C.3       3 GLC5        0.0000 
     30 CA         32.6540   -6.7020   23.6440 C.3       9 GLL5        0.0000 
     31 CA         31.2960   -4.6920   19.8990 C.3       6 GLP5        0.0000 
     32 O          34.7705   -6.4710   22.2985 O.2       1 ALC1        0.0000 
     33 O          33.4400   -6.3410   22.4900 O.2       7 ALL1        0.0000 
     34 O          36.1010   -6.6010   22.1070 O.2       4 ALP1        0.0000 
     35 O          34.2220   -8.7800   22.1900 O.2       1 ALC1        0.0000 
     36 O          33.1300   -8.9520   22.8110 O.2       7 ALL1        0.0000 
     37 O          35.3140   -8.6080   21.5690 O.2       4 ALP1        0.0000 
     38 CA         35.6315   -6.7540   25.4360 C.3       3 GLC5        0.0000 
     39 CA         34.2360   -7.8490   24.7530 C.3       9 GLL5        0.0000 
     40 CA         39.0285  -12.0310   26.4655 C.3       3 GLC5        0.0000 
     41 CA         37.1060  -11.1360   27.0940 C.3       9 GLL5        0.0000 
     42 CA         40.9510  -12.9260   25.8370 C.3       6 GLP5        0.0000 
     43 O          38.3725  -12.9430   28.1260 O.2       1 ALC1        0.0000 
     44 O          37.1060  -12.1260   28.0110 O.2       7 ALL1        0.0000 
     45 O          39.6390  -13.7600   28.2410 O.2       4 ALP1        0.0000 
     46 N          39.5500  -10.9410   27.0685 N.am      2 SEC2        0.0000 
     47 N          38.2090  -10.6230   26.4960 N.am      8 SEL2        0.0000 
     48 N          40.8910  -11.2590   27.6410 N.am      5 SEP2        0.0000 
     49 CA         37.5860   -7.6605   25.8465 C.3       3 GLC5        0.0000 
     50 CA         38.1450   -9.6620   25.5740 C.3       9 GLL5        0.0000 
     51 CA         37.4885  -10.8250   24.4730 C.3       3 GLC5        0.0000 
     52 CA         36.8320  -11.9880   23.3720 C.3       6 GLP5        0.0000 
     53 CA         39.5480  -11.2940   25.7055 C.3       3 GLC5        0.0000 
     54 CA         37.6335   -8.9755   27.3635 C.3       3 GLC5        0.0000 
     55 CA         37.1220   -8.2890   29.1530 C.3       6 GLP5        0.0000 
     56 N          37.4700   -9.5730   23.6515 N.am      2 SEC2        0.0000 
     57 N          37.0460   -8.9970   25.1960 N.am      8 SEL2        0.0000 
     58 N          37.8940  -10.1490   22.1070 N.am      5 SEP2        0.0000 
     59 CA         36.4565   -7.5140   25.9485 C.3       3 GLC5        0.0000 
     60 CA         35.8860   -9.3690   25.7780 C.3       9 GLL5        0.0000 
     61 CA         36.3590  -10.6785   24.5750 C.3       3 GLC5        0.0000 
     62 CA         34.2837   -2.8298   22.1415 C.3       3 GLC5        0.0000 
     63 CA         33.1480   -2.4340   23.7610 C.3       9 GLL5        0.0000 
     64 CA         34.9730   -3.8440   20.5840 C.3       6 GLP5        0.0000 
     65 CA         31.2538   -2.0252   23.1980 C.3       3 GLC5        0.0000 
     66 CA         29.7490   -1.5020   21.9840 C.3       6 GLP5        0.0000 
     67 CA         33.6452   -5.0520   26.8275 C.3       3 GLC5        0.0000 
     68 CA         34.8230   -4.5210   28.3870 C.3       6 GLP5        0.0000 
     69 CA         31.3255   -8.2093   23.6465 C.3       3 GLC5        0.0000 
     70 CA         29.8330   -8.9930   23.4840 C.3       6 GLP5        0.0000 
     71 CA         36.0460  -12.2070   25.8772 C.3       3 GLC5        0.0000 
     72 CA         35.8200  -10.5040   26.7370 C.3       9 GLL5        0.0000 
     73 CA         35.6290  -13.5940   24.8390 C.3       6 GLP5        0.0000 
     74 CA         36.6483   -9.1917   27.7499 C.3       3 GLC5        0.0000 
@<TRIPOS>BOND
@<TRIPOS>SUBSTRUCTURE
     1 ALC1        1 GROUP        1 X    ALC  0     ROOT ALC X 1
     2 SEC2       14 GROUP        1 X    SEC  0     **** SEC X 2
     3 GLC5        6 GROUP        1 X    GLC  0     **** GLC X 6
     4 ALP1        3 GROUP        1 Y    ALP  0     ROOT ALP Y 8
     5 SEP2       16 GROUP        1 Y    SEP  0     **** SEP Y 9
     6 GLP5        8 GROUP        1 Y    GLP  0     **** GLP Y 13
     7 ALL1        2 GROUP        1 Z    ALL  0     ROOT ALL Z 15
     8 SEL2       15 GROUP        1 Z    SEL  0     **** SEL Z 16
     9 GLL5        7 GROUP        1 Z    GLL  0     **** GLL Z 20
@<TRIPOS>SET

