#    Name: 3px3_SAH_1_ligand
#    Modification time : Tue Mar 25 08:40:47 2014

@<TRIPOS>MOLECULE
3px3_SAH_1_ligand
   46    48     1     0     0
SMALL
NO_CHARGES


@<TRIPOS>ATOM
      1 N          35.0190   -1.2740   24.7770 N.4       1 SAH264      0.0000 
      2 CA         34.0410   -1.1970   23.6370 C.3       1 SAH264      0.0000 
      3 CB         33.1480   -2.4340   23.7610 C.3       1 SAH264      0.0000 
      4 CG         32.3690   -2.6630   25.0630 C.3       1 SAH264      0.0000 
      5 SD         31.1510   -3.9320   24.7900 S.3       1 SAH264      0.0000 
      6 C          33.3120    0.1130   23.7060 C.2       1 SAH264      0.0000 
      7 O          33.5280    0.8730   24.6640 O.co2     1 SAH264      0.0000 
      8 OXT        32.4390    0.4660   22.9080 O.co2     1 SAH264      0.0000 
      9 C5'        31.8780   -5.2900   25.6740 C.3       1 SAH264      0.0000 
     10 C4'        33.0570   -5.8760   24.8620 C.3       1 SAH264      0.0000 
     11 O4'        33.7920   -6.8070   25.6270 O.3       1 SAH264      0.0000 
     12 C3'        32.6540   -6.7020   23.6440 C.3       1 SAH264      0.0000 
     13 O3'        33.4400   -6.3410   22.4900 O.3       1 SAH264      0.0000 
     14 C2'        32.9820   -8.1490   23.9740 C.3       1 SAH264      0.0000 
     15 O2'        33.1300   -8.9520   22.8110 O.3       1 SAH264      0.0000 
     16 C1'        34.2360   -7.8490   24.7530 C.3       1 SAH264      0.0000 
     17 N9         34.6240   -8.9750   25.6350 N.pl3     1 SAH264      0.0000 
     18 C8         33.8120   -9.7350   26.3870 C.2       1 SAH264      0.0000 
     19 N7         34.5260  -10.6460   27.0900 N.2       1 SAH264      0.0000 
     20 C5         35.8200  -10.5040   26.7370 C.ar      1 SAH264      0.0000 
     21 C6         37.1060  -11.1360   27.0940 C.ar      1 SAH264      0.0000 
     22 N6         37.1060  -12.1260   28.0110 N.pl3     1 SAH264      0.0000 
     23 N1         38.2090  -10.6230   26.4960 N.ar      1 SAH264      0.0000 
     24 C2         38.1450   -9.6620   25.5740 C.ar      1 SAH264      0.0000 
     25 N3         37.0460   -8.9970   25.1960 N.ar      1 SAH264      0.0000 
     26 C4         35.8860   -9.3690   25.7780 C.ar      1 SAH264      0.0000 
     27 H          34.5994   -1.2677   22.7174 H         1 SAH264      0.0000 
     28 H          33.7780   -3.3449   23.5653 H         1 SAH264      0.0000 
     29 H          32.4126   -2.4248   22.9102 H         1 SAH264      0.0000 
     30 H          31.7905   -1.8268   25.3537 H         1 SAH264      0.0000 
     31 H          32.9663   -3.0600   25.8402 H         1 SAH264      0.0000 
     32 H          31.0761   -5.9750   25.7840 H         1 SAH264      0.0000 
     33 H          32.1879   -4.8551   26.5900 H         1 SAH264      0.0000 
     34 H          33.6952   -5.0790   24.5250 H         1 SAH264      0.0000 
     35 H          31.6192   -6.6145   23.4792 H         1 SAH264      0.0000 
     36 H          32.2407   -8.4720   24.6671 H         1 SAH264      0.0000 
     37 H          34.9943   -7.5376   24.1329 H         1 SAH264      0.0000 
     38 H          32.8363   -9.6477   26.4263 H         1 SAH264      0.0000 
     39 H          38.0017  -12.4920   28.2634 H         1 SAH264      0.0000 
     40 H          36.2103  -12.4056   28.3566 H         1 SAH264      0.0000 
     41 H          39.0766   -9.3896   25.0786 H         1 SAH264      0.0000 
     42 H          35.5737   -2.1050   24.7350 H         1 SAH264      0.0000 
     43 H          35.6513   -0.4993   24.7769 H         1 SAH264      0.0000 
     44 H          34.5566   -1.2747   25.6636 H         1 SAH264      0.0000 
     45 H          34.3841   -6.5509   22.7441 H         1 SAH264      0.0000 
     46 H          34.1163   -9.0831   22.7109 H         1 SAH264      0.0000 
@<TRIPOS>BOND
     1    2    1 1    
     2   42    1 1    
     3   43    1 1    
     4   44    1 1    
     5    3    2 1    
     6    6    2 1    
     7   27    2 1    
     8    4    3 1    
     9   28    3 1    
    10   29    3 1    
    11    5    4 1    
    12   30    4 1    
    13   31    4 1    
    14    9    5 1    
    15    7    6 ar   
    16    8    6 ar   
    17   10    9 1    
    18   32    9 1    
    19   33    9 1    
    20   11   10 1    
    21   12   10 1    
    22   34   10 1    
    23   16   11 1    
    24   13   12 1    
    25   14   12 1    
    26   35   12 1    
    27   45   13 1    
    28   15   14 1    
    29   16   14 1    
    30   36   14 1    
    31   46   15 1    
    32   17   16 1    
    33   37   16 1    
    34   18   17 1    
    35   26   17 1    
    36   19   18 2    
    37   38   18 1    
    38   20   19 1    
    39   21   20 ar   
    40   26   20 ar   
    41   22   21 1    
    42   23   21 ar   
    43   39   22 1    
    44   40   22 1    
    45   24   23 ar   
    46   25   24 ar   
    47   41   24 1    
    48   26   25 ar   
@<TRIPOS>SUBSTRUCTURE
     1 SAH264      1 GROUP   
@<TRIPOS>SET

