#    Name: 3hod_ZZH_1_INTS_M
#    Modification time : Tue Mar 25 14:34:42 2014

@<TRIPOS>MOLECULE
3hod_ZZH_1_INTS_M
   75     0     6     0     0
SMALL
NO_CHARGES


@<TRIPOS>ATOM
      1 CA         18.1295   60.9675   20.2180 C.3       2 GLC5        0.0000 
      2 CA         18.4700   61.9390   18.4610 C.3       6 GLL5        0.0000 
      3 CA         17.7890   59.9960   21.9750 C.3       4 GLP5        0.0000 
      4 CA         19.2305   63.8405   16.5495 C.3       2 GLC5        0.0000 
      5 CA         19.1730   63.2790   18.6870 C.3       6 GLL5        0.0000 
      6 CA         19.2880   64.4020   14.4120 C.3       4 GLP5        0.0000 
      7 N          18.1075   62.3820   21.7080 N.am      1 SEC2        0.0000 
      8 N          18.5410   63.4840   20.9660 N.am      5 SEL2        0.0000 
      9 N          17.6740   61.2800   22.4500 N.am      3 SEP2        0.0000 
     10 N          19.4800   62.3400   21.8920 N.am      1 SEC2        0.0000 
     11 N          20.4190   61.1960   22.8180 N.am      3 SEP2        0.0000 
     12 N          21.5330   62.3955   20.1895 N.am      1 SEC2        0.0000 
     13 N          20.6900   63.1950   20.5410 N.am      5 SEL2        0.0000 
     14 N          22.3760   61.5960   19.8380 N.am      3 SEP2        0.0000 
     15 N          20.5545   62.1955   21.6795 N.am      1 SEC2        0.0000 
     16 CA         19.1295   66.8785   17.7915 C.3       2 GLC5        0.0000 
     17 CA         20.7070   65.6230   18.5010 C.3       6 GLL5        0.0000 
     18 CA         17.5520   68.1340   17.0820 C.3       4 GLP5        0.0000 
     19 CA         19.0985   66.1395   19.9695 C.3       2 GLC5        0.0000 
     20 CA         17.4900   66.6560   21.4380 C.3       4 GLP5        0.0000 
     21 CA         19.9745   68.0095   18.1105 C.3       2 GLC5        0.0000 
     22 CA         21.5890   66.6910   18.6150 C.3       6 GLL5        0.0000 
     23 CA         18.3600   69.3280   17.6060 C.3       4 GLP5        0.0000 
     24 CA         21.5995   67.2790   20.5260 C.3       2 GLC5        0.0000 
     25 CA         21.6100   67.8670   22.4370 C.3       4 GLP5        0.0000 
     26 CA         23.8685   66.8420   16.2650 C.3       2 GLC5        0.0000 
     27 CA         23.8500   67.6600   18.3600 C.3       6 GLL5        0.0000 
     28 CA         23.8870   66.0240   14.1700 C.3       4 GLP5        0.0000 
     29 CA         24.2640   66.1695   19.5785 C.3       2 GLC5        0.0000 
     30 CA         24.6780   64.6790   20.7970 C.3       4 GLP5        0.0000 
     31 CA         25.7570   67.3950   18.0110 C.3       2 GLC5        0.0000 
     32 CA         27.6640   67.1300   17.6620 C.3       4 GLP5        0.0000 
     33 CA         21.3930   71.1665   15.3355 C.3       2 GLC5        0.0000 
     34 CA         22.8740   70.6580   16.3910 C.3       6 GLL5        0.0000 
     35 CA         19.9120   71.6750   14.2800 C.3       4 GLP5        0.0000 
     36 CA         21.9965   72.6750   15.8150 C.3       2 GLC5        0.0000 
     37 CA         22.5880   71.6040   17.3700 C.3       6 GLL5        0.0000 
     38 CA         21.4050   73.7460   14.2600 C.3       4 GLP5        0.0000 
     39 CA         23.8520   72.5010   18.4600 C.3       2 GLC5        0.0000 
     40 CA         22.7080   71.2650   18.7110 C.3       6 GLL5        0.0000 
     41 CA         24.9960   73.7370   18.2090 C.3       4 GLP5        0.0000 
     42 CA         22.1280   71.1025   20.8695 C.3       2 GLC5        0.0000 
     43 CA         21.5480   70.9400   23.0280 C.3       4 GLP5        0.0000 
     44 CA         22.3615   68.9240   20.7495 C.3       2 GLC5        0.0000 
     45 CA         23.1130   69.9810   19.0620 C.3       6 GLL5        0.0000 
     46 CA         19.3442   62.7413   14.9883 C.3       2 GLC5        0.0000 
     47 CA         19.4670   61.2400   16.2370 C.3       6 GLL5        0.0000 
     48 CA         20.1418   60.5583   13.3328 C.3       2 GLC5        0.0000 
     49 CA         18.0830   60.9660   14.2850 C.3       6 GLL5        0.0000 
     50 CA         21.5750   60.1730   12.0770 C.3       4 GLP5        0.0000 
     51 CA         18.4050   62.7747   14.5323 C.3       2 GLC5        0.0000 
     52 CA         16.0050   60.0520   16.6260 C.3       2 GLC5        0.0000 
     53 CA         16.9610   61.3290   15.0200 C.3       6 GLL5        0.0000 
     54 CA         14.9820   58.6150   17.5580 C.3       4 GLP5        0.0000 
     55 CA         17.6949   59.3211   13.9021 C.3       2 GLC5        0.0000 
     56 CA         17.5550   57.5060   13.0000 C.3       4 GLP5        0.0000 
     57 CA         18.5040   63.0145   15.5412 C.3       2 GLC5        0.0000 
     58 CA         17.0950   61.6490   16.3680 C.3       6 GLL5        0.0000 
     59 CA         16.5550   62.9835   17.5817 C.3       2 GLC5        0.0000 
     60 CA         18.3450   61.6050   16.9730 C.3       6 GLL5        0.0000 
     61 CA         15.3900   64.3400   18.4930 C.3       4 GLP5        0.0000 
     62 CA         17.1058   63.4745   18.5335 C.3       2 GLC5        0.0000 
     63 CA         20.1110   64.7065   16.3358 C.3       2 GLC5        0.0000 
     64 CA         21.1610   64.3990   18.0180 C.3       6 GLL5        0.0000 
     65 CA         23.2527   64.5055   19.3137 C.3       2 GLC5        0.0000 
     66 CA         23.5237   65.4973   19.5534 C.3       2 GLC5        0.0000 
     67 CA         23.3760   65.3310   17.7550 C.3       6 GLL5        0.0000 
     68 CA         23.1765   69.1792   15.3776 C.3       2 GLC5        0.0000 
     69 CA         23.4050   69.0370   18.0900 C.3       6 GLL5        0.0000 
     70 CA         23.2440   68.4260   13.8510 C.3       4 GLP5        0.0000 
     71 CA         24.1235   71.8755   16.9013 C.3       2 GLC5        0.0000 
     72 CA         25.5160   72.6200   16.9220 C.3       4 GLP5        0.0000 
     73 CA         24.6816   70.3284   18.0787 C.3       2 GLC5        0.0000 
     74 CA         23.2830   69.3770   16.7450 C.3       6 GLL5        0.0000 
     75 CA         26.0790   71.2350   17.8840 C.3       4 GLP5        0.0000 
@<TRIPOS>BOND
@<TRIPOS>SUBSTRUCTURE
     1 SEC2        7 GROUP        1 X    SEC  0     ROOT SEC X 2
     2 GLC5        1 GROUP        1 X    GLC  0     **** GLC X 6
     3 SEP2        9 GROUP        1 Y    SEP  0     ROOT SEP Y 9
     4 GLP5        3 GROUP        1 Y    GLP  0     **** GLP Y 13
     5 SEL2        8 GROUP        1 Z    SEL  0     ROOT SEL Z 16
     6 GLL5        2 GROUP        1 Z    GLL  0     **** GLL Z 20
@<TRIPOS>SET

