#    Name: 3hod_ZZH_1_ligand
#    Modification time : Tue Mar 25 14:34:42 2014

@<TRIPOS>MOLECULE
3hod_ZZH_1_ligand
   44    46     1     0     0
SMALL
NO_CHARGES


@<TRIPOS>ATOM
      1 CAK        19.4670   61.2400   16.2370 C.ar      1 ZZH1        0.0000 
      2 CAG        19.3340   60.9210   14.8920 C.ar      1 ZZH1        0.0000 
      3 CAD        18.0830   60.9660   14.2850 C.ar      1 ZZH1        0.0000 
      4 CAH        16.9610   61.3290   15.0200 C.ar      1 ZZH1        0.0000 
      5 CAL        17.0950   61.6490   16.3680 C.ar      1 ZZH1        0.0000 
      6 CAW        18.3450   61.6050   16.9730 C.ar      1 ZZH1        0.0000 
      7 CAR        18.4700   61.9390   18.4610 C.3       1 ZZH1        0.0000 
      8 CAY        19.1730   63.2790   18.6870 C.3       1 ZZH1        0.0000 
      9 CAT        19.5030   63.3260   20.1800 C.2       1 ZZH1        0.0000 
     10 OAB        18.5410   63.4840   20.9660 O.co2     1 ZZH1        0.0000 
     11 OAA        20.6900   63.1950   20.5410 O.co2     1 ZZH1        0.0000 
     12 OAS        20.3460   63.3220   17.8570 O.3       1 ZZH1        0.0000 
     13 CAX        21.1610   64.3990   18.0180 C.ar      1 ZZH1        0.0000 
     14 CAP        22.4940   64.2650   17.6430 C.ar      1 ZZH1        0.0000 
     15 CAN        23.3760   65.3310   17.7550 C.ar      1 ZZH1        0.0000 
     16 CAO        20.7070   65.6230   18.5010 C.ar      1 ZZH1        0.0000 
     17 CAM        21.5890   66.6910   18.6150 C.ar      1 ZZH1        0.0000 
     18 CAV        22.9240   66.5490   18.2540 C.ar      1 ZZH1        0.0000 
     19 CAQ        23.8500   67.6600   18.3600 C.3       1 ZZH1        0.0000 
     20 CAU        23.4050   69.0370   18.0900 C.ar      1 ZZH1        0.0000 
     21 CAI        23.2830   69.3770   16.7450 C.ar      1 ZZH1        0.0000 
     22 CAE        22.8740   70.6580   16.3910 C.ar      1 ZZH1        0.0000 
     23 CAC        22.5880   71.6040   17.3700 C.ar      1 ZZH1        0.0000 
     24 CAF        22.7080   71.2650   18.7110 C.ar      1 ZZH1        0.0000 
     25 CAJ        23.1130   69.9810   19.0620 C.ar      1 ZZH1        0.0000 
     26 H          20.3892   61.2068   16.6868 H         1 ZZH1        0.0000 
     27 H          20.1612   60.6508   14.3426 H         1 ZZH1        0.0000 
     28 H          17.9889   60.7292   13.2869 H         1 ZZH1        0.0000 
     29 H          16.0386   61.3613   14.5726 H         1 ZZH1        0.0000 
     30 H          16.2670   61.9182   16.9159 H         1 ZZH1        0.0000 
     31 H          19.0367   61.1486   18.9592 H         1 ZZH1        0.0000 
     32 H          17.4721   61.9787   18.9043 H         1 ZZH1        0.0000 
     33 H          18.4782   64.0528   18.4623 H         1 ZZH1        0.0000 
     34 H          22.8311   63.3582   17.2759 H         1 ZZH1        0.0000 
     35 H          24.3563   65.2232   17.4718 H         1 ZZH1        0.0000 
     36 H          19.7230   65.7356   18.7721 H         1 ZZH1        0.0000 
     37 H          21.2495   67.5991   18.9714 H         1 ZZH1        0.0000 
     38 H          24.7598   67.4464   17.6944 H         1 ZZH1        0.0000 
     39 H          24.3294   67.6422   19.4022 H         1 ZZH1        0.0000 
     40 H          23.4945   68.6838   16.0183 H         1 ZZH1        0.0000 
     41 H          22.7818   70.9091   15.3945 H         1 ZZH1        0.0000 
     42 H          22.2895   72.5487   17.1008 H         1 ZZH1        0.0000 
     43 H          22.4996   71.9562   19.4398 H         1 ZZH1        0.0000 
     44 H          23.1966   69.7298   20.0625 H         1 ZZH1        0.0000 
@<TRIPOS>BOND
     1    2    1 ar   
     2    6    1 ar   
     3   26    1 1    
     4    3    2 ar   
     5   27    2 1    
     6    4    3 ar   
     7   28    3 1    
     8    5    4 ar   
     9   29    4 1    
    10    6    5 ar   
    11   30    5 1    
    12    7    6 1    
    13    8    7 1    
    14   31    7 1    
    15   32    7 1    
    16    9    8 1    
    17   12    8 1    
    18   33    8 1    
    19   10    9 ar   
    20   11    9 ar   
    21   13   12 1    
    22   14   13 ar   
    23   16   13 ar   
    24   15   14 ar   
    25   34   14 1    
    26   18   15 ar   
    27   35   15 1    
    28   17   16 ar   
    29   36   16 1    
    30   18   17 ar   
    31   37   17 1    
    32   19   18 1    
    33   20   19 1    
    34   38   19 1    
    35   39   19 1    
    36   21   20 ar   
    37   25   20 ar   
    38   22   21 ar   
    39   40   21 1    
    40   23   22 ar   
    41   41   22 1    
    42   24   23 ar   
    43   42   23 1    
    44   25   24 ar   
    45   43   24 1    
    46   44   25 1    
@<TRIPOS>SUBSTRUCTURE
     1 ZZH1        1 GROUP   
@<TRIPOS>SET

