#    Name: 1l1e_SAH_2_INTS_M
#    Modification time : Tue Mar 25 10:53:03 2014

@<TRIPOS>MOLECULE
1l1e_SAH_2_INTS_M
   65     0     9     0     0
SMALL
NO_CHARGES


@<TRIPOS>ATOM
      1 O          11.7515   10.6600   99.5350 O.2       1 ALC1        0.0000 
      2 O          10.4990   10.9270   99.2180 O.2       7 ALL1        0.0000 
      3 O          13.0040   10.3930   99.8520 O.2       4 ALP1        0.0000 
      4 O          10.4715   12.2210   98.7800 O.2       1 ALC1        0.0000 
      5 O          10.4440   13.5150   98.3420 O.2       4 ALP1        0.0000 
      6 O          10.4280    9.9370   98.2330 O.2       1 ALC1        0.0000 
      7 O          10.3570    8.9470   97.2480 O.2       4 ALP1        0.0000 
      8 CA          8.2435   12.4315  102.9680 C.3       3 GLC5        0.0000 
      9 CA         10.0830   12.7000  101.7360 C.3       9 GLL5        0.0000 
     10 CA          6.4040   12.1630  104.2000 C.3       6 GLP5        0.0000 
     11 CA          9.0510   13.4855  104.6680 C.3       3 GLC5        0.0000 
     12 CA         10.6410   13.3970  103.3220 C.3       9 GLL5        0.0000 
     13 CA          7.4610   13.5740  106.0140 C.3       6 GLP5        0.0000 
     14 N           6.8035   12.1300   98.8785 N.am      2 SEC2        0.0000 
     15 N           7.8720   11.3950   99.0720 N.am      8 SEL2        0.0000 
     16 N           5.7350   12.8650   98.6850 N.am      5 SEP2        0.0000 
     17 N           6.3270   10.6660  101.6980 N.am      2 SEC2        0.0000 
     18 N           7.3760   10.4080  100.9760 N.am      8 SEL2        0.0000 
     19 N           5.2780   10.9240  102.4200 N.am      5 SEP2        0.0000 
     20 CA         13.1010   14.9700  101.3890 C.3       3 GLC5        0.0000 
     21 CA         12.3350   13.9190  102.8970 C.3       9 GLL5        0.0000 
     22 CA         13.8670   16.0210   99.8810 C.3       6 GLP5        0.0000 
     23 CA         12.8810   15.7625  103.3580 C.3       3 GLC5        0.0000 
     24 CA         13.4270   17.6060  103.8190 C.3       6 GLP5        0.0000 
     25 CA         14.0255   13.7835  101.1305 C.3       3 GLC5        0.0000 
     26 CA         13.3190   12.7430  102.7870 C.3       9 GLL5        0.0000 
     27 CA         14.7320   14.8240   99.4740 C.3       6 GLP5        0.0000 
     28 N          12.9760    9.4645  102.9975 N.am      2 SEC2        0.0000 
     29 N          13.5990   10.6480  103.9260 N.am      8 SEL2        0.0000 
     30 N          12.3530    8.2810  102.0690 N.am      5 SEP2        0.0000 
     31 O          13.3750    9.6155  104.8200 O.2       1 ALC1        0.0000 
     32 O          13.5990   10.6480  103.9260 O.2       7 ALL1        0.0000 
     33 O          13.1510    8.5830  105.7140 O.2       4 ALP1        0.0000 
     34 N          16.9605   10.8200  105.5440 N.am      2 SEC2        0.0000 
     35 N          15.6500   11.6830  105.4010 N.am      8 SEL2        0.0000 
     36 N          18.2710    9.9570  105.6870 N.am      5 SEP2        0.0000 
     37 CA         15.4755   11.8080  101.7420 C.3       3 GLC5        0.0000 
     38 CA         15.6520   12.7100  103.1770 C.3       9 GLL5        0.0000 
     39 CA         15.2990   10.9060  100.3070 C.3       6 GLP5        0.0000 
     40 CA         15.1920   13.7670  101.3255 C.3       3 GLC5        0.0000 
     41 CA         19.5320   14.2195  104.4255 C.3       3 GLC5        0.0000 
     42 CA         18.7850   14.5450  102.7620 C.3       9 GLL5        0.0000 
     43 CA         20.2790   13.8940  106.0890 C.3       6 GLP5        0.0000 
     44 CA         20.3380   13.1225  103.5455 C.3       3 GLC5        0.0000 
     45 CA         20.1120   14.5140  102.2260 C.3       9 GLL5        0.0000 
     46 CA         20.5640   11.7310  104.8650 C.3       6 GLP5        0.0000 
     47 CA         21.7680   13.1980  102.2645 C.3       3 GLC5        0.0000 
     48 CA         23.4240   11.8820  102.3030 C.3       6 GLP5        0.0000 
     49 N          21.9140   12.9140  100.7670 N.am      2 SEC2        0.0000 
     50 N          20.5170   13.3720  101.5730 N.am      8 SEL2        0.0000 
     51 N          23.3110   12.4560   99.9610 N.am      5 SEP2        0.0000 
     52 CA         19.1815   12.4370   99.4400 C.3       3 GLC5        0.0000 
     53 CA         19.6610   12.3290  101.4570 C.3       9 GLL5        0.0000 
     54 CA         18.7020   12.5450   97.4230 C.3       6 GLP5        0.0000 
     55 CA         19.9260   10.2835  100.6765 C.3       3 GLC5        0.0000 
     56 CA         20.1910    8.2380   99.8960 C.3       6 GLP5        0.0000 
     57 CA         20.1125   12.0300  103.1610 C.3       3 GLC5        0.0000 
     58 CA         21.5425   12.1055  101.8800 C.3       3 GLC5        0.0000 
     59 CA         16.6595   12.1545  101.4370 C.3       3 GLC5        0.0000 
     60 CA         18.0200   13.4030  102.5670 C.3       9 GLL5        0.0000 
     61 CA         19.2920   12.5670  103.7160 C.3       3 GLC5        0.0000 
     62 CA         10.6197    9.5075  102.0425 C.3       3 GLC5        0.0000 
     63 CA         10.1660   11.1720  101.6640 C.3       9 GLL5        0.0000 
     64 CA         11.3090    8.1840  103.0750 C.3       6 GLP5        0.0000 
     65 CA         14.3810   11.6575  101.8822 C.3       3 GLC5        0.0000 
@<TRIPOS>BOND
@<TRIPOS>SUBSTRUCTURE
     1 ALC1        1 GROUP        1 X    ALC  0     ROOT ALC X 1
     2 SEC2       14 GROUP        1 X    SEC  0     **** SEC X 2
     3 GLC5        8 GROUP        1 X    GLC  0     **** GLC X 6
     4 ALP1        3 GROUP        1 Y    ALP  0     ROOT ALP Y 8
     5 SEP2       16 GROUP        1 Y    SEP  0     **** SEP Y 9
     6 GLP5       10 GROUP        1 Y    GLP  0     **** GLP Y 13
     7 ALL1        2 GROUP        1 Z    ALL  0     ROOT ALL Z 15
     8 SEL2       15 GROUP        1 Z    SEL  0     **** SEL Z 16
     9 GLL5        9 GROUP        1 Z    GLL  0     **** GLL Z 20
@<TRIPOS>SET

