#    Name: 1l1e_SAH_2_ligand
#    Modification time : Tue Mar 25 10:53:03 2014

@<TRIPOS>MOLECULE
1l1e_SAH_2_ligand
   46    48     1     0     0
SMALL
NO_CHARGES


@<TRIPOS>ATOM
      1 N          10.4990   10.9270   99.2180 N.4       1 SAH901      0.0000 
      2 CA          9.6950   10.4900  100.3560 C.3       1 SAH901      0.0000 
      3 CB         10.1660   11.1720  101.6640 C.3       1 SAH901      0.0000 
      4 CG         10.0830   12.7000  101.7360 C.3       1 SAH901      0.0000 
      5 SD         10.6410   13.3970  103.3220 S.3       1 SAH901      0.0000 
      6 C           8.2020   10.7840  100.1170 C.2       1 SAH901      0.0000 
      7 O           7.8720   11.3950   99.0720 O.co2     1 SAH901      0.0000 
      8 OXT         7.3760   10.4080  100.9760 O.co2     1 SAH901      0.0000 
      9 C5'        12.3350   13.9190  102.8970 C.3       1 SAH901      0.0000 
     10 C4'        13.3190   12.7430  102.7870 C.3       1 SAH901      0.0000 
     11 O4'        14.6210   13.1370  102.2530 O.3       1 SAH901      0.0000 
     12 C3'        13.6070   12.0750  104.1280 C.3       1 SAH901      0.0000 
     13 O3'        13.5990   10.6480  103.9260 O.3       1 SAH901      0.0000 
     14 C2'        14.9780   12.5850  104.5080 C.3       1 SAH901      0.0000 
     15 O2'        15.6500   11.6830  105.4010 O.3       1 SAH901      0.0000 
     16 C1'        15.6520   12.7100  103.1770 C.3       1 SAH901      0.0000 
     17 N9         16.7920   13.6560  103.1530 N.pl3     1 SAH901      0.0000 
     18 C8         16.9210   14.9130  103.6490 C.2       1 SAH901      0.0000 
     19 N7         18.0550   15.5090  103.4650 N.2       1 SAH901      0.0000 
     20 C5         18.7850   14.5450  102.7620 C.ar      1 SAH901      0.0000 
     21 C6         20.1120   14.5140  102.2260 C.ar      1 SAH901      0.0000 
     22 N6         20.9650   15.5460  102.3340 N.pl3     1 SAH901      0.0000 
     23 N1         20.5170   13.3720  101.5730 N.ar      1 SAH901      0.0000 
     24 C2         19.6610   12.3290  101.4570 C.ar      1 SAH901      0.0000 
     25 N3         18.3970   12.2450  101.9170 N.ar      1 SAH901      0.0000 
     26 C4         18.0200   13.4030  102.5670 C.ar      1 SAH901      0.0000 
     27 H           9.7971    9.4142  100.4980 H         1 SAH901      0.0000 
     28 H          11.2208   10.8616  101.8555 H         1 SAH901      0.0000 
     29 H           9.5783   10.7416  102.5095 H         1 SAH901      0.0000 
     30 H           9.0765   13.0778  101.6630 H         1 SAH901      0.0000 
     31 H          10.7272   13.1973  101.0297 H         1 SAH901      0.0000 
     32 H          12.5704   14.5983  103.6931 H         1 SAH901      0.0000 
     33 H          12.1873   14.4389  101.9704 H         1 SAH901      0.0000 
     34 H          12.8834   11.9823  102.1361 H         1 SAH901      0.0000 
     35 H          12.8947   12.4060  104.8246 H         1 SAH901      0.0000 
     36 H          14.8544   13.5678  104.9170 H         1 SAH901      0.0000 
     37 H          15.9921   11.7165  102.8777 H         1 SAH901      0.0000 
     38 H          16.1295   15.3487  104.1476 H         1 SAH901      0.0000 
     39 H          21.8752   15.4072  101.9437 H         1 SAH901      0.0000 
     40 H          20.6137   16.3609  102.7950 H         1 SAH901      0.0000 
     41 H          20.0434   11.4511  100.9262 H         1 SAH901      0.0000 
     42 H          10.1121   11.7382   98.7796 H         1 SAH901      0.0000 
     43 H          11.4331   11.1583   99.4902 H         1 SAH901      0.0000 
     44 H          10.5653   10.2179   98.5160 H         1 SAH901      0.0000 
     45 H          13.4957   10.2578  104.8409 H         1 SAH901      0.0000 
     46 H          15.4716   12.0443  106.3162 H         1 SAH901      0.0000 
@<TRIPOS>BOND
     1    2    1 1    
     2   42    1 1    
     3   43    1 1    
     4   44    1 1    
     5    3    2 1    
     6    6    2 1    
     7   27    2 1    
     8    4    3 1    
     9   28    3 1    
    10   29    3 1    
    11    5    4 1    
    12   30    4 1    
    13   31    4 1    
    14    9    5 1    
    15    7    6 ar   
    16    8    6 ar   
    17   10    9 1    
    18   32    9 1    
    19   33    9 1    
    20   11   10 1    
    21   12   10 1    
    22   34   10 1    
    23   16   11 1    
    24   13   12 1    
    25   14   12 1    
    26   35   12 1    
    27   45   13 1    
    28   15   14 1    
    29   16   14 1    
    30   36   14 1    
    31   46   15 1    
    32   17   16 1    
    33   37   16 1    
    34   18   17 1    
    35   26   17 1    
    36   19   18 2    
    37   38   18 1    
    38   20   19 1    
    39   21   20 ar   
    40   26   20 ar   
    41   22   21 1    
    42   23   21 ar   
    43   39   22 1    
    44   40   22 1    
    45   24   23 ar   
    46   25   24 ar   
    47   41   24 1    
    48   26   25 ar   
@<TRIPOS>SUBSTRUCTURE
     1 SAH901      1 GROUP   
@<TRIPOS>SET

