#    Name: 1ypg_UIR_1_INTS_M
#    Modification time : Tue Mar 25 11:13:17 2014

@<TRIPOS>MOLECULE
1ypg_UIR_1_INTS_M
   67     0     9     0     0
SMALL
NO_CHARGES


@<TRIPOS>ATOM
      1 O           9.3660  -10.6675   24.8060 O.2       1 ALC1        0.0000 
      2 O          10.3920  -11.8420   24.2390 O.2       7 ALL1        0.0000 
      3 O           8.3400   -9.4930   25.3730 O.2       4 ALP1        0.0000 
      4 O           9.2070  -11.7315   24.9860 O.2       1 ALC1        0.0000 
      5 O           8.0220  -11.6210   25.7330 O.2       4 ALP1        0.0000 
      6 CA         17.8900  -10.3945   17.7095 C.3       3 GLC5        0.0000 
      7 CA         16.6180  -11.9890   17.1840 C.3       9 GLL5        0.0000 
      8 CA         19.1620   -8.8000   18.2350 C.3       6 GLP5        0.0000 
      9 CA         18.1835  -13.9910   17.5740 C.3       3 GLC5        0.0000 
     10 CA         16.7240  -12.6920   18.5650 C.3       9 GLL5        0.0000 
     11 CA         19.6430  -15.2900   16.5830 C.3       6 GLP5        0.0000 
     12 CA         22.1375  -13.7945   19.2175 C.3       3 GLC5        0.0000 
     13 CA         20.3410  -12.8900   19.8910 C.3       9 GLL5        0.0000 
     14 CA         23.9340  -14.6990   18.5440 C.3       6 GLP5        0.0000 
     15 CA         21.3990  -10.3325   19.6440 C.3       3 GLC5        0.0000 
     16 CA         21.1640  -12.3390   20.3800 C.3       9 GLL5        0.0000 
     17 CA         21.6340   -8.3260   18.9080 C.3       6 GLP5        0.0000 
     18 CA         22.9995  -12.6785   20.1795 C.3       3 GLC5        0.0000 
     19 CA         24.8350  -13.0180   19.9790 C.3       6 GLP5        0.0000 
     20 CA         19.9990  -10.4095   18.4995 C.3       3 GLC5        0.0000 
     21 CA         20.8360  -12.0190   18.7640 C.3       9 GLL5        0.0000 
     22 CA         22.6525  -12.2780   18.2075 C.3       3 GLC5        0.0000 
     23 CA         24.4690  -12.5370   17.6510 C.3       6 GLP5        0.0000 
     24 CA         20.2395  -13.6545   17.6735 C.3       3 GLC5        0.0000 
     25 N          15.6565  -12.2670   23.8060 N.am      2 SEC2        0.0000 
     26 N          16.4330  -12.7950   22.6740 N.am      8 SEL2        0.0000 
     27 N          14.8800  -11.7390   24.9380 N.am      5 SEP2        0.0000 
     28 CA         16.5960  -10.6865   22.4520 C.3       3 GLC5        0.0000 
     29 CA         16.8800  -11.4280   20.6600 C.3       9 GLL5        0.0000 
     30 CA         16.3120   -9.9450   24.2440 C.3       6 GLP5        0.0000 
     31 CA         24.1735  -12.5595   26.5275 C.3       3 GLC5        0.0000 
     32 CA         23.6860  -13.6450   25.3880 C.3       9 GLL5        0.0000 
     33 CA         24.6610  -11.4740   27.6670 C.3       6 GLP5        0.0000 
     34 CA         23.0785  -11.8360   24.4900 C.3       3 GLC5        0.0000 
     35 CA         22.4710  -10.0270   23.5920 C.3       6 GLP5        0.0000 
     36 CA         23.0510  -12.4560   26.4845 C.3       3 GLC5        0.0000 
     37 CA         21.4410  -13.4380   25.3020 C.3       9 GLL5        0.0000 
     38 CA         13.4430  -11.0980   24.1485 C.3       3 GLC5        0.0000 
     39 CA         12.9500   -9.8170   22.4480 C.3       9 GLL5        0.0000 
     40 CA         13.9360  -12.3790   25.8490 C.3       6 GLP5        0.0000 
     41 O           9.5820   -9.5665   24.8535 O.2       1 ALC1        0.0000 
     42 O          10.8240   -9.6400   24.3340 O.2       7 ALL1        0.0000 
     43 CA         14.4495  -10.1632   23.4470 C.3       3 GLC5        0.0000 
     44 CA         12.2240  -10.9460   22.8520 C.3       9 GLL5        0.0000 
     45 CA         13.4610  -12.1589   23.9154 C.3       3 GLC5        0.0000 
     46 CA         15.2288  -10.2510   22.7490 C.3       3 GLC5        0.0000 
     47 CA         14.3110  -11.1800   20.9780 C.3       9 GLL5        0.0000 
     48 CA         12.9008  -12.1797   17.0082 C.3       3 GLC5        0.0000 
     49 CA         14.3840  -12.3600   18.0190 C.3       9 GLL5        0.0000 
     50 CA         10.9860  -11.9500   16.6410 C.3       6 GLP5        0.0000 
     51 CA         19.5195  -14.4897   18.8190 C.3       3 GLC5        0.0000 
     52 CA         18.8290  -12.7630   20.0550 C.3       9 GLL5        0.0000 
     53 CA         19.4540  -16.1530   17.6650 C.3       6 GLP5        0.0000 
     54 CA         20.9282  -11.2353   21.5408 C.3       3 GLC5        0.0000 
     55 CA         21.1040   -9.8560   22.9460 C.3       6 GLP5        0.0000 
     56 CA         18.3696  -10.3345   19.2170 C.3       3 GLC5        0.0000 
     57 CA         17.7200  -11.8570   19.4210 C.3       9 GLL5        0.0000 
     58 CA         20.7263  -12.0158   23.0375 C.3       3 GLC5        0.0000 
     59 CA         19.6590  -14.0670   23.2310 C.3       9 GLL5        0.0000 
     60 CA         22.0748  -11.8635   24.1420 C.3       3 GLC5        0.0000 
     61 CA         20.3758  -11.6180   23.9830 C.3       3 GLC5        0.0000 
     62 CA         20.0810  -13.2230   25.5570 C.3       9 GLL5        0.0000 
     63 CA         18.6929  -12.0307   24.7160 C.3       3 GLC5        0.0000 
     64 CA         17.6270  -10.5490   24.7250 C.3       6 GLP5        0.0000 
     65 CA         13.0415   -7.9737   21.7740 C.3       3 GLC5        0.0000 
     66 CA         13.9800   -9.9340   21.5300 C.3       9 GLL5        0.0000 
     67 CA         12.6180   -6.0720   21.5590 C.3       6 GLP5        0.0000 
@<TRIPOS>BOND
@<TRIPOS>SUBSTRUCTURE
     1 ALC1        1 GROUP        1 X    ALC  0     ROOT ALC X 1
     2 SEC2       25 GROUP        1 X    SEC  0     **** SEC X 2
     3 GLC5        6 GROUP        1 X    GLC  0     **** GLC X 6
     4 ALP1        3 GROUP        1 Y    ALP  0     ROOT ALP Y 8
     5 SEP2       27 GROUP        1 Y    SEP  0     **** SEP Y 9
     6 GLP5        8 GROUP        1 Y    GLP  0     **** GLP Y 13
     7 ALL1        2 GROUP        1 Z    ALL  0     ROOT ALL Z 15
     8 SEL2       26 GROUP        1 Z    SEL  0     **** SEL Z 16
     9 GLL5        7 GROUP        1 Z    GLL  0     **** GLL Z 20
@<TRIPOS>SET

