#    Name: 1ypg_UIR_1_ligand
#    Modification time : Tue Mar 25 11:13:17 2014

@<TRIPOS>MOLECULE
1ypg_UIR_1_ligand
   65    71     1     0     0
SMALL
NO_CHARGES


@<TRIPOS>ATOM
      1 N1         10.3920  -11.8420   24.2390 N.pl3     1 UIR5555     0.0000 
      2 C3         11.1550  -10.8420   23.7920 C.ar      1 UIR5555     0.0000 
      3 C4         12.2240  -10.9460   22.8520 C.ar      1 UIR5555     0.0000 
      4 C9         12.5480  -12.1990   22.3090 C.ar      1 UIR5555     0.0000 
      5 C8         13.5860  -12.3050   21.3830 C.ar      1 UIR5555     0.0000 
      6 C7         14.3110  -11.1800   20.9780 C.ar      1 UIR5555     0.0000 
      7 C10        15.4670  -11.3170   20.0350 C.3       1 UIR5555     0.0000 
      8 N11        15.3400  -12.5240   19.1570 N.4       1 UIR5555     0.0000 
      9 C12        14.3840  -12.3600   18.0190 C.3       1 UIR5555     0.0000 
     10 C13        15.2470  -12.4590   16.7320 C.3       1 UIR5555     0.0000 
     11 C14        16.6180  -11.9890   17.1840 C.3       1 UIR5555     0.0000 
     12 C15        16.7240  -12.6920   18.5650 C.3       1 UIR5555     0.0000 
     13 C16        17.7200  -11.8570   19.4210 C.3       1 UIR5555     0.0000 
     14 C18        20.3410  -12.8900   19.8910 C.3       1 UIR5555     0.0000 
     15 C17        18.8290  -12.7630   20.0550 C.3       1 UIR5555     0.0000 
     16 C42        21.1640  -12.3390   20.3800 C.3       1 UIR5555     0.0000 
     17 C41        20.8360  -12.0190   18.7640 C.3       1 UIR5555     0.0000 
     18 N19        18.2280  -13.2680   21.2590 N.am      1 UIR5555     0.0000 
     19 C20        17.0320  -12.6620   21.5760 C.2       1 UIR5555     0.0000 
     20 O21        16.4330  -12.7950   22.6740 O.2       1 UIR5555     0.0000 
     21 C22        16.8800  -11.4280   20.6600 C.3       1 UIR5555     0.0000 
     22 C23        18.7190  -14.4170   22.0850 C.3       1 UIR5555     0.0000 
     23 C24        19.6590  -14.0670   23.2310 C.ar      1 UIR5555     0.0000 
     24 C25        21.0380  -14.2840   23.0270 C.ar      1 UIR5555     0.0000 
     25 C26        21.9160  -13.9620   24.0820 C.ar      1 UIR5555     0.0000 
     26 O27        23.3120  -14.1140   24.0690 O.3       1 UIR5555     0.0000 
     27 C28        23.6860  -13.6450   25.3880 C.3       1 UIR5555     0.0000 
     28 O29        22.5010  -13.2210   26.1480 O.3       1 UIR5555     0.0000 
     29 C30        21.4410  -13.4380   25.3020 C.ar      1 UIR5555     0.0000 
     30 C31        20.0810  -13.2230   25.5570 C.ar      1 UIR5555     0.0000 
     31 C32        19.2140  -13.5370   24.4830 C.ar      1 UIR5555     0.0000 
     32 C6         13.9800   -9.9340   21.5300 C.ar      1 UIR5555     0.0000 
     33 C5         12.9500   -9.8170   22.4480 C.ar      1 UIR5555     0.0000 
     34 N2         10.8240   -9.6400   24.3340 N.pl3     1 UIR5555     0.0000 
     35 H          12.0223  -13.0299   22.5939 H         1 UIR5555     0.0000 
     36 H          13.8245  -13.2308   20.9885 H         1 UIR5555     0.0000 
     37 H          15.4995  -10.4424   19.3569 H         1 UIR5555     0.0000 
     38 H          15.1208  -13.3818   19.7324 H         1 UIR5555     0.0000 
     39 H          13.9216  -11.3973   18.0453 H         1 UIR5555     0.0000 
     40 H          13.6651  -13.1502   18.0081 H         1 UIR5555     0.0000 
     41 H          14.8536  -11.8027   16.0014 H         1 UIR5555     0.0000 
     42 H          15.2868  -13.4692   16.4201 H         1 UIR5555     0.0000 
     43 H          16.6235  -10.9515   17.3255 H         1 UIR5555     0.0000 
     44 H          17.3629  -12.3630   16.5502 H         1 UIR5555     0.0000 
     45 H          17.0015  -13.6507   18.4698 H         1 UIR5555     0.0000 
     46 H          18.0890  -11.0624   18.9482 H         1 UIR5555     0.0000 
     47 H          20.5898  -13.8910   19.4963 H         1 UIR5555     0.0000 
     48 H          18.4798  -13.8514   19.3417 H         1 UIR5555     0.0000 
     49 H          22.1358  -12.6640   20.2722 H         1 UIR5555     0.0000 
     50 H          20.9986  -11.3935   20.7546 H         1 UIR5555     0.0000 
     51 H          20.3751  -11.2299   18.8536 H         1 UIR5555     0.0000 
     52 H          21.5123  -12.5003   18.3712 H         1 UIR5555     0.0000 
     53 H          17.2259  -10.5872   21.0383 H         1 UIR5555     0.0000 
     54 H          19.2341  -15.1527   21.4224 H         1 UIR5555     0.0000 
     55 H          17.8443  -14.9676   22.5060 H         1 UIR5555     0.0000 
     56 H          21.3826  -14.6558   22.1584 H         1 UIR5555     0.0000 
     57 H          24.3906  -12.7990   25.3065 H         1 UIR5555     0.0000 
     58 H          24.2101  -14.4431   25.9423 H         1 UIR5555     0.0000 
     59 H          19.7443  -12.8784   26.4190 H         1 UIR5555     0.0000 
     60 H          18.1894  -13.3745   24.6058 H         1 UIR5555     0.0000 
     61 H          14.5153   -9.0986   21.2435 H         1 UIR5555     0.0000 
     62 H          12.7092   -8.8949   22.8421 H         1 UIR5555     0.0000 
     63 H          11.3945   -8.8640   24.0651 H         1 UIR5555     0.0000 
     64 H          10.0392   -9.6379   24.9537 H         1 UIR5555     0.0000 
     65 H           9.6443  -11.3967   24.7315 H         1 UIR5555     0.0000 
@<TRIPOS>BOND
     1    2    1 ar   
     2   65    1 1    
     3    3    2 1    
     4   34    2 ar   
     5    4    3 ar   
     6   33    3 ar   
     7    5    4 ar   
     8   35    4 1    
     9    6    5 ar   
    10   36    5 1    
    11    7    6 1    
    12   32    6 ar   
    13    8    7 1    
    14   21    7 1    
    15   37    7 1    
    16    9    8 1    
    17   12    8 1    
    18   38    8 1    
    19   10    9 1    
    20   39    9 1    
    21   40    9 1    
    22   11   10 1    
    23   41   10 1    
    24   42   10 1    
    25   12   11 1    
    26   43   11 1    
    27   44   11 1    
    28   13   12 1    
    29   45   12 1    
    30   15   13 1    
    31   21   13 1    
    32   46   13 1    
    33   15   14 1    
    34   16   14 1    
    35   17   14 1    
    36   47   14 1    
    37   18   15 1    
    38   48   15 1    
    39   17   16 1    
    40   49   16 1    
    41   50   16 1    
    42   51   17 1    
    43   52   17 1    
    44   19   18 am   
    45   22   18 1    
    46   20   19 2    
    47   21   19 1    
    48   53   21 1    
    49   23   22 1    
    50   54   22 1    
    51   55   22 1    
    52   24   23 ar   
    53   31   23 ar   
    54   25   24 ar   
    55   56   24 1    
    56   26   25 1    
    57   29   25 ar   
    58   27   26 1    
    59   28   27 1    
    60   57   27 1    
    61   58   27 1    
    62   29   28 1    
    63   30   29 ar   
    64   31   30 ar   
    65   59   30 1    
    66   60   31 1    
    67   33   32 ar   
    68   61   32 1    
    69   62   33 1    
    70   63   34 1    
    71   64   34 1    
@<TRIPOS>SUBSTRUCTURE
     1 UIR5555     1 GROUP   
@<TRIPOS>SET

