#    Name: 2x9h_KI9_1_INTS_M
#    Modification time : Tue Mar 25 05:35:01 2014

@<TRIPOS>MOLECULE
2x9h_KI9_1_INTS_M
   33     0     3     0     0
SMALL
NO_CHARGES


@<TRIPOS>ATOM
      1 CA         67.9645   46.7365  -44.9260 C.3       1 GLC5        0.0000 
      2 CA         70.0790   46.2970  -45.0200 C.3       3 GLL5        0.0000 
      3 CA         65.8500   47.1760  -44.8320 C.3       2 GLP5        0.0000 
      4 CA         69.1865   48.1300  -44.3215 C.3       1 GLC5        0.0000 
      5 CA         68.2940   49.9630  -43.6230 C.3       2 GLP5        0.0000 
      6 CA         72.6080   45.7685  -45.6900 C.3       1 GLC5        0.0000 
      7 CA         72.0950   44.9120  -47.3830 C.3       3 GLL5        0.0000 
      8 CA         73.1210   46.6250  -43.9970 C.3       2 GLP5        0.0000 
      9 CA         70.9510   44.7770  -51.8525 C.3       1 GLC5        0.0000 
     10 CA         71.3120   45.4860  -50.4910 C.3       3 GLL5        0.0000 
     11 CA         70.5900   44.0680  -53.2140 C.3       2 GLP5        0.0000 
     12 CA         67.3080   47.2005  -45.9825 C.3       1 GLC5        0.0000 
     13 CA         68.7660   47.2250  -47.1330 C.3       3 GLL5        0.0000 
     14 CA         68.5300   48.5940  -45.3780 C.3       1 GLC5        0.0000 
     15 CA         66.9790   46.7280  -47.0960 C.3       1 GLC5        0.0000 
     16 CA         68.4650   47.4490  -48.4510 C.3       3 GLL5        0.0000 
     17 CA         65.4930   46.0070  -45.7410 C.3       2 GLP5        0.0000 
     18 CA         65.9055   50.5520  -50.2225 C.3       1 GLC5        0.0000 
     19 CA         65.5210   49.4840  -51.0700 C.3       3 GLL5        0.0000 
     20 CA         66.2900   51.6200  -49.3750 C.3       2 GLP5        0.0000 
     21 CA         66.2210   49.3480  -53.5840 C.3       1 GLC5        0.0000 
     22 CA         67.3360   48.2640  -52.7740 C.3       3 GLL5        0.0000 
     23 CA         65.1060   50.4320  -54.3940 C.3       2 GLP5        0.0000 
     24 CA         71.5430   46.5042  -44.9510 C.3       1 GLC5        0.0000 
     25 CA         69.8510   46.4700  -46.7900 C.3       3 GLL5        0.0000 
     26 CA         69.7878   45.5927  -52.2605 C.3       1 GLC5        0.0000 
     27 CA         68.7660   47.2630  -50.6600 C.3       3 GLL5        0.0000 
     28 CA         66.7972   49.9467  -50.1638 C.3       1 GLC5        0.0000 
     29 CA         67.6580   48.0280  -50.4280 C.3       3 GLL5        0.0000 
     30 CA         65.6710   49.7167  -52.8337 C.3       1 GLC5        0.0000 
     31 CA         69.9860   46.2413  -53.9648 C.3       1 GLC5        0.0000 
     32 CA         68.4540   47.4960  -53.0170 C.3       3 GLL5        0.0000 
     33 CA         71.3230   45.1090  -54.0480 C.3       2 GLP5        0.0000 
@<TRIPOS>BOND
@<TRIPOS>SUBSTRUCTURE
     1 GLC5        1 GROUP        1 X    GLC  0     ROOT GLC X 6
     2 GLP5        3 GROUP        1 Y    GLP  0     ROOT GLP Y 13
     3 GLL5        2 GROUP        1 Z    GLL  0     ROOT GLL Z 20
@<TRIPOS>SET

