#    Name: 2x9h_KI9_1_ligand
#    Modification time : Tue Mar 25 05:35:01 2014

@<TRIPOS>MOLECULE
2x9h_KI9_1_ligand
   23    25     1     0     0
SMALL
NO_CHARGES


@<TRIPOS>ATOM
      1 CL1        70.0790   46.2970  -45.0200 Cl        1 KI94001     0.0000 
      2 C10        69.8510   46.4700  -46.7900 C.ar      1 KI94001     0.0000 
      3 C9         70.6660   45.9150  -47.7850 C.ar      1 KI94001     0.0000 
      4 CL2        72.0950   44.9120  -47.3830 Cl        1 KI94001     0.0000 
      5 C8         70.3580   46.1390  -49.1260 C.ar      1 KI94001     0.0000 
      6 CL3        71.3120   45.4860  -50.4910 Cl        1 KI94001     0.0000 
      7 C11        68.7660   47.2250  -47.1330 C.ar      1 KI94001     0.0000 
      8 C12        68.4650   47.4490  -48.4510 C.ar      1 KI94001     0.0000 
      9 C7         69.2570   46.9100  -49.4310 C.ar      1 KI94001     0.0000 
     10 C4         68.7660   47.2630  -50.6600 C.ar      1 KI94001     0.0000 
     11 C3         67.6580   48.0280  -50.4280 C.ar      1 KI94001     0.0000 
     12 C2         66.9510   48.5190  -51.4770 C.ar      1 KI94001     0.0000 
     13 CL5        65.5210   49.4840  -51.0700 Cl        1 KI94001     0.0000 
     14 C5         69.2050   46.9720  -51.9540 C.ar      1 KI94001     0.0000 
     15 C6         68.4540   47.4960  -53.0170 C.ar      1 KI94001     0.0000 
     16 CL6        68.8440   47.2510  -54.7460 Cl        1 KI94001     0.0000 
     17 C1         67.3360   48.2640  -52.7740 C.ar      1 KI94001     0.0000 
     18 N13        67.4860   48.1320  -49.0860 N.pl3     1 KI94001     0.0000 
     19 O14        68.0010   47.7570  -46.1620 O.3       1 KI94001     0.0000 
     20 H          70.0228   46.4119  -52.1192 H         1 KI94001     0.0000 
     21 H          66.7903   48.6460  -53.5609 H         1 KI94001     0.0000 
     22 H          66.7695   48.6220  -48.6515 H         1 KI94001     0.0000 
     23 H          68.6197   47.8869  -45.3872 H         1 KI94001     0.0000 
@<TRIPOS>BOND
     1    2    1 1    
     2    3    2 ar   
     3    7    2 ar   
     4    4    3 1    
     5    5    3 ar   
     6    6    5 1    
     7    9    5 ar   
     8    8    7 ar   
     9   19    7 1    
    10    9    8 ar   
    11   18    8 1    
    12   10    9 1    
    13   11   10 ar   
    14   14   10 ar   
    15   12   11 ar   
    16   18   11 1    
    17   13   12 1    
    18   17   12 ar   
    19   15   14 ar   
    20   20   14 1    
    21   16   15 1    
    22   17   15 ar   
    23   21   17 1    
    24   22   18 1    
    25   23   19 1    
@<TRIPOS>SUBSTRUCTURE
     1 KI94001     1 GROUP   
@<TRIPOS>SET

