#    Name: 1u0z_RDC_1_INTS_M
#    Modification time : Tue Mar 25 05:53:18 2014

@<TRIPOS>MOLECULE
1u0z_RDC_1_INTS_M
   51     0     6     0     0
SMALL
NO_CHARGES


@<TRIPOS>ATOM
      1 CA       -118.7545  -38.2365   51.3365 C.3       2 GLC5        0.0000 
      2 CA       -120.3680  -37.6440   52.4090 C.3       6 GLL5        0.0000 
      3 CA       -117.1410  -38.8290   50.2640 C.3       4 GLP5        0.0000 
      4 CA       -121.9035  -38.6230   51.3635 C.3       2 GLC5        0.0000 
      5 CA       -123.4390  -39.6020   50.3180 C.3       4 GLP5        0.0000 
      6 CA       -119.4710  -35.4085   51.2145 C.3       2 GLC5        0.0000 
      7 CA       -120.9390  -36.3490   52.5210 C.3       6 GLL5        0.0000 
      8 CA       -118.0030  -34.4680   49.9080 C.3       4 GLP5        0.0000 
      9 CA       -122.6155  -37.6865   51.9820 C.3       2 GLC5        0.0000 
     10 CA       -124.2920  -39.0240   51.4430 C.3       4 GLP5        0.0000 
     11 CA       -121.7825  -40.1255   55.4170 C.3       2 GLC5        0.0000 
     12 CA       -120.6360  -38.9380   56.1900 C.3       6 GLL5        0.0000 
     13 CA       -122.9290  -41.3130   54.6440 C.3       4 GLP5        0.0000 
     14 CA       -122.0505  -38.8315   57.7380 C.3       2 GLC5        0.0000 
     15 CA       -123.4650  -38.7250   59.2860 C.3       4 GLP5        0.0000 
     16 CA       -117.3405  -35.6605   55.2940 C.3       2 GLC5        0.0000 
     17 CA       -116.3340  -37.2520   56.2530 C.3       6 GLL5        0.0000 
     18 CA       -118.3470  -34.0690   54.3350 C.3       4 GLP5        0.0000 
     19 CA       -115.2865  -38.9055   52.4290 C.3       2 GLC5        0.0000 
     20 CA       -114.9520  -38.8540   54.6040 C.3       6 GLL5        0.0000 
     21 CA       -115.6210  -38.9570   50.2540 C.3       4 GLP5        0.0000 
     22 CA       -115.9320  -39.9050   51.9675 C.3       2 GLC5        0.0000 
     23 CA       -116.2430  -40.8530   53.6810 C.3       6 GLL5        0.0000 
     24 CA       -114.4405  -41.1690   52.6685 C.3       2 GLC5        0.0000 
     25 CA       -112.6380  -41.4850   51.6560 C.3       4 GLP5        0.0000 
     26 CA       -117.4010  -40.0510   52.1150 C.3       2 GLC5        0.0000 
     27 CA       -117.6610  -41.2730   53.9660 C.3       6 GLL5        0.0000 
     28 O        -120.3665  -37.3850   50.1380 O.2       1 ALC1        0.0000 
     29 O        -119.9460  -38.0100   51.1680 O.2       5 ALL1        0.0000 
     30 O        -120.7870  -36.7600   49.1080 O.2       3 ALP1        0.0000 
     31 CA       -122.6895  -37.4295   57.8650 C.3       2 GLC5        0.0000 
     32 CA       -121.9140  -36.1340   56.4440 C.3       6 GLL5        0.0000 
     33 CA       -123.0220  -35.3055   57.1590 C.3       2 GLC5        0.0000 
     34 CA       -124.1300  -34.4770   57.8740 C.3       4 GLP5        0.0000 
     35 CA       -121.7043  -39.8065   54.4368 C.3       2 GLC5        0.0000 
     36 CA       -120.7290  -38.0630   54.8880 C.3       6 GLL5        0.0000 
     37 CA       -123.1093  -35.9735   53.3740 C.3       2 GLC5        0.0000 
     38 CA       -121.4040  -35.9010   53.7850 C.3       6 GLL5        0.0000 
     39 CA       -125.0470  -35.8220   53.5950 C.3       4 GLP5        0.0000 
     40 CA       -119.7926  -35.2553   54.1962 C.3       2 GLC5        0.0000 
     41 CA       -123.3282  -36.1340   54.6490 C.3       2 GLC5        0.0000 
     42 CA       -121.3050  -36.7580   54.9620 C.3       6 GLL5        0.0000 
     43 CA       -114.2308  -37.2135   53.9790 C.3       2 GLC5        0.0000 
     44 CA       -115.3070  -37.6320   55.4860 C.3       6 GLL5        0.0000 
     45 CA       -113.3320  -36.1840   52.9130 C.3       4 GLP5        0.0000 
     46 CA       -113.3815  -40.4010   54.2908 C.3       2 GLC5        0.0000 
     47 CA       -111.5880  -41.2690   53.8900 C.3       4 GLP5        0.0000 
     48 CA       -116.7325  -42.1870   52.2353 C.3       2 GLC5        0.0000 
     49 CA       -116.5130  -43.3110   50.6470 C.3       4 GLP5        0.0000 
     50 CA       -119.5233  -42.6043   54.5670 C.3       2 GLC5        0.0000 
     51 CA       -121.2480  -43.5250   54.5410 C.3       4 GLP5        0.0000 
@<TRIPOS>BOND
@<TRIPOS>SUBSTRUCTURE
     1 ALC1       28 GROUP        1 X    ALC  0     ROOT ALC X 1
     2 GLC5        1 GROUP        1 X    GLC  0     **** GLC X 6
     3 ALP1       30 GROUP        1 Y    ALP  0     ROOT ALP Y 8
     4 GLP5        3 GROUP        1 Y    GLP  0     **** GLP Y 13
     5 ALL1       29 GROUP        1 Z    ALL  0     ROOT ALL Z 15
     6 GLL5        2 GROUP        1 Z    GLL  0     **** GLL Z 20
@<TRIPOS>SET

