#    Name: 1u0z_RDC_1_ligand
#    Modification time : Tue Mar 25 05:53:18 2014

@<TRIPOS>MOLECULE
1u0z_RDC_1_ligand
   42    44     1     0     0
SMALL
NO_CHARGES


@<TRIPOS>ATOM
      1 C1       -119.5830  -39.8590   53.3170 C.2       1 RDC301      0.0000 
      2 C2       -120.2300  -38.5370   53.5710 C.ar      1 RDC301      0.0000 
      3 C3       -120.3680  -37.6440   52.4090 C.ar      1 RDC301      0.0000 
      4 C4       -120.9390  -36.3490   52.5210 C.ar      1 RDC301      0.0000 
      5 C5       -121.4040  -35.9010   53.7850 C.ar      1 RDC301      0.0000 
      6 C6       -121.3050  -36.7580   54.9620 C.ar      1 RDC301      0.0000 
      7 C7       -120.7290  -38.0630   54.8880 C.ar      1 RDC301      0.0000 
      8 C8       -120.6360  -38.9380   56.1900 C.3       1 RDC301      0.0000 
      9 C9       -119.8000  -38.4360   57.4180 C.2       1 RDC301      0.0000 
     10 C10      -118.5740  -37.6380   57.2300 C.2       1 RDC301      0.0000 
     11 C11      -117.5530  -38.0110   56.4780 C.2       1 RDC301      0.0000 
     12 C12      -116.3340  -37.2520   56.2530 C.2       1 RDC301      0.0000 
     13 C13      -115.3070  -37.6320   55.4860 C.2       1 RDC301      0.0000 
     14 C14      -114.9520  -38.8540   54.6040 C.3       1 RDC301      0.0000 
     15 C15      -115.3980  -40.2120   54.7790 C.3       1 RDC301      0.0000 
     16 C16      -116.2430  -40.8530   53.6810 C.3       1 RDC301      0.0000 
     17 C17      -117.6610  -41.2730   53.9660 C.3       1 RDC301      0.0000 
     18 C18      -117.9360  -42.0940   55.2200 C.3       1 RDC301      0.0000 
     19 O1       -118.4910  -40.0600   54.0580 O.3       1 RDC301      0.0000 
     20 O2       -120.0080  -40.6790   52.4740 O.2       1 RDC301      0.0000 
     21 O3       -119.9460  -38.0100   51.1680 O.3       1 RDC301      0.0000 
     22 O4       -121.9530  -34.6550   53.9500 O.3       1 RDC301      0.0000 
     23 CL1      -121.9140  -36.1340   56.4440 Cl        1 RDC301      0.0000 
     24 O5       -120.1750  -38.6640   58.5370 O.2       1 RDC301      0.0000 
     25 O6       -114.0250  -39.8670   54.7780 O.3       1 RDC301      0.0000 
     26 H        -121.0138  -35.7503   51.7062 H         1 RDC301      0.0000 
     27 H        -120.2451  -39.9482   55.8965 H         1 RDC301      0.0000 
     28 H        -121.6821  -39.1381   56.5436 H         1 RDC301      0.0000 
     29 H        -118.5713  -36.7201   57.7553 H         1 RDC301      0.0000 
     30 H        -117.5774  -38.9536   55.9644 H         1 RDC301      0.0000 
     31 H        -116.2990  -36.3143   56.7653 H         1 RDC301      0.0000 
     32 H        -114.4314  -36.9047   55.4267 H         1 RDC301      0.0000 
     33 H        -115.0127  -38.7233   53.5301 H         1 RDC301      0.0000 
     34 H        -115.6942  -40.2545   55.7666 H         1 RDC301      0.0000 
     35 H        -115.6741  -41.7505   53.2872 H         1 RDC301      0.0000 
     36 H        -116.2479  -40.1483   52.7935 H         1 RDC301      0.0000 
     37 H        -118.0387  -41.8473   53.0999 H         1 RDC301      0.0000 
     38 H        -117.4359  -42.9600   55.2140 H         1 RDC301      0.0000 
     39 H        -117.6667  -41.6057   56.0501 H         1 RDC301      0.0000 
     40 H        -118.9065  -42.3166   55.3127 H         1 RDC301      0.0000 
     41 H        -120.6870  -37.7407   50.5529 H         1 RDC301      0.0000 
     42 H        -121.9316  -34.2404   53.0403 H         1 RDC301      0.0000 
@<TRIPOS>BOND
     1    2    1 1    
     2   19    1 1    
     3   20    1 2    
     4    3    2 ar   
     5    7    2 ar   
     6    4    3 ar   
     7   21    3 1    
     8    5    4 ar   
     9   26    4 1    
    10    6    5 ar   
    11   22    5 1    
    12    7    6 ar   
    13   23    6 1    
    14    8    7 1    
    15    9    8 1    
    16   27    8 1    
    17   28    8 1    
    18   10    9 1    
    19   24    9 2    
    20   11   10 2    
    21   29   10 1    
    22   12   11 1    
    23   30   11 1    
    24   13   12 2    
    25   31   12 1    
    26   14   13 1    
    27   32   13 1    
    28   15   14 1    
    29   25   14 1    
    30   33   14 1    
    31   16   15 1    
    32   25   15 1    
    33   34   15 1    
    34   17   16 1    
    35   35   16 1    
    36   36   16 1    
    37   18   17 1    
    38   19   17 1    
    39   37   17 1    
    40   38   18 1    
    41   39   18 1    
    42   40   18 1    
    43   41   21 1    
    44   42   22 1    
@<TRIPOS>SUBSTRUCTURE
     1 RDC301      1 GROUP   
@<TRIPOS>SET

