#    Name: 1map_KET_1_INTS_M
#    Modification time : Mon Apr  7 14:33:54 2014

@<TRIPOS>MOLECULE
1map_KET_1_INTS_M
   78     0    12     0     0
SMALL
NO_CHARGES


@<TRIPOS>ATOM
      1 N          43.2630   16.8985   46.3105 N.am      2 SEC2        0.0000 
      2 N          43.7820   15.8150   45.4620 N.am     10 SEL2        0.0000 
      3 N          42.7440   17.9820   47.1590 N.am      6 SEP2        0.0000 
      4 CA         45.4255   17.1885   45.4635 C.3       4 GLC5        0.0000 
      5 CA         45.3700   16.0650   47.3230 C.3      12 GLL5        0.0000 
      6 CA         45.4810   18.3120   43.6040 C.3       8 GLP5        0.0000 
      7 CA         47.3295   15.9175   48.0640 C.3       4 GLC5        0.0000 
      8 CA         49.2890   15.7700   48.8050 C.3       8 GLP5        0.0000 
      9 CA         45.9910   14.1600   48.0220 C.3       4 GLC5        0.0000 
     10 CA         46.6120   12.2550   48.7210 C.3       8 GLP5        0.0000 
     11 N          48.1420   14.6120   46.1755 N.am      2 SEC2        0.0000 
     12 N          46.9430   14.2160   45.8560 N.am     10 SEL2        0.0000 
     13 N          49.3410   15.0080   46.4950 N.am      6 SEP2        0.0000 
     14 O          47.4175   12.9965   46.3060 O.2       1 ALC1        0.0000 
     15 O          46.9430   14.2160   45.8560 O.2       9 ALL1        0.0000 
     16 O          47.8920   11.7770   46.7560 O.2       5 ALP1        0.0000 
     17 CA         42.0380   16.9005   44.0565 C.3       4 GLC5        0.0000 
     18 CA         43.3210   15.3390   44.3000 C.3      12 GLL5        0.0000 
     19 CA         40.7550   18.4620   43.8130 C.3       8 GLP5        0.0000 
     20 CA         41.3420   13.8645   42.4200 C.3       4 GLC5        0.0000 
     21 CA         43.5470   13.9730   42.2130 C.3      12 GLL5        0.0000 
     22 CA         39.1370   13.7560   42.6270 C.3       8 GLP5        0.0000 
     23 CA         44.2055   15.4255   41.9910 C.3       4 GLC5        0.0000 
     24 CA         44.8640   16.8780   41.7690 C.3       8 GLP5        0.0000 
     25 N          40.3790   10.4270   40.8285 N.am      2 SEC2        0.0000 
     26 N          41.3350   11.1960   41.4430 N.am     10 SEL2        0.0000 
     27 N          39.4230    9.6580   40.2140 N.am      6 SEP2        0.0000 
     28 N          40.1075   11.9240   41.5885 N.am      2 SEC2        0.0000 
     29 N          38.8800   12.6520   41.7340 N.am      6 SEP2        0.0000 
     30 N          41.0590   10.4920   42.6850 N.am      2 SEC2        0.0000 
     31 N          40.7830    9.7880   43.9270 N.am      6 SEP2        0.0000 
     32 NZ         42.5625   10.4220   39.0375 N.4       3 LYC4        0.0000 
     33 NZ         43.4300   10.9970   40.1470 N.4      11 LYL4        0.0000 
     34 NZ         41.2880   10.7320   37.0230 N.4       7 LYP4        0.0000 
     35 N          42.5625   10.4220   39.0375 N.am      2 SEC2        0.0000 
     36 N          43.4300   10.9970   40.1470 N.am     10 SEL2        0.0000 
     37 N          41.6950    9.8470   37.9280 N.am      6 SEP2        0.0000 
     38 N          41.0785   14.1135   40.4245 N.am      2 SEC2        0.0000 
     39 N          42.1630   13.1400   40.0980 N.am     10 SEL2        0.0000 
     40 N          39.9940   15.0870   40.7510 N.am      6 SEP2        0.0000 
     41 N          42.2615   14.4245   39.6915 N.am      2 SEC2        0.0000 
     42 N          42.3600   15.7090   39.2850 N.am      6 SEP2        0.0000 
     43 N          41.7795   12.5850   38.7025 N.am      2 SEC2        0.0000 
     44 N          41.3960   12.0300   37.3070 N.am      6 SEP2        0.0000 
     45 CA         47.7600   14.9030   42.6320 C.3       4 GLC5        0.0000 
     46 CA         48.3860   12.9210   42.6910 C.3      12 GLL5        0.0000 
     47 CA         47.1340   16.8850   42.5730 C.3       8 GLP5        0.0000 
     48 CA         46.9700   11.5885   43.6100 C.3       4 GLC5        0.0000 
     49 CA         45.5540   10.2560   44.5290 C.3       8 GLP5        0.0000 
     50 CA         49.4165   11.1905   40.6260 C.3       4 GLC5        0.0000 
     51 CA         48.1130   12.4730   41.2420 C.3      12 GLL5        0.0000 
     52 CA         50.7200    9.9080   40.0100 C.3       8 GLP5        0.0000 
     53 CA         47.1365   14.4340   41.4600 C.3       4 GLC5        0.0000 
     54 CA         46.1600   16.3950   41.6780 C.3       8 GLP5        0.0000 
     55 N          48.7145   15.5655   41.5430 N.am      2 SEC2        0.0000 
     56 N          48.9510   14.5290   40.3610 N.am     10 SEL2        0.0000 
     57 N          48.4780   16.6020   42.7250 N.am      6 SEP2        0.0000 
     58 NZ         51.7730   13.8330   43.5420 N.4       3 LYC4        0.0000 
     59 NZ         50.3060   13.9760   43.7380 N.4      11 LYL4        0.0000 
     60 NZ         53.4450   14.3520   44.4810 N.4       7 LYP4        0.0000 
     61 N          49.8235   14.4920   45.1165 N.am      2 SEC2        0.0000 
     62 N          50.3060   13.9760   43.7380 N.am     10 SEL2        0.0000 
     63 N          51.3790   14.5245   44.3675 N.am      2 SEC2        0.0000 
     64 N          52.4520   15.0730   44.9970 N.am      6 SEP2        0.0000 
     65 N          51.7730   13.8330   43.5420 N.am      2 SEC2        0.0000 
     66 N          53.2400   13.6900   43.3460 N.am      6 SEP2        0.0000 
     67 N          51.2860   11.0185   42.5175 N.am      2 SEC2        0.0000 
     68 N          50.7030   12.2670   42.3730 N.am     10 SEL2        0.0000 
     69 N          51.8690    9.7700   42.6620 N.am      6 SEP2        0.0000 
     70 N          51.9715   12.9785   42.8595 N.am      2 SEC2        0.0000 
     71 CA         44.1257   14.2052   47.0695 C.3       4 GLC5        0.0000 
     72 CA         44.9730   15.4720   45.9950 C.3      12 GLL5        0.0000 
     73 CA         43.0800   12.6420   47.4800 C.3       8 GLP5        0.0000 
     74 CA         44.3178   13.4642   46.0785 C.3       4 GLC5        0.0000 
     75 CA         45.7680   14.5540   45.2780 C.3      12 GLL5        0.0000 
     76 CA         45.5547   12.2713   44.6030 C.3       4 GLC5        0.0000 
     77 CA         43.3855   13.7617   45.7180 C.3       4 GLC5        0.0000 
     78 CA         44.0610   14.4240   43.6120 C.3      12 GLL5        0.0000 
@<TRIPOS>BOND
@<TRIPOS>SUBSTRUCTURE
     1 ALC1       14 GROUP        1 X    ALC  0     ROOT ALC X 1
     2 SEC2        1 GROUP        1 X    SEC  0     **** SEC X 2
     3 LYC4       32 GROUP        1 X    LYC  0     **** LYC X 4
     4 GLC5        4 GROUP        1 X    GLC  0     **** GLC X 6
     5 ALP1       16 GROUP        1 Y    ALP  0     ROOT ALP Y 8
     6 SEP2        3 GROUP        1 Y    SEP  0     **** SEP Y 9
     7 LYP4       34 GROUP        1 Y    LYP  0     **** LYP Y 11
     8 GLP5        6 GROUP        1 Y    GLP  0     **** GLP Y 13
     9 ALL1       15 GROUP        1 Z    ALL  0     ROOT ALL Z 15
    10 SEL2        2 GROUP        1 Z    SEL  0     **** SEL Z 16
    11 LYL4       33 GROUP        1 Z    LYL  0     **** LYL Z 18
    12 GLL5        5 GROUP        1 Z    GLL  0     **** GLL Z 20
@<TRIPOS>SET

