#    Name: 1map_KET_1_ligand
#    Modification time : Mon Apr  7 14:33:54 2014

@<TRIPOS>MOLECULE
1map_KET_1_ligand
   35    35     1     0     0
SMALL
NO_CHARGES


@<TRIPOS>ATOM
      1 N1         43.7820   15.8150   45.4620 N.ar      1 KET412      0.0000 
      2 C2         44.9730   15.4720   45.9950 C.ar      1 KET412      0.0000 
      3 C2A        45.3700   16.0650   47.3230 C.3       1 KET412      0.0000 
      4 C3         45.7680   14.5540   45.2780 C.ar      1 KET412      0.0000 
      5 O3         46.9430   14.2160   45.8560 O.3       1 KET412      0.0000 
      6 C4         45.3430   14.0190   44.0760 C.ar      1 KET412      0.0000 
      7 C4A        46.1770   13.0790   43.3690 C.2       1 KET412      0.0000 
      8 C5         44.0610   14.4240   43.6120 C.ar      1 KET412      0.0000 
      9 C6         43.3210   15.3390   44.3000 C.ar      1 KET412      0.0000 
     10 C5A        43.5470   13.9730   42.2130 C.3       1 KET412      0.0000 
     11 OP4        43.3010   12.5740   42.1310 O.3       1 KET412      0.0000 
     12 P          42.4780   11.9660   40.9090 P.3       1 KET412      0.0000 
     13 OP1        41.3350   11.1960   41.4430 O.co2     1 KET412      0.0000 
     14 OP2        43.4300   10.9970   40.1470 O.co2     1 KET412      0.0000 
     15 OP3        42.1630   13.1400   40.0980 O.co2     1 KET412      0.0000 
     16 N          47.4360   13.1720   43.5860 N.2       1 KET412      0.0000 
     17 CA         48.3860   12.9210   42.6910 C.3       1 KET412      0.0000 
     18 CB         48.1130   12.4730   41.2420 C.3       1 KET412      0.0000 
     19 CG         48.1530   13.6160   40.2680 C.2       1 KET412      0.0000 
     20 OD1        48.9510   14.5290   40.3610 O.co2     1 KET412      0.0000 
     21 OD2        47.2710   13.5120   39.3030 O.co2     1 KET412      0.0000 
     22 C          49.9010   13.1000   42.9970 C.2       1 KET412      0.0000 
     23 O          50.3060   13.9760   43.7380 O.co2     1 KET412      0.0000 
     24 OXT        50.7030   12.2670   42.3730 O.co2     1 KET412      0.0000 
     25 H          45.7183   12.4156   42.7553 H         1 KET412      0.0000 
     26 H          42.4107   15.6557   43.9163 H         1 KET412      0.0000 
     27 H          44.3051   14.3041   41.4750 H         1 KET412      0.0000 
     28 H          42.6345   14.5669   42.0041 H         1 KET412      0.0000 
     29 H          48.5059   11.5400   43.0707 H         1 KET412      0.0000 
     30 H          47.1284   11.9889   41.2096 H         1 KET412      0.0000 
     31 H          48.8629   11.7205   40.9658 H         1 KET412      0.0000 
     32 H          46.2701   15.7448   47.6185 H         1 KET412      0.0000 
     33 H          45.4116   17.0635   47.2863 H         1 KET412      0.0000 
     34 H          44.7217   15.8250   48.0456 H         1 KET412      0.0000 
     35 H          46.9944   13.2206   45.7746 H         1 KET412      0.0000 
@<TRIPOS>BOND
     1    2    1 ar   
     2    9    1 ar   
     3    3    2 1    
     4    4    2 ar   
     5   32    3 1    
     6   33    3 1    
     7   34    3 1    
     8    5    4 1    
     9    6    4 ar   
    10   35    5 1    
    11    7    6 1    
    12    8    6 ar   
    13   16    7 2    
    14   25    7 1    
    15    9    8 ar   
    16   10    8 1    
    17   26    9 1    
    18   11   10 1    
    19   27   10 1    
    20   28   10 1    
    21   12   11 1    
    22   13   12 ar   
    23   14   12 ar   
    24   15   12 ar   
    25   17   16 1    
    26   18   17 1    
    27   22   17 1    
    28   29   17 1    
    29   19   18 1    
    30   30   18 1    
    31   31   18 1    
    32   20   19 ar   
    33   21   19 ar   
    34   23   22 ar   
    35   24   22 ar   
@<TRIPOS>SUBSTRUCTURE
     1 KET412      1 GROUP   
@<TRIPOS>SET

