#    Name: 3q3c_NAD_1_INTS_M
#    Modification time : Tue Mar 25 08:51:52 2014

@<TRIPOS>MOLECULE
3q3c_NAD_1_INTS_M
   89     0     9     0     0
SMALL
NO_CHARGES


@<TRIPOS>ATOM
      1 N          -2.6070   30.0020   -4.5655 N.am      2 SEC2        0.0000 
      2 N          -1.3540   29.3210   -4.9020 N.am      8 SEL2        0.0000 
      3 N          -3.8600   30.6830   -4.2290 N.am      5 SEP2        0.0000 
      4 CA         -2.5755   25.3390   -8.5635 C.3       3 GLC5        0.0000 
      5 CA         -2.4060   26.0260   -6.5620 C.3       9 GLL5        0.0000 
      6 CA         -2.7450   24.6520  -10.5650 C.3       6 GLP5        0.0000 
      7 CA         -1.3480   24.9935   -7.8080 C.3       3 GLC5        0.0000 
      8 CA         -0.2900   23.9610   -9.0540 C.3       6 GLP5        0.0000 
      9 CA         -5.2460   24.5905   -6.6230 C.3       3 GLC5        0.0000 
     10 CA         -3.4340   25.1370   -5.8750 C.3       9 GLL5        0.0000 
     11 CA         -7.0580   24.0440   -7.3710 C.3       6 GLP5        0.0000 
     12 O          -5.1130   24.4360   -3.7705 O.2       1 ALC1        0.0000 
     13 O          -3.9850   25.1600   -3.5120 O.2       7 ALL1        0.0000 
     14 O          -6.2410   23.7120   -4.0290 O.2       4 ALP1        0.0000 
     15 O          -4.8455   23.1735   -3.6820 O.2       1 ALC1        0.0000 
     16 O          -3.4500   22.6350   -3.3350 O.2       7 ALL1        0.0000 
     17 O          -4.4980   22.7310   -2.7370 O.2       1 ALC1        0.0000 
     18 O          -5.5460   22.8270   -2.1390 O.2       4 ALP1        0.0000 
     19 CA         -5.3740   23.4460   -6.5385 C.3       3 GLC5        0.0000 
     20 CA         -3.6900   22.8480   -5.7060 C.3       9 GLL5        0.0000 
     21 CA         -4.1765   22.6415   -7.6415 C.3       3 GLC5        0.0000 
     22 CA         -4.6630   22.4350   -9.5770 C.3       6 GLP5        0.0000 
     23 CA         -3.9395   17.7965   -5.8785 C.3       3 GLC5        0.0000 
     24 CA         -3.7960   18.3100   -7.5580 C.3       9 GLL5        0.0000 
     25 CA         -4.0830   17.2830   -4.1990 C.3       6 GLP5        0.0000 
     26 CA         -5.0085   17.6700   -9.2660 C.3       3 GLC5        0.0000 
     27 CA         -6.2210   17.0300  -10.9740 C.3       6 GLP5        0.0000 
     28 CA         -6.9755   19.7035   -8.2645 C.3       3 GLC5        0.0000 
     29 CA         -5.9600   19.1460   -6.9560 C.3       9 GLL5        0.0000 
     30 CA         -7.9910   20.2610   -9.5730 C.3       6 GLP5        0.0000 
     31 CA         -6.8025   19.9620   -5.1690 C.3       3 GLC5        0.0000 
     32 CA         -7.6450   20.7780   -3.3820 C.3       6 GLP5        0.0000 
     33 CA         -5.0215   18.2145   -5.5775 C.3       3 GLC5        0.0000 
     34 CA         -5.3115   20.7905   -8.2665 C.3       3 GLC5        0.0000 
     35 N          -4.0420   30.9825   -7.0235 N.am      2 SEC2        0.0000 
     36 N          -3.1330   29.9320   -7.6060 N.am      8 SEL2        0.0000 
     37 N          -4.9510   32.0330   -6.4410 N.am      5 SEP2        0.0000 
     38 CA         -3.3800   29.3060  -11.4290 C.3       3 GLC5        0.0000 
     39 CA         -1.5830   29.1400  -10.3130 C.3       9 GLL5        0.0000 
     40 CA         -5.1770   29.4720  -12.5450 C.3       6 GLP5        0.0000 
     41 CA         -2.9085   30.3885  -11.9410 C.3       3 GLC5        0.0000 
     42 CA         -1.0750   29.4490  -11.7220 C.3       9 GLL5        0.0000 
     43 CA         -4.7420   31.3280  -12.1600 C.3       6 GLP5        0.0000 
     44 CA         -2.0480   28.4095  -13.4325 C.3       3 GLC5        0.0000 
     45 CA         -3.0210   27.3700  -15.1430 C.3       6 GLP5        0.0000 
     46 N          -0.1050   28.5465  -14.3970 N.am      2 SEC2        0.0000 
     47 N           0.7690   28.6190  -12.9690 N.am      8 SEL2        0.0000 
     48 N          -0.9790   28.4740  -15.8250 N.am      5 SEP2        0.0000 
     49 N           2.1495   29.0570  -13.3790 N.am      2 SEC2        0.0000 
     50 N           3.5300   29.4950  -13.7890 N.am      5 SEP2        0.0000 
     51 O          -0.2630   27.3740  -12.3900 O.2       1 ALC1        0.0000 
     52 O           0.7690   28.6190  -12.9690 O.2       7 ALL1        0.0000 
     53 O          -1.2950   26.1290  -11.8110 O.2       4 ALP1        0.0000 
     54 O           1.4840   27.6550  -12.4280 O.2       1 ALC1        0.0000 
     55 O           2.1990   26.6910  -11.8870 O.2       4 ALP1        0.0000 
     56 CA          2.4455   30.8910  -10.4840 C.3       3 GLC5        0.0000 
     57 CA          0.8140   30.9070  -11.9600 C.3       9 GLL5        0.0000 
     58 CA          4.0770   30.8750   -9.0080 C.3       6 GLP5        0.0000 
     59 CA         -2.5895   31.4415  -12.3475 C.3       3 GLC5        0.0000 
     60 CA         -0.4370   31.5550  -12.5350 C.3       9 GLL5        0.0000 
     61 CA         -2.5530   35.3130  -10.0395 C.3       3 GLC5        0.0000 
     62 CA         -1.0450   35.5160  -11.1110 C.3       9 GLL5        0.0000 
     63 CA         -4.0610   35.1100   -8.9680 C.3       6 GLP5        0.0000 
     64 CA         -2.0020   37.2895  -10.3175 C.3       3 GLC5        0.0000 
     65 CA         -2.9590   39.0630   -9.5240 C.3       6 GLP5        0.0000 
     66 CA         -2.9620   32.6065  -12.5180 C.3       3 GLC5        0.0000 
     67 CA         -1.1820   33.8850  -12.8760 C.3       9 GLL5        0.0000 
     68 CA         -3.8548   26.8026   -4.7436 C.3       3 GLC5        0.0000 
     69 CA         -4.7430   28.4370   -4.1490 C.3       6 GLP5        0.0000 
     70 CA         -2.7642   19.2505   -5.5743 C.3       3 GLC5        0.0000 
     71 CA         -4.0540   20.5090   -6.6200 C.3       9 GLL5        0.0000 
     72 CA         -1.8820   18.4930   -4.2720 C.3       6 GLP5        0.0000 
     73 CA         -4.1547   21.2215   -8.2267 C.3       3 GLC5        0.0000 
     74 CA         -3.2390   19.5070   -7.1330 C.3       9 GLL5        0.0000 
     75 CA          0.2005   27.5969  -10.7804 C.3       3 GLC5        0.0000 
     76 CA          0.8460   25.8340  -10.1300 C.3       6 GLP5        0.0000 
     77 CA          2.6898   29.6675  -12.4395 C.3       3 GLC5        0.0000 
     78 CA          4.7530   29.1690  -12.9770 C.3       6 GLP5        0.0000 
     79 CA          0.4439   30.5252  -14.2233 C.3       3 GLC5        0.0000 
     80 CA          0.4390   29.4250  -11.8440 C.3       9 GLL5        0.0000 
     81 CA          0.7930   30.1900  -16.2280 C.3       6 GLP5        0.0000 
     82 CA         -2.0488   33.5503   -9.6747 C.3       3 GLC5        0.0000 
     83 CA         -0.3170   33.2500  -10.7520 C.3       9 GLL5        0.0000 
     84 CA         -3.6860   33.2040   -8.8430 C.3       6 GLP5        0.0000 
     85 CA         -3.0198   34.8850  -11.7027 C.3       3 GLC5        0.0000 
     86 CA         -1.3850   35.1910  -12.4230 C.3       9 GLL5        0.0000 
     87 CA         -4.7560   35.2320  -10.7560 C.3       6 GLP5        0.0000 
     88 CA         -3.2702   34.9130  -13.3693 C.3       3 GLC5        0.0000 
     89 CA         -5.2570   35.2880  -14.0890 C.3       6 GLP5        0.0000 
@<TRIPOS>BOND
@<TRIPOS>SUBSTRUCTURE
     1 ALC1       12 GROUP        1 X    ALC  0     ROOT ALC X 1
     2 SEC2        1 GROUP        1 X    SEC  0     **** SEC X 2
     3 GLC5        4 GROUP        1 X    GLC  0     **** GLC X 6
     4 ALP1       14 GROUP        1 Y    ALP  0     ROOT ALP Y 8
     5 SEP2        3 GROUP        1 Y    SEP  0     **** SEP Y 9
     6 GLP5        6 GROUP        1 Y    GLP  0     **** GLP Y 13
     7 ALL1       13 GROUP        1 Z    ALL  0     ROOT ALL Z 15
     8 SEL2        2 GROUP        1 Z    SEL  0     **** SEL Z 16
     9 GLL5        5 GROUP        1 Z    GLL  0     **** GLL Z 20
@<TRIPOS>SET

