#    Name: 3q3c_NAD_1_ligand
#    Modification time : Tue Mar 25 08:51:52 2014

@<TRIPOS>MOLECULE
3q3c_NAD_1_ligand
   70    74     1     0     0
SMALL
NO_CHARGES


@<TRIPOS>ATOM
      1 PA         -1.1110   28.2330   -5.8780 P.3       1 NAD299      0.0000 
      2 O1A         0.1190   27.4930   -5.4970 O.co2     1 NAD299      0.0000 
      3 O2A        -1.3540   29.3210   -4.9020 O.co2     1 NAD299      0.0000 
      4 O5B        -2.4060   27.2760   -5.9130 O.3       1 NAD299      0.0000 
      5 C5B        -2.4060   26.0260   -6.5620 C.3       1 NAD299      0.0000 
      6 C4B        -3.4340   25.1370   -5.8750 C.3       1 NAD299      0.0000 
      7 O4B        -3.5600   23.9350   -6.6050 O.3       1 NAD299      0.0000 
      8 C3B        -3.0130   24.7550   -4.4580 C.3       1 NAD299      0.0000 
      9 O3B        -3.9850   25.1600   -3.5120 O.3       1 NAD299      0.0000 
     10 C2B        -2.8920   23.2410   -4.4790 C.3       1 NAD299      0.0000 
     11 O2B        -3.4500   22.6350   -3.3350 O.3       1 NAD299      0.0000 
     12 C1B        -3.6900   22.8480   -5.7060 C.3       1 NAD299      0.0000 
     13 N9A        -3.2370   21.5650   -6.2870 N.pl3     1 NAD299      0.0000 
     14 C8A        -1.9470   21.2040   -6.5910 C.2       1 NAD299      0.0000 
     15 N7A        -1.9620   19.9540   -7.1070 N.2       1 NAD299      0.0000 
     16 C5A        -3.2390   19.5070   -7.1330 C.ar      1 NAD299      0.0000 
     17 C6A        -3.7960   18.3100   -7.5580 C.ar      1 NAD299      0.0000 
     18 N6A        -3.1050   17.5530   -8.4080 N.pl3     1 NAD299      0.0000 
     19 N1A        -5.1620   18.1380   -7.4620 N.ar      1 NAD299      0.0000 
     20 C2A        -5.9600   19.1460   -6.9560 C.ar      1 NAD299      0.0000 
     21 N3A        -5.3960   20.3320   -6.5320 N.ar      1 NAD299      0.0000 
     22 C4A        -4.0540   20.5090   -6.6200 C.ar      1 NAD299      0.0000 
     23 O3         -0.9420   28.7570   -7.3900 O.3       1 NAD299      0.0000 
     24 PN         -1.6610   30.1180   -7.8470 P.3       1 NAD299      0.0000 
     25 O1N        -0.9200   31.2420   -7.2130 O.co2     1 NAD299      0.0000 
     26 O2N        -3.1330   29.9320   -7.6060 O.co2     1 NAD299      0.0000 
     27 O5D        -1.3300   30.2150   -9.4320 O.3       1 NAD299      0.0000 
     28 C5D        -1.5830   29.1400  -10.3130 C.3       1 NAD299      0.0000 
     29 C4D        -1.0750   29.4490  -11.7220 C.3       1 NAD299      0.0000 
     30 O4D        -1.5060   30.7390  -12.1050 O.3       1 NAD299      0.0000 
     31 C3D         0.4390   29.4250  -11.8440 C.3       1 NAD299      0.0000 
     32 O3D         0.7690   28.6190  -12.9690 O.3       1 NAD299      0.0000 
     33 C2D         0.8140   30.9070  -11.9600 C.3       1 NAD299      0.0000 
     34 O2D         1.9630   31.2080  -12.7390 O.3       1 NAD299      0.0000 
     35 C1D        -0.4370   31.5550  -12.5350 C.3       1 NAD299      0.0000 
     36 N1N        -0.6470   32.9330  -12.0440 N.pl3     1 NAD299      0.0000 
     37 C2N        -0.3170   33.2500  -10.7520 C.ar      1 NAD299      0.0000 
     38 C3N        -0.5060   34.5430  -10.2610 C.ar      1 NAD299      0.0000 
     39 C7N        -0.3830   34.8220   -8.7790 C.2       1 NAD299      0.0000 
     40 O7N        -0.1950   36.1500   -8.3500 O.2       1 NAD299      0.0000 
     41 N7N        -0.4590   33.8340   -7.8840 N.am      1 NAD299      0.0000 
     42 C4N        -1.0450   35.5160  -11.1110 C.ar      1 NAD299      0.0000 
     43 C5N        -1.3850   35.1910  -12.4230 C.ar      1 NAD299      0.0000 
     44 C6N        -1.1820   33.8850  -12.8760 C.ar      1 NAD299      0.0000 
     45 H          -1.4375   25.5246   -6.4985 H         1 NAD299      0.0000 
     46 H          -2.6852   26.1044   -7.6152 H         1 NAD299      0.0000 
     47 H          -4.3700   25.6593   -5.8219 H         1 NAD299      0.0000 
     48 H          -2.0465   25.1645   -4.2768 H         1 NAD299      0.0000 
     49 H          -1.8760   22.9863   -4.6558 H         1 NAD299      0.0000 
     50 H          -4.7322   22.7578   -5.3850 H         1 NAD299      0.0000 
     51 H          -1.1723   21.7558   -6.4552 H         1 NAD299      0.0000 
     52 H          -2.2307   17.9260   -8.7187 H         1 NAD299      0.0000 
     53 H          -3.5226   16.6797   -8.6590 H         1 NAD299      0.0000 
     54 H          -6.9824   19.0107   -6.8951 H         1 NAD299      0.0000 
     55 H          -2.6611   28.9168  -10.3940 H         1 NAD299      0.0000 
     56 H          -1.0894   28.2095   -9.9824 H         1 NAD299      0.0000 
     57 H          -1.4788   28.7018  -12.4011 H         1 NAD299      0.0000 
     58 H           0.8211   29.0485  -10.9210 H         1 NAD299      0.0000 
     59 H           0.8977   31.2872  -10.9326 H         1 NAD299      0.0000 
     60 H          -0.3574   31.5425  -13.6048 H         1 NAD299      0.0000 
     61 H           0.0790   32.5277  -10.1222 H         1 NAD299      0.0000 
     62 H          -0.3575   34.0999   -6.9254 H         1 NAD299      0.0000 
     63 H          -0.6106   32.9169   -8.2528 H         1 NAD299      0.0000 
     64 H          -1.1895   36.4725  -10.7638 H         1 NAD299      0.0000 
     65 H          -1.7777   35.8975  -13.0467 H         1 NAD299      0.0000 
     66 H          -1.4404   33.6442  -13.8479 H         1 NAD299      0.0000 
     67 H          -4.8644   25.0050   -3.9622 H         1 NAD299      0.0000 
     68 H          -4.0784   23.3172   -2.9614 H         1 NAD299      0.0000 
     69 H           0.8459   27.6897  -12.6078 H         1 NAD299      0.0000 
     70 H           1.8137   32.1394  -13.0710 H         1 NAD299      0.0000 
@<TRIPOS>BOND
     1    2    1 ar   
     2    3    1 ar   
     3    4    1 1    
     4   23    1 1    
     5    5    4 1    
     6    6    5 1    
     7   45    5 1    
     8   46    5 1    
     9    7    6 1    
    10    8    6 1    
    11   47    6 1    
    12   12    7 1    
    13    9    8 1    
    14   10    8 1    
    15   48    8 1    
    16   67    9 1    
    17   11   10 1    
    18   12   10 1    
    19   49   10 1    
    20   68   11 1    
    21   13   12 1    
    22   50   12 1    
    23   14   13 1    
    24   22   13 1    
    25   15   14 2    
    26   51   14 1    
    27   16   15 1    
    28   17   16 ar   
    29   22   16 ar   
    30   18   17 1    
    31   19   17 ar   
    32   52   18 1    
    33   53   18 1    
    34   20   19 ar   
    35   21   20 ar   
    36   54   20 1    
    37   22   21 ar   
    38   24   23 1    
    39   25   24 ar   
    40   26   24 ar   
    41   27   24 1    
    42   28   27 1    
    43   29   28 1    
    44   55   28 1    
    45   56   28 1    
    46   30   29 1    
    47   31   29 1    
    48   57   29 1    
    49   35   30 1    
    50   32   31 1    
    51   33   31 1    
    52   58   31 1    
    53   69   32 1    
    54   34   33 1    
    55   35   33 1    
    56   59   33 1    
    57   70   34 1    
    58   36   35 1    
    59   60   35 1    
    60   37   36 ar   
    61   44   36 ar   
    62   38   37 ar   
    63   61   37 1    
    64   39   38 1    
    65   42   38 ar   
    66   40   39 2    
    67   41   39 am   
    68   62   41 1    
    69   63   41 1    
    70   43   42 ar   
    71   64   42 1    
    72   44   43 ar   
    73   65   43 1    
    74   66   44 1    
@<TRIPOS>SUBSTRUCTURE
     1 NAD299      1 GROUP   
@<TRIPOS>SET

