#    Name: 3zdu_38R_1_INTS_M
#    Modification time : Tue Mar 25 02:49:16 2014

@<TRIPOS>MOLECULE
3zdu_38R_1_INTS_M
   83     0     9     0     0
SMALL
NO_CHARGES


@<TRIPOS>ATOM
      1 CA         28.3275   20.0270   60.8870 C.3       3 GLC5        0.0000 
      2 CA         27.8070   21.0070   59.0230 C.3       9 GLL5        0.0000 
      3 CA         28.8480   19.0470   62.7510 C.3       6 GLP5        0.0000 
      4 CA         26.8490   20.2585   56.0200 C.3       3 GLC5        0.0000 
      5 CA         28.7790   20.2590   56.9440 C.3       9 GLL5        0.0000 
      6 CA         24.9190   20.2580   55.0960 C.3       6 GLP5        0.0000 
      7 N          28.6025   18.6660   55.7655 N.am      2 SEC2        0.0000 
      8 N          28.0660   19.1200   57.0440 N.am      8 SEL2        0.0000 
      9 N          29.1390   18.2120   54.4870 N.am      5 SEP2        0.0000 
     10 CA         25.0255   21.1065   65.6955 C.3       3 GLC5        0.0000 
     11 CA         24.1760   19.8670   64.3520 C.3       9 GLL5        0.0000 
     12 CA         25.8750   22.3460   67.0390 C.3       6 GLP5        0.0000 
     13 CA         22.8140   21.0770   65.1400 C.3       3 GLC5        0.0000 
     14 CA         21.4520   22.2870   65.9280 C.3       6 GLP5        0.0000 
     15 CA         25.2090   18.7160   65.5635 C.3       3 GLC5        0.0000 
     16 CA         26.2420   17.5650   66.7750 C.3       6 GLP5        0.0000 
     17 CA         23.0160   22.1475   64.2610 C.3       3 GLC5        0.0000 
     18 CA         23.9630   20.8110   63.2330 C.3       9 GLL5        0.0000 
     19 CA         22.0690   23.4840   65.2890 C.3       6 GLP5        0.0000 
     20 CA         27.2955   20.0935   62.0730 C.3       3 GLC5        0.0000 
     21 CA         25.7430   21.1400   61.3950 C.3       9 GLL5        0.0000 
     22 CA         26.4550   24.2175   61.4975 C.3       3 GLC5        0.0000 
     23 CA         26.7840   22.0300   61.1430 C.3       9 GLL5        0.0000 
     24 CA         26.1260   26.4050   61.8520 C.3       6 GLP5        0.0000 
     25 CA         28.2210   23.5605   61.5545 C.3       3 GLC5        0.0000 
     26 CA         29.6580   25.0910   61.9660 C.3       6 GLP5        0.0000 
     27 CA         27.4875   21.3280   62.8460 C.3       3 GLC5        0.0000 
     28 CA         28.1910   20.6260   64.5490 C.3       6 GLP5        0.0000 
     29 O          28.6670   22.9160   59.9920 O.2       1 ALC1        0.0000 
     30 O          27.7090   22.0350   60.0260 O.2       7 ALL1        0.0000 
     31 O          29.6250   23.7970   59.9580 O.2       4 ALP1        0.0000 
     32 CA         21.7350   18.2450   61.3100 C.3       3 GLC5        0.0000 
     33 CA         22.3890   18.9690   63.0370 C.3       9 GLL5        0.0000 
     34 CA         21.0810   17.5210   59.5830 C.3       6 GLP5        0.0000 
     35 CA         20.6495   17.8370   63.4710 C.3       3 GLC5        0.0000 
     36 CA         18.9100   16.7050   63.9050 C.3       6 GLP5        0.0000 
     37 CA         25.6895   19.8125   57.2085 C.3       3 GLC5        0.0000 
     38 CA         27.2530   18.8990   58.0940 C.3       9 GLL5        0.0000 
     39 CA         24.1260   20.7260   56.3230 C.3       6 GLP5        0.0000 
     40 CA         28.7435   18.2110   58.7600 C.3       3 GLC5        0.0000 
     41 CA         30.2340   17.5230   59.4260 C.3       6 GLP5        0.0000 
     42 O          25.7780   17.5105   56.6595 O.2       1 ALC1        0.0000 
     43 O          26.5240   17.6680   58.0520 O.2       7 ALL1        0.0000 
     44 O          25.0320   17.3530   55.2670 O.2       4 ALP1        0.0000 
     45 CA         26.2390   16.5585   63.3530 C.3       3 GLC5        0.0000 
     46 CA         25.7210   16.3440   61.4500 C.3       9 GLL5        0.0000 
     47 CA         26.7570   16.7730   65.2560 C.3       6 GLP5        0.0000 
     48 CA         23.7675   16.0700   57.1665 C.3       3 GLC5        0.0000 
     49 CA         24.8650   16.1430   58.8070 C.3       9 GLL5        0.0000 
     50 CA         22.6700   15.9970   55.5260 C.3       6 GLP5        0.0000 
     51 CA         25.0990   17.7035   64.6500 C.3       3 GLC5        0.0000 
     52 CA         23.4410   18.6340   64.0440 C.3       9 GLL5        0.0000 
     53 CA         20.9865   15.2205   63.5925 C.3       3 GLC5        0.0000 
     54 CA         23.0650   15.2470   63.1070 C.3       9 GLL5        0.0000 
     55 CA         18.9080   15.1940   64.0780 C.3       6 GLP5        0.0000 
     56 CA         22.2260   20.1065   60.7315 C.3       3 GLC5        0.0000 
     57 CA         22.6950   20.3760   62.5860 C.3       9 GLL5        0.0000 
     58 CA         21.7570   19.8370   58.8770 C.3       6 GLP5        0.0000 
     59 N          21.0875   15.1715   64.5140 N.am      2 SEC2        0.0000 
     60 N          22.3390   15.6410   63.8830 N.am      8 SEL2        0.0000 
     61 N          19.8360   14.7020   65.1450 N.am      5 SEP2        0.0000 
     62 CA         30.4960   21.0592   57.8755 C.3       3 GLC5        0.0000 
     63 CA         28.6710   21.2220   57.9420 C.3       9 GLL5        0.0000 
     64 CA         32.2670   21.3780   58.3080 C.3       6 GLP5        0.0000 
     65 CA         29.3715   19.1049   58.5696 C.3       3 GLC5        0.0000 
     66 CA         26.1302   20.4825   64.1707 C.3       3 GLC5        0.0000 
     67 CA         23.0625   21.9423   61.8482 C.3       3 GLC5        0.0000 
     68 CA         22.7960   23.2910   60.7870 C.3       6 GLP5        0.0000 
     69 CA         24.5297   22.4380   61.0280 C.3       3 GLC5        0.0000 
     70 CA         28.1918   17.2750   59.6155 C.3       3 GLC5        0.0000 
     71 CA         26.3710   17.0730   60.4620 C.3       9 GLL5        0.0000 
     72 CA         27.0278   15.2230   59.5510 C.3       3 GLC5        0.0000 
     73 CA         27.9060   13.4190   59.2970 C.3       6 GLP5        0.0000 
     74 CA         27.4470   17.8778   61.8535 C.3       3 GLC5        0.0000 
     75 CA         26.5467   14.6705   60.2862 C.3       3 GLC5        0.0000 
     76 CA         26.2240   14.5920   59.2903 C.3       3 GLC5        0.0000 
     77 CA         24.2190   15.3870   59.7600 C.3       9 GLL5        0.0000 
     78 CA         22.8395   16.5768   59.8876 C.3       3 GLC5        0.0000 
     79 CA         23.7925   14.2455   64.4085 C.3       3 GLC5        0.0000 
     80 CA         23.9770   14.6630   62.1210 C.3       9 GLL5        0.0000 
     81 CA         24.0640   13.5360   66.2030 C.3       6 GLP5        0.0000 
     82 CA         21.6435   20.5709   64.1611 C.3       3 GLC5        0.0000 
     83 CA         20.4820   21.5530   65.2590 C.3       6 GLP5        0.0000 
@<TRIPOS>BOND
@<TRIPOS>SUBSTRUCTURE
     1 ALC1       29 GROUP        1 X    ALC  0     ROOT ALC X 1
     2 SEC2        7 GROUP        1 X    SEC  0     **** SEC X 2
     3 GLC5        1 GROUP        1 X    GLC  0     **** GLC X 6
     4 ALP1       31 GROUP        1 Y    ALP  0     ROOT ALP Y 8
     5 SEP2        9 GROUP        1 Y    SEP  0     **** SEP Y 9
     6 GLP5        3 GROUP        1 Y    GLP  0     **** GLP Y 13
     7 ALL1       30 GROUP        1 Z    ALL  0     ROOT ALL Z 15
     8 SEL2        8 GROUP        1 Z    SEL  0     **** SEL Z 16
     9 GLL5        2 GROUP        1 Z    GLL  0     **** GLL Z 20
@<TRIPOS>SET

