#    Name: 3zdu_38R_1_ligand
#    Modification time : Tue Mar 25 02:49:17 2014

@<TRIPOS>MOLECULE
3zdu_38R_1_ligand
   48    51     1     0     0
SMALL
NO_CHARGES


@<TRIPOS>ATOM
      1 C4         27.8070   21.0070   59.0230 C.ar      1 38R350      0.0000 
      2 C5         28.6710   21.2220   57.9420 C.ar      1 38R350      0.0000 
      3 C6         28.7790   20.2590   56.9440 C.ar      1 38R350      0.0000 
      4 N1         28.0660   19.1200   57.0440 N.ar      1 38R350      0.0000 
      5 N3         27.0900   19.8440   59.0640 N.ar      1 38R350      0.0000 
      6 C1U        24.1760   19.8670   64.3520 C.3       1 38R350      0.0000 
      7 C1T        23.9630   20.8110   63.2330 C.3       1 38R350      0.0000 
      8 C1R        25.1060   21.5210   62.5700 C.2       1 38R350      0.0000 
      9 C1S        25.7430   21.1400   61.3950 C.2       1 38R350      0.0000 
     10 N1Q        25.7660   22.5710   63.0380 N.2       1 38R350      0.0000 
     11 N1P        26.7840   22.9080   62.1750 N.pl3     1 38R350      0.0000 
     12 C1H        26.7840   22.0300   61.1430 C.2       1 38R350      0.0000 
     13 N1G        27.7090   22.0350   60.0260 N.pl3     1 38R350      0.0000 
     14 C1Y        22.3890   18.9690   63.0370 C.3       1 38R350      0.0000 
     15 C2         27.2530   18.8990   58.0940 C.ar      1 38R350      0.0000 
     16 N1I        26.5240   17.6680   58.0520 N.pl3     1 38R350      0.0000 
     17 C1J        25.9280   16.9810   59.1480 C.ar      1 38R350      0.0000 
     18 C1K        26.3710   17.0730   60.4620 C.ar      1 38R350      0.0000 
     19 C1L        25.7210   16.3440   61.4500 C.ar      1 38R350      0.0000 
     20 C1O        24.8650   16.1430   58.8070 C.ar      1 38R350      0.0000 
     21 C1N        24.2190   15.3870   59.7600 C.ar      1 38R350      0.0000 
     22 C1M        24.6540   15.5000   61.1010 C.ar      1 38R350      0.0000 
     23 C1V        23.9770   14.6630   62.1210 C.3       1 38R350      0.0000 
     24 C01        23.4410   18.6340   64.0440 C.3       1 38R350      0.0000 
     25 C1Z        23.0650   15.2470   63.1070 C.1       1 38R350      0.0000 
     26 C03        22.6950   20.3760   62.5860 C.3       1 38R350      0.0000 
     27 N1A        22.3390   15.6410   63.8830 N.1       1 38R350      0.0000 
     28 H          29.2192   22.0859   57.8903 H         1 38R350      0.0000 
     29 H          29.4045   20.4339   56.1428 H         1 38R350      0.0000 
     30 H          23.8070   20.3040   65.2778 H         1 38R350      0.0000 
     31 H          25.2381   19.6555   64.4584 H         1 38R350      0.0000 
     32 H          23.4679   21.7655   63.9378 H         1 38R350      0.0000 
     33 H          25.5081   20.3952   60.8519 H         1 38R350      0.0000 
     34 H          27.3875   23.6455   62.2954 H         1 38R350      0.0000 
     35 H          28.3573   22.8559   59.9461 H         1 38R350      0.0000 
     36 H          21.4173   18.9388   63.4909 H         1 38R350      0.0000 
     37 H          22.4497   18.3004   62.2000 H         1 38R350      0.0000 
     38 H          26.4163   17.2158   57.0893 H         1 38R350      0.0000 
     39 H          27.1670   17.6710   60.6989 H         1 38R350      0.0000 
     40 H          26.0127   16.4168   62.4283 H         1 38R350      0.0000 
     41 H          24.5621   16.0944   57.8155 H         1 38R350      0.0000 
     42 H          23.4556   14.7654   59.5257 H         1 38R350      0.0000 
     43 H          24.7857   14.0694   62.6802 H         1 38R350      0.0000 
     44 H          23.4262   13.8181   61.5717 H         1 38R350      0.0000 
     45 H          22.9704   18.2381   64.9399 H         1 38R350      0.0000 
     46 H          24.1112   17.8851   63.6307 H         1 38R350      0.0000 
     47 H          22.8017   20.3918   61.5063 H         1 38R350      0.0000 
     48 H          21.8817   21.0319   62.8789 H         1 38R350      0.0000 
@<TRIPOS>BOND
     1    2    1 ar   
     2    5    1 ar   
     3   13    1 1    
     4    3    2 ar   
     5   28    2 1    
     6    4    3 ar   
     7   29    3 1    
     8   15    4 ar   
     9   15    5 ar   
    10    7    6 1    
    11   24    6 1    
    12   30    6 1    
    13   31    6 1    
    14    8    7 1    
    15   26    7 1    
    16   32    7 1    
    17    9    8 1    
    18   10    8 2    
    19   12    9 2    
    20   33    9 1    
    21   11   10 1    
    22   12   11 1    
    23   34   11 1    
    24   13   12 1    
    25   35   13 1    
    26   24   14 1    
    27   26   14 1    
    28   36   14 1    
    29   37   14 1    
    30   16   15 1    
    31   17   16 1    
    32   38   16 1    
    33   18   17 ar   
    34   20   17 ar   
    35   19   18 ar   
    36   39   18 1    
    37   22   19 ar   
    38   40   19 1    
    39   21   20 ar   
    40   41   20 1    
    41   22   21 ar   
    42   42   21 1    
    43   23   22 1    
    44   25   23 1    
    45   43   23 1    
    46   44   23 1    
    47   45   24 1    
    48   46   24 1    
    49   27   25 3    
    50   47   26 1    
    51   48   26 1    
@<TRIPOS>SUBSTRUCTURE
     1 38R350      1 GROUP   
@<TRIPOS>SET

