#    Name: 3fbu_COA_1_INTS_M
#    Modification time : Tue Mar 25 03:31:52 2014

@<TRIPOS>MOLECULE
3fbu_COA_1_INTS_M
  109     0    12     0     0
SMALL
NO_CHARGES


@<TRIPOS>ATOM
      1 CA         29.4095   53.0410   28.4535 C.3       4 GLC5        0.0000 
      2 CA         29.6980   53.8970   29.8970 C.3      12 GLL5        0.0000 
      3 CA         29.1210   52.1850   27.0100 C.3       8 GLP5        0.0000 
      4 CA         29.8195   54.2590   31.6285 C.3       4 GLC5        0.0000 
      5 CA         29.9410   54.6210   33.3600 C.3       8 GLP5        0.0000 
      6 CA         28.4915   56.3260   27.2530 C.3       4 GLC5        0.0000 
      7 CA         29.0420   56.1020   29.4070 C.3      12 GLL5        0.0000 
      8 CA         27.9410   56.5500   25.0990 C.3       8 GLP5        0.0000 
      9 CA         29.4915   55.3615   31.3835 C.3       4 GLC5        0.0000 
     10 CA         30.2235   56.9840   27.0665 C.3       4 GLC5        0.0000 
     11 CA         30.3500   56.4550   29.1200 C.3      12 GLL5        0.0000 
     12 CA         30.0970   57.5130   25.0130 C.3       8 GLP5        0.0000 
     13 CA         30.7440   54.1635   27.6620 C.3       4 GLC5        0.0000 
     14 CA         31.3500   55.4900   29.2120 C.3      12 GLL5        0.0000 
     15 CA         30.1380   52.8370   26.1120 C.3       8 GLP5        0.0000 
     16 CA         30.6455   55.0555   31.2860 C.3       4 GLC5        0.0000 
     17 O          33.9710   54.7310   28.7510 O.2       1 ALC1        0.0000 
     18 O          32.6190   55.7790   28.9160 O.2       9 ALL1        0.0000 
     19 O          35.3230   53.6830   28.5860 O.2       5 ALP1        0.0000 
     20 CA         27.3750   56.8750   27.2120 C.3       4 GLC5        0.0000 
     21 CA         26.8090   57.2000   29.3250 C.3      12 GLL5        0.0000 
     22 CA         25.6015   55.9595   28.0145 C.3       4 GLC5        0.0000 
     23 CA         24.3940   54.7190   26.7040 C.3       8 GLP5        0.0000 
     24 NZ         21.5995   55.3260   30.8655 N.4       3 LYC4        0.0000 
     25 NZ         22.0770   56.4290   31.5720 N.4      11 LYL4        0.0000 
     26 NZ         21.6970   53.4200   29.2720 N.4       7 LYP4        0.0000 
     27 NZ         20.8780   57.5430   30.6875 N.4       3 LYC4        0.0000 
     28 NZ         19.6790   58.6570   29.8030 N.4       7 LYP4        0.0000 
     29 N          21.5995   55.3260   30.8655 N.am      2 SEC2        0.0000 
     30 N          22.0770   56.4290   31.5720 N.am     10 SEL2        0.0000 
     31 N          21.1220   54.2230   30.1590 N.am      6 SEP2        0.0000 
     32 NZ         21.0145   58.7590   30.5655 N.4       3 LYC4        0.0000 
     33 NZ         22.3500   58.8610   31.3280 N.4      11 LYL4        0.0000 
     34 N          21.0145   58.7590   30.5655 N.am      2 SEC2        0.0000 
     35 N          22.3500   58.8610   31.3280 N.am     10 SEL2        0.0000 
     36 N          19.6790   58.6570   29.8030 N.am      6 SEP2        0.0000 
     37 CA         24.7275   56.4535   27.4355 C.3       4 GLC5        0.0000 
     38 CA         25.0610   58.1880   28.1670 C.3      12 GLL5        0.0000 
     39 CA         26.9880   58.6695   26.2920 C.3       4 GLC5        0.0000 
     40 CA         25.2270   59.4940   27.4000 C.3      12 GLL5        0.0000 
     41 CA         28.7490   57.8450   25.1840 C.3       8 GLP5        0.0000 
     42 CA         24.2900   59.3475   25.5540 C.3       4 GLC5        0.0000 
     43 CA         23.3530   59.2010   23.7080 C.3       8 GLP5        0.0000 
     44 N          23.6150   63.6135   28.8925 N.am      2 SEC2        0.0000 
     45 N          24.3230   62.4730   28.3510 N.am     10 SEL2        0.0000 
     46 N          22.9070   64.7540   29.4340 N.am      6 SEP2        0.0000 
     47 N          21.5725   62.4305   25.5500 N.am      2 SEC2        0.0000 
     48 N          22.4810   62.0430   26.7050 N.am     10 SEL2        0.0000 
     49 N          20.6640   62.8180   24.3950 N.am      6 SEP2        0.0000 
     50 N          21.5500   61.2295   26.2960 N.am      2 SEC2        0.0000 
     51 N          20.6190   60.4160   25.8870 N.am      6 SEP2        0.0000 
     52 N          23.7650   64.7090   25.0350 N.am      2 SEC2        0.0000 
     53 N          25.1320   64.4070   25.6800 N.am     10 SEL2        0.0000 
     54 N          22.3980   65.0110   24.3900 N.am      6 SEP2        0.0000 
     55 N          27.2770   63.5735   27.8230 N.am      2 SEC2        0.0000 
     56 N          27.0570   62.9670   26.6110 N.am     10 SEL2        0.0000 
     57 N          27.4970   64.1800   29.0350 N.am      6 SEP2        0.0000 
     58 CA         27.6845   59.6400   24.4330 C.3       4 GLC5        0.0000 
     59 CA         26.6200   61.4350   23.6820 C.3      12 GLL5        0.0000 
     60 CA         24.9865   60.3180   23.6950 C.3       4 GLC5        0.0000 
     61 CA         26.0785   64.1090   21.0345 C.3       4 GLC5        0.0000 
     62 CA         26.6800   62.4370   21.4540 C.3      12 GLL5        0.0000 
     63 CA         25.4770   65.7810   20.6150 C.3       8 GLP5        0.0000 
     64 CA         28.1370   58.9495   23.5505 C.3       4 GLC5        0.0000 
     65 CA         27.5250   60.0540   21.9170 C.3      12 GLL5        0.0000 
     66 CA         27.0115   58.2135   21.7480 C.3       4 GLC5        0.0000 
     67 CA         26.4980   56.3730   21.5790 C.3       8 GLP5        0.0000 
     68 CA         29.6665   63.5205   23.2295 C.3       4 GLC5        0.0000 
     69 CA         28.8660   62.0620   22.7210 C.3      12 GLL5        0.0000 
     70 CA         30.4670   64.9790   23.7380 C.3       8 GLP5        0.0000 
     71 N          29.0315   64.6335   20.1565 N.am      2 SEC2        0.0000 
     72 N          29.4880   63.4100   20.7250 N.am     10 SEL2        0.0000 
     73 N          28.5750   65.8570   19.5880 N.am      6 SEP2        0.0000 
     74 CA         31.5810   62.9720   21.7665 C.3       4 GLC5        0.0000 
     75 CA         31.5210   61.6270   20.0160 C.3      12 GLL5        0.0000 
     76 CA         31.6410   64.3170   23.5170 C.3       8 GLP5        0.0000 
     77 CA         31.1445   61.1565   16.4710 C.3       4 GLC5        0.0000 
     78 CA         30.8840   61.5760   18.6380 C.3      12 GLL5        0.0000 
     79 CA         31.4050   60.7370   14.3040 C.3       8 GLP5        0.0000 
     80 CA         30.6065   63.4100   17.6365 C.3       4 GLC5        0.0000 
     81 CA         30.3290   65.2440   16.6350 C.3       8 GLP5        0.0000 
     82 N          30.7795   57.7530   18.7535 N.am      2 SEC2        0.0000 
     83 N          30.9550   59.1410   18.4610 N.am     10 SEL2        0.0000 
     84 N          30.6040   56.3650   19.0460 N.am      6 SEP2        0.0000 
     85 O          27.9760   61.1595   17.5785 O.2       1 ALC1        0.0000 
     86 O          29.0520   60.2070   17.9050 O.2       9 ALL1        0.0000 
     87 O          26.9000   62.1120   17.2520 O.2       5 ALP1        0.0000 
     88 CA         26.6790   59.6395   18.3910 C.3       4 GLC5        0.0000 
     89 CA         28.3010   58.9620   17.6990 C.3      12 GLL5        0.0000 
     90 CA         25.0570   60.3170   19.0830 C.3       8 GLP5        0.0000 
     91 CA         27.7820   57.5785   18.9845 C.3       4 GLC5        0.0000 
     92 CA         27.2630   56.1950   20.2700 C.3       8 GLP5        0.0000 
     93 CA         29.9950   59.5040   15.3440 C.3       4 GLC5        0.0000 
     94 CA         28.5850   58.2710   16.3840 C.3      12 GLL5        0.0000 
     95 CA         27.4215   55.1140   16.7185 C.3       4 GLC5        0.0000 
     96 CA         27.4630   56.8590   16.1460 C.3      12 GLL5        0.0000 
     97 CA         27.3800   53.3690   17.2910 C.3       8 GLP5        0.0000 
     98 CA         27.3630   56.5270   18.2080 C.3       4 GLC5        0.0000 
     99 CA         27.9623   58.0205   31.2250 C.3       4 GLC5        0.0000 
    100 CA         29.3990   58.3020   32.6620 C.3       8 GLP5        0.0000 
    101 CA         22.9273   57.8925   28.4173 C.3       4 GLC5        0.0000 
    102 CA         24.8480   58.3980   29.6740 C.3      12 GLL5        0.0000 
    103 CA         20.9000   57.4920   27.9140 C.3       8 GLP5        0.0000 
    104 CA         25.1337   62.6105   22.5825 C.3       4 GLC5        0.0000 
    105 CA         23.4090   63.2680   22.9170 C.3       8 GLP5        0.0000 
    106 CA         26.1765   60.6645   20.5027 C.3       4 GLC5        0.0000 
    107 CA         27.4540   61.5030   22.4020 C.3      12 GLL5        0.0000 
    108 CA         32.2933   63.3257   18.8645 C.3       4 GLC5        0.0000 
    109 CA         33.3840   65.0500   18.4020 C.3       8 GLP5        0.0000 
@<TRIPOS>BOND
@<TRIPOS>SUBSTRUCTURE
     1 ALC1       17 GROUP        1 X    ALC  0     ROOT ALC X 1
     2 SEC2       29 GROUP        1 X    SEC  0     **** SEC X 2
     3 LYC4       24 GROUP        1 X    LYC  0     **** LYC X 4
     4 GLC5        1 GROUP        1 X    GLC  0     **** GLC X 6
     5 ALP1       19 GROUP        1 Y    ALP  0     ROOT ALP Y 8
     6 SEP2       31 GROUP        1 Y    SEP  0     **** SEP Y 9
     7 LYP4       26 GROUP        1 Y    LYP  0     **** LYP Y 11
     8 GLP5        3 GROUP        1 Y    GLP  0     **** GLP Y 13
     9 ALL1       18 GROUP        1 Z    ALL  0     ROOT ALL Z 15
    10 SEL2       30 GROUP        1 Z    SEL  0     **** SEL Z 16
    11 LYL4       25 GROUP        1 Z    LYL  0     **** LYL Z 18
    12 GLL5        2 GROUP        1 Z    GLL  0     **** GLL Z 20
@<TRIPOS>SET

