#    Name: 3fbu_COA_1_ligand
#    Modification time : Tue Mar 25 03:31:52 2014

@<TRIPOS>MOLECULE
3fbu_COA_1_ligand
   79    81     1     0     0
SMALL
NO_CHARGES


@<TRIPOS>ATOM
      1 N1A        31.0000   54.2270   29.6210 N.ar      1 COA169      0.0000 
      2 C2A        29.6980   53.8970   29.8970 C.ar      1 COA169      0.0000 
      3 N3A        28.7110   54.8410   29.7950 N.ar      1 COA169      0.0000 
      4 C4A        29.0420   56.1020   29.4070 C.ar      1 COA169      0.0000 
      5 C5A        30.3500   56.4550   29.1200 C.ar      1 COA169      0.0000 
      6 C6A        31.3500   55.4900   29.2120 C.ar      1 COA169      0.0000 
      7 N6A        32.6190   55.7790   28.9160 N.pl3     1 COA169      0.0000 
      8 N7A        30.3590   57.7490   28.7730 N.2       1 COA169      0.0000 
      9 C8A        29.1030   58.2340   28.8420 C.2       1 COA169      0.0000 
     10 N9A        28.2750   57.2170   29.2430 N.pl3     1 COA169      0.0000 
     11 C1B        26.8090   57.2000   29.3250 C.3       1 COA169      0.0000 
     12 C2B        26.2420   58.2780   30.2510 C.3       1 COA169      0.0000 
     13 O2B        26.2630   57.8780   31.6160 O.3       1 COA169      0.0000 
     14 C3B        24.8480   58.3980   29.6740 C.3       1 COA169      0.0000 
     15 O3B        24.0080   57.3720   30.1790 O.3       1 COA169      0.0000 
     16 P3B        23.0720   57.5410   31.4900 P.3       1 COA169      0.0000 
     17 O7A        22.0770   56.4290   31.5720 O.co2     1 COA169      0.0000 
     18 O8A        23.9830   57.5740   32.6890 O.co2     1 COA169      0.0000 
     19 O9A        22.3500   58.8610   31.3280 O.co2     1 COA169      0.0000 
     20 C4B        25.0610   58.1880   28.1670 C.3       1 COA169      0.0000 
     21 O4B        26.2420   57.4430   28.0440 O.3       1 COA169      0.0000 
     22 C5B        25.2270   59.4940   27.4000 C.3       1 COA169      0.0000 
     23 O5B        23.9700   60.1430   27.4010 O.3       1 COA169      0.0000 
     24 P1A        23.8610   61.7140   27.1190 P.3       1 COA169      0.0000 
     25 O1A        24.3230   62.4730   28.3510 O.co2     1 COA169      0.0000 
     26 O2A        22.4810   62.0430   26.7050 O.co2     1 COA169      0.0000 
     27 O3A        24.8590   61.8860   25.8720 O.3       1 COA169      0.0000 
     28 P2A        25.8900   63.1030   25.6270 P.3       1 COA169      0.0000 
     29 O4A        25.1320   64.4070   25.6800 O.co2     1 COA169      0.0000 
     30 O5A        27.0570   62.9670   26.6110 O.co2     1 COA169      0.0000 
     31 O6A        26.3840   62.7620   24.1260 O.3       1 COA169      0.0000 
     32 CBP        27.4540   61.5030   22.4020 C.3       1 COA169      0.0000 
     33 CCP        26.6200   61.4350   23.6820 C.3       1 COA169      0.0000 
     34 CDP        26.6800   62.4370   21.4540 C.3       1 COA169      0.0000 
     35 CEP        27.5250   60.0540   21.9170 C.3       1 COA169      0.0000 
     36 CAP        28.8660   62.0620   22.7210 C.3       1 COA169      0.0000 
     37 OAP        29.6060   61.1670   23.5370 O.3       1 COA169      0.0000 
     38 C9P        29.6970   62.2910   21.4950 C.2       1 COA169      0.0000 
     39 O9P        29.4880   63.4100   20.7250 O.2       1 COA169      0.0000 
     40 N8P        30.5750   61.3640   21.0990 N.am      1 COA169      0.0000 
     41 C7P        31.5210   61.6270   20.0160 C.3       1 COA169      0.0000 
     42 C6P        30.8840   61.5760   18.6380 C.3       1 COA169      0.0000 
     43 C5P        30.2950   60.1980   18.3400 C.2       1 COA169      0.0000 
     44 O5P        30.9550   59.1410   18.4610 O.2       1 COA169      0.0000 
     45 N4P        29.0520   60.2070   17.9050 N.am      1 COA169      0.0000 
     46 C3P        28.3010   58.9620   17.6990 C.3       1 COA169      0.0000 
     47 C2P        28.5850   58.2710   16.3840 C.3       1 COA169      0.0000 
     48 S1P        27.4630   56.8590   16.1460 S.3       1 COA169      0.0000 
     49 H          29.4607   52.9296   30.1838 H         1 COA169      0.0000 
     50 H          32.7983   56.7156   28.6150 H         1 COA169      0.0000 
     51 H          33.2764   55.0329   29.0219 H         1 COA169      0.0000 
     52 H          28.8234   59.1312   28.6475 H         1 COA169      0.0000 
     53 H          26.4653   56.2408   29.7017 H         1 COA169      0.0000 
     54 H          26.7639   59.1784   30.0395 H         1 COA169      0.0000 
     55 H          24.4888   59.3712   29.8259 H         1 COA169      0.0000 
     56 H          24.2183   57.6523   27.7797 H         1 COA169      0.0000 
     57 H          25.5654   59.2504   26.3950 H         1 COA169      0.0000 
     58 H          25.9950   60.0801   27.9007 H         1 COA169      0.0000 
     59 H          25.6944   60.9081   23.4477 H         1 COA169      0.0000 
     60 H          27.1796   60.8495   24.4123 H         1 COA169      0.0000 
     61 H          28.7406   63.0163   23.2286 H         1 COA169      0.0000 
     62 H          30.6290   60.4249   21.5335 H         1 COA169      0.0000 
     63 H          32.3496   60.8924   20.0402 H         1 COA169      0.0000 
     64 H          31.9869   62.6237   20.1438 H         1 COA169      0.0000 
     65 H          31.6364   61.8133   17.8813 H         1 COA169      0.0000 
     66 H          30.0891   62.3241   18.5776 H         1 COA169      0.0000 
     67 H          28.5330   61.0815   17.6838 H         1 COA169      0.0000 
     68 H          27.2083   59.1628   17.7582 H         1 COA169      0.0000 
     69 H          28.5180   58.2463   18.5227 H         1 COA169      0.0000 
     70 H          29.5424   57.8051   16.3347 H         1 COA169      0.0000 
     71 H          28.3776   58.8671   15.5250 H         1 COA169      0.0000 
     72 H          26.5654   63.3505   21.8444 H         1 COA169      0.0000 
     73 H          27.1495   62.5493   20.5782 H         1 COA169      0.0000 
     74 H          25.7650   62.0871   21.2533 H         1 COA169      0.0000 
     75 H          28.0505   59.9711   21.0703 H         1 COA169      0.0000 
     76 H          27.9600   59.4575   22.5915 H         1 COA169      0.0000 
     77 H          26.6162   59.6780   21.7360 H         1 COA169      0.0000 
     78 H          25.4364   58.2752   32.0147 H         1 COA169      0.0000 
     79 H          30.5532   61.2600   23.2300 H         1 COA169      0.0000 
@<TRIPOS>BOND
     1    2    1 ar   
     2    6    1 ar   
     3    3    2 ar   
     4   49    2 1    
     5    4    3 ar   
     6    5    4 ar   
     7   10    4 1    
     8    6    5 ar   
     9    8    5 1    
    10    7    6 1    
    11   50    7 1    
    12   51    7 1    
    13    9    8 2    
    14   10    9 1    
    15   52    9 1    
    16   11   10 1    
    17   12   11 1    
    18   21   11 1    
    19   53   11 1    
    20   13   12 1    
    21   14   12 1    
    22   54   12 1    
    23   78   13 1    
    24   15   14 1    
    25   20   14 1    
    26   55   14 1    
    27   16   15 1    
    28   17   16 ar   
    29   18   16 ar   
    30   19   16 ar   
    31   21   20 1    
    32   22   20 1    
    33   56   20 1    
    34   23   22 1    
    35   57   22 1    
    36   58   22 1    
    37   24   23 1    
    38   25   24 ar   
    39   26   24 ar   
    40   27   24 1    
    41   28   27 1    
    42   29   28 ar   
    43   30   28 ar   
    44   31   28 1    
    45   33   31 1    
    46   33   32 1    
    47   34   32 1    
    48   35   32 1    
    49   36   32 1    
    50   59   33 1    
    51   60   33 1    
    52   72   34 1    
    53   73   34 1    
    54   74   34 1    
    55   75   35 1    
    56   76   35 1    
    57   77   35 1    
    58   37   36 1    
    59   38   36 1    
    60   61   36 1    
    61   79   37 1    
    62   39   38 2    
    63   40   38 am   
    64   41   40 1    
    65   62   40 1    
    66   42   41 1    
    67   63   41 1    
    68   64   41 1    
    69   43   42 1    
    70   65   42 1    
    71   66   42 1    
    72   44   43 2    
    73   45   43 am   
    74   46   45 1    
    75   67   45 1    
    76   47   46 1    
    77   68   46 1    
    78   69   46 1    
    79   48   47 1    
    80   70   47 1    
    81   71   47 1    
@<TRIPOS>SUBSTRUCTURE
     1 COA169      1 GROUP   
@<TRIPOS>SET

