#    Name: 2o2f_LI0_1_INTS_M
#    Modification time : Tue Mar 25 21:53:49 2014

@<TRIPOS>MOLECULE
2o2f_LI0_1_INTS_M
   79     0     3     0     0
SMALL
NO_CHARGES


@<TRIPOS>ATOM
      1 CA          3.7685   -0.2865    7.5880 C.3       1 GLC5        0.0000 
      2 CA          2.2770    0.6050    6.3670 C.3       3 GLL5        0.0000 
      3 CA          5.2600   -1.1780    8.8090 C.3       2 GLP5        0.0000 
      4 CA          0.0585    1.4050    3.6765 C.3       1 GLC5        0.0000 
      5 CA          0.0350    0.9490    5.4450 C.3       3 GLL5        0.0000 
      6 CA          0.0820    1.8610    1.9080 C.3       2 GLP5        0.0000 
      7 CA          2.9315    2.0365    5.3445 C.3       1 GLC5        0.0000 
      8 CA          1.9670    1.7590    7.3280 C.3       3 GLL5        0.0000 
      9 CA          3.8960    2.3140    3.3610 C.3       2 GLP5        0.0000 
     10 CA          6.8680    7.8865   -1.7680 C.3       1 GLC5        0.0000 
     11 CA          7.7660    8.1340    0.2770 C.3       3 GLL5        0.0000 
     12 CA          5.9700    7.6390   -3.8130 C.3       2 GLP5        0.0000 
     13 CA          8.2820    7.1715    0.1520 C.3       1 GLC5        0.0000 
     14 CA          6.4950    7.6490    1.4150 C.3       3 GLL5        0.0000 
     15 CA         10.0690    6.6940   -1.1110 C.3       2 GLP5        0.0000 
     16 CA          6.9270    5.6575    1.1470 C.3       1 GLC5        0.0000 
     17 CA          7.3590    3.6660    0.8790 C.3       2 GLP5        0.0000 
     18 CA          8.6970    7.2980    3.5485 C.3       1 GLC5        0.0000 
     19 CA          6.7490    7.6880    2.8030 C.3       3 GLL5        0.0000 
     20 CA         10.6450    6.9080    4.2940 C.3       2 GLP5        0.0000 
     21 CA          6.0480   13.2770    0.0760 C.3       1 GLC5        0.0000 
     22 CA          7.3130   12.3260    0.2330 C.3       3 GLL5        0.0000 
     23 CA          4.7830   14.2280   -0.0810 C.3       2 GLP5        0.0000 
     24 CA          6.7245    9.1720   -2.7340 C.3       1 GLC5        0.0000 
     25 CA          7.4790   10.7050   -1.6550 C.3       3 GLL5        0.0000 
     26 CA          0.2350    7.2480    3.9510 C.3       1 GLC5        0.0000 
     27 CA          0.8330    6.2670    5.5410 C.3       3 GLL5        0.0000 
     28 CA         -0.3630    8.2290    2.3610 C.3       2 GLP5        0.0000 
     29 CA          3.2230   -1.5480    8.2035 C.3       1 GLC5        0.0000 
     30 CA          1.1860   -1.9180    7.5980 C.3       3 GLL5        0.0000 
     31 CA          2.7925   -2.7885    6.3690 C.3       1 GLC5        0.0000 
     32 CA          4.3990   -3.6590    5.1400 C.3       2 GLP5        0.0000 
     33 CA          0.2980   -3.3875    7.6475 C.3       1 GLC5        0.0000 
     34 CA         -0.5900   -4.8570    7.6970 C.3       2 GLP5        0.0000 
     35 CA          2.3570   -0.0385    3.8895 C.3       1 GLC5        0.0000 
     36 CA          1.2680   -1.1800    4.9050 C.3       3 GLL5        0.0000 
     37 CA          3.4460    1.1030    2.8740 C.3       2 GLP5        0.0000 
     38 CA          2.1720   -2.1205    3.5395 C.3       1 GLC5        0.0000 
     39 CA          3.0760   -3.0610    2.1740 C.3       2 GLP5        0.0000 
     40 CA         -2.2360   -0.6685    0.6070 C.3       1 GLC5        0.0000 
     41 CA         -1.5150   -1.8440    2.3530 C.3       3 GLL5        0.0000 
     42 CA         -2.9570    0.5070   -1.1390 C.3       2 GLP5        0.0000 
     43 CA         -0.7995   -3.5835    6.3815 C.3       1 GLC5        0.0000 
     44 CA         -1.0090   -2.3100    5.0660 C.3       3 GLL5        0.0000 
     45 CA         -2.7740   -3.6175    6.1580 C.3       1 GLC5        0.0000 
     46 CA         -2.2130   -2.7380    4.4960 C.3       3 GLL5        0.0000 
     47 CA         -3.3350   -4.4970    7.8200 C.3       2 GLP5        0.0000 
     48 CA          3.9350    1.8485    7.3228 C.3       1 GLC5        0.0000 
     49 CA          5.7480    2.5150    7.7980 C.3       2 GLP5        0.0000 
     50 CA          2.1400    0.8498    4.3419 C.3       1 GLC5        0.0000 
     51 CA          0.9890   -0.1170    5.9820 C.3       3 GLL5        0.0000 
     52 CA         -1.5955    1.2345    5.0857 C.3       1 GLC5        0.0000 
     53 CA         -3.1510    0.9500    4.2200 C.3       2 GLP5        0.0000 
     54 CA         -1.2503    5.8108    5.7350 C.3       1 GLC5        0.0000 
     55 CA          0.5020    4.9320    5.8230 C.3       3 GLL5        0.0000 
     56 CA         -3.1680    6.0220    5.7880 C.3       2 GLP5        0.0000 
     57 CA          1.3401    9.2369    2.0589 C.3       1 GLC5        0.0000 
     58 CA          2.9850   10.4840    3.2570 C.3       3 GLL5        0.0000 
     59 CA          6.1933   12.4138   -1.1640 C.3       1 GLC5        0.0000 
     60 CA          7.0640   10.8520   -0.1790 C.3       3 GLL5        0.0000 
     61 CA          5.1150   14.0490   -1.4110 C.3       2 GLP5        0.0000 
     62 CA          8.9552    7.8535   -0.3190 C.3       1 GLC5        0.0000 
     63 CA          7.9170    9.8920    0.6690 C.3       3 GLL5        0.0000 
     64 CA          5.3172    5.3287    0.8955 C.3       1 GLC5        0.0000 
     65 CA          5.2430    7.2310    0.9110 C.3       3 GLL5        0.0000 
     66 CA          5.8980    3.6190    0.4310 C.3       2 GLP5        0.0000 
     67 CA          3.6718    6.1082    0.3185 C.3       1 GLC5        0.0000 
     68 CA          2.6070    5.1780   -0.7230 C.3       2 GLP5        0.0000 
     69 CA          0.3438    0.2233    3.2500 C.3       1 GLC5        0.0000 
     70 CA         -2.5710   -0.6120    3.4830 C.3       1 GLC5        0.0000 
     71 CA         -2.4670   -2.5040    3.1390 C.3       3 GLL5        0.0000 
     72 CA         -1.6350   -3.1180    1.0565 C.3       1 GLC5        0.0000 
     73 CA         -1.2790   -4.0620   -0.6330 C.3       2 GLP5        0.0000 
     74 CA         -0.4155    0.1155    2.2725 C.3       1 GLC5        0.0000 
     75 CA         -1.6675   -0.2913    3.9100 C.3       1 GLC5        0.0000 
     76 CA         -0.3110   -1.4160    2.9210 C.3       3 GLL5        0.0000 
     77 CA         -2.3810   -0.7870    4.5005 C.3       1 GLC5        0.0000 
     78 CA         -2.8850   -4.0225    3.2745 C.3       1 GLC5        0.0000 
     79 CA         -3.6680   -5.5890    2.9280 C.3       2 GLP5        0.0000 
@<TRIPOS>BOND
@<TRIPOS>SUBSTRUCTURE
     1 GLC5        1 GROUP        1 X    GLC  0     ROOT GLC X 6
     2 GLP5        3 GROUP        1 Y    GLP  0     ROOT GLP Y 13
     3 GLL5        2 GROUP        1 Z    GLL  0     ROOT GLL Z 20
@<TRIPOS>SET

