#    Name: 2o2f_LI0_1_ligand
#    Modification time : Tue Mar 25 21:53:49 2014

@<TRIPOS>MOLECULE
2o2f_LI0_1_ligand
   88    92     1     0     0
SMALL
NO_CHARGES


@<TRIPOS>ATOM
      1 C1          2.2770    0.6050    6.3670 C.3       1 LI01000     0.0000 
      2 C2          0.9890   -0.1170    5.9820 C.3       1 LI01000     0.0000 
      3 C3          0.0350    0.9490    5.4450 C.3       1 LI01000     0.0000 
      4 C4         -0.1150    2.0890    6.4580 C.3       1 LI01000     0.0000 
      5 N1          1.1240    2.7230    6.7230 N.3       1 LI01000     0.0000 
      6 C5          1.9670    1.7590    7.3280 C.3       1 LI01000     0.0000 
      7 C6          1.4610    4.0950    6.4320 C.ar      1 LI01000     0.0000 
      8 C7          0.5020    4.9320    5.8230 C.ar      1 LI01000     0.0000 
      9 C8          3.0760    5.9080    6.4830 C.ar      1 LI01000     0.0000 
     10 C9          2.7480    4.5740    6.7650 C.ar      1 LI01000     0.0000 
     11 C10         2.5130    8.1410    5.5960 C.2       1 LI01000     0.0000 
     12 O1          3.6240    8.5700    5.8780 O.2       1 LI01000     0.0000 
     13 N2          1.5720    8.9190    5.0090 N.am      1 LI01000     0.0000 
     14 S14         1.9160   10.4660    4.6700 S.o2      1 LI01000     0.0000 
     15 C11         2.9850   10.4840    3.2570 C.ar      1 LI01000     0.0000 
     16 C12         2.4860   10.1490    1.9940 C.ar      1 LI01000     0.0000 
     17 C13         3.3510   10.1730    0.8880 C.ar      1 LI01000     0.0000 
     18 C14         4.7240   10.5330    1.0370 C.ar      1 LI01000     0.0000 
     19 C15         5.1980   10.8650    2.3310 C.ar      1 LI01000     0.0000 
     20 C16         4.3290   10.8390    3.4270 C.ar      1 LI01000     0.0000 
     21 O2          2.6230   11.0090    5.7920 O.2       1 LI01000     0.0000 
     22 O3          0.6660   11.0530    4.3000 O.2       1 LI01000     0.0000 
     23 N3          2.7950    9.8120   -0.4390 N.pl3     1 LI01000     0.0000 
     24 O24         1.6070    9.5240   -0.4430 O.2       1 LI01000     0.0000 
     25 O4          3.5210    9.8220   -1.4170 O.2       1 LI01000     0.0000 
     26 N4          5.6130   10.5460   -0.1140 N.pl3     1 LI01000     0.0000 
     27 C17         7.0640   10.8520   -0.1790 C.3       1 LI01000     0.0000 
     28 C18         7.9170    9.8920    0.6690 C.3       1 LI01000     0.0000 
     29 S1          7.7660    8.1340    0.2770 S.3       1 LI01000     0.0000 
     30 C19         5.2430    7.2310    0.9110 C.ar      1 LI01000     0.0000 
     31 C20         6.4950    7.6490    1.4150 C.ar      1 LI01000     0.0000 
     32 C21         6.7490    7.6880    2.8030 C.ar      1 LI01000     0.0000 
     33 C22         5.7350    7.3030    3.7010 C.ar      1 LI01000     0.0000 
     34 C23         4.4880    6.8850    3.1920 C.ar      1 LI01000     0.0000 
     35 C24         4.2300    6.8460    1.8090 C.ar      1 LI01000     0.0000 
     36 C25         7.3130   12.3260    0.2330 C.3       1 LI01000     0.0000 
     37 C26         7.4790   10.7050   -1.6550 C.3       1 LI01000     0.0000 
     38 C27         0.8330    6.2670    5.5410 C.ar      1 LI01000     0.0000 
     39 C28         2.1210    6.7470    5.8730 C.ar      1 LI01000     0.0000 
     40 O5          0.3760   -0.8010    7.2230 O.3       1 LI01000     0.0000 
     41 C29         1.1860   -1.9180    7.5980 C.3       1 LI01000     0.0000 
     42 C30         1.2680   -1.1800    4.9050 C.3       1 LI01000     0.0000 
     43 C31        -2.4670   -2.5040    3.1390 C.ar      1 LI01000     0.0000 
     44 C32        -1.5150   -1.8440    2.3530 C.ar      1 LI01000     0.0000 
     45 C33        -0.3110   -1.4160    2.9210 C.ar      1 LI01000     0.0000 
     46 C34        -0.0570   -1.6490    4.2790 C.ar      1 LI01000     0.0000 
     47 C35        -1.0090   -2.3100    5.0660 C.ar      1 LI01000     0.0000 
     48 C36        -2.2130   -2.7380    4.4960 C.ar      1 LI01000     0.0000 
     49 H           2.7499    1.0018    5.4745 H         1 LI01000     0.0000 
     50 H           2.9511   -0.0926    6.8535 H         1 LI01000     0.0000 
     51 H          -0.9384    0.5027    5.2627 H         1 LI01000     0.0000 
     52 H           0.4274    1.3478    4.5139 H         1 LI01000     0.0000 
     53 H          -0.5610    1.6578    7.3732 H         1 LI01000     0.0000 
     54 H          -0.8599    2.7958    6.0482 H         1 LI01000     0.0000 
     55 H           2.9327    2.1934    7.6405 H         1 LI01000     0.0000 
     56 H           1.5090    1.3191    8.2311 H         1 LI01000     0.0000 
     57 H          -0.4204    4.5683    5.5915 H         1 LI01000     0.0000 
     58 H           4.0000    6.2728    6.7167 H         1 LI01000     0.0000 
     59 H           3.4250    3.9548    7.2039 H         1 LI01000     0.0000 
     60 H           0.6466    8.6547    4.7429 H         1 LI01000     0.0000 
     61 H           1.5078    9.8905    1.8753 H         1 LI01000     0.0000 
     62 H           6.1809   11.1236    2.4554 H         1 LI01000     0.0000 
     63 H           4.6784   11.0818    4.3628 H         1 LI01000     0.0000 
     64 H           5.1651   10.3002   -1.0574 H         1 LI01000     0.0000 
     65 H           7.6594    9.9198    1.7250 H         1 LI01000     0.0000 
     66 H           8.9846   10.0662    0.5578 H         1 LI01000     0.0000 
     67 H           5.0776    7.2094   -0.0928 H         1 LI01000     0.0000 
     68 H           7.6559    7.9914    3.1495 H         1 LI01000     0.0000 
     69 H           5.8988    7.3257    4.7037 H         1 LI01000     0.0000 
     70 H           3.7452    6.6002    3.8526 H         1 LI01000     0.0000 
     71 H           3.3230    6.5434    1.4629 H         1 LI01000     0.0000 
     72 H           0.1557    6.8868    5.1020 H         1 LI01000     0.0000 
     73 H           1.7676   -2.0257    5.3590 H         1 LI01000     0.0000 
     74 H           1.8952   -0.7514    4.1343 H         1 LI01000     0.0000 
     75 H          -3.3496   -2.8159    2.7216 H         1 LI01000     0.0000 
     76 H          -1.7017   -1.6743    1.3582 H         1 LI01000     0.0000 
     77 H           0.3855   -0.9324    2.3457 H         1 LI01000     0.0000 
     78 H          -0.8227   -2.4798    6.0598 H         1 LI01000     0.0000 
     79 H          -2.9093   -3.2228    5.0713 H         1 LI01000     0.0000 
     80 H           8.2846   12.5609    0.2032 H         1 LI01000     0.0000 
     81 H           6.8381   12.9658   -0.3712 H         1 LI01000     0.0000 
     82 H           6.9953   12.5104    1.1631 H         1 LI01000     0.0000 
     83 H           8.4515   10.8961   -1.7882 H         1 LI01000     0.0000 
     84 H           7.3124    9.7803   -1.9973 H         1 LI01000     0.0000 
     85 H           6.9733   11.3323   -2.2472 H         1 LI01000     0.0000 
     86 H           2.1204   -1.6407    7.8216 H         1 LI01000     0.0000 
     87 H           0.8202   -2.3893    8.4005 H         1 LI01000     0.0000 
     88 H           1.2486   -2.5944    6.8641 H         1 LI01000     0.0000 
@<TRIPOS>BOND
     1    2    1 1    
     2    6    1 1    
     3   49    1 1    
     4   50    1 1    
     5    3    2 1    
     6   40    2 1    
     7   42    2 1    
     8    4    3 1    
     9   51    3 1    
    10   52    3 1    
    11    5    4 1    
    12   53    4 1    
    13   54    4 1    
    14    6    5 1    
    15    7    5 1    
    16   55    6 1    
    17   56    6 1    
    18    8    7 ar   
    19   10    7 ar   
    20   38    8 ar   
    21   57    8 1    
    22   10    9 ar   
    23   39    9 ar   
    24   58    9 1    
    25   59   10 1    
    26   12   11 2    
    27   13   11 am   
    28   39   11 1    
    29   14   13 1    
    30   60   13 1    
    31   15   14 1    
    32   21   14 2    
    33   22   14 2    
    34   16   15 ar   
    35   20   15 ar   
    36   17   16 ar   
    37   61   16 1    
    38   18   17 ar   
    39   23   17 1    
    40   19   18 ar   
    41   26   18 1    
    42   20   19 ar   
    43   62   19 1    
    44   63   20 1    
    45   24   23 2    
    46   25   23 2    
    47   27   26 1    
    48   64   26 1    
    49   28   27 1    
    50   36   27 1    
    51   37   27 1    
    52   29   28 1    
    53   65   28 1    
    54   66   28 1    
    55   31   29 1    
    56   31   30 ar   
    57   35   30 ar   
    58   67   30 1    
    59   32   31 ar   
    60   33   32 ar   
    61   68   32 1    
    62   34   33 ar   
    63   69   33 1    
    64   35   34 ar   
    65   70   34 1    
    66   71   35 1    
    67   80   36 1    
    68   81   36 1    
    69   82   36 1    
    70   83   37 1    
    71   84   37 1    
    72   85   37 1    
    73   39   38 ar   
    74   72   38 1    
    75   41   40 1    
    76   86   41 1    
    77   87   41 1    
    78   88   41 1    
    79   46   42 1    
    80   73   42 1    
    81   74   42 1    
    82   44   43 ar   
    83   48   43 ar   
    84   75   43 1    
    85   45   44 ar   
    86   76   44 1    
    87   46   45 ar   
    88   77   45 1    
    89   47   46 ar   
    90   48   47 ar   
    91   78   47 1    
    92   79   48 1    
@<TRIPOS>SUBSTRUCTURE
     1 LI01000     1 GROUP   
@<TRIPOS>SET

