#    Name: 1uum_AFI_2_INTS_M
#    Modification time : Tue Mar 25 07:06:40 2014

@<TRIPOS>MOLECULE
1uum_AFI_2_INTS_M
   85     0     6     0     0
SMALL
NO_CHARGES


@<TRIPOS>ATOM
      1 N          79.5620   43.3155  134.7320 N.am      1 SEC2        0.0000 
      2 N          79.0410   44.5180  134.2140 N.am      5 SEL2        0.0000 
      3 N          80.0830   42.1130  135.2500 N.am      3 SEP2        0.0000 
      4 N          78.4975   43.3545  135.1580 N.am      1 SEC2        0.0000 
      5 N          77.9540   42.1910  136.1020 N.am      3 SEP2        0.0000 
      6 CA         79.2305   47.9600  135.9070 C.3       2 GLC5        0.0000 
      7 CA         77.6340   47.0750  136.5080 C.3       6 GLL5        0.0000 
      8 CA         80.8270   48.8450  135.3060 C.3       4 GLP5        0.0000 
      9 CA         78.2675   44.6335  137.8375 C.3       2 GLC5        0.0000 
     10 CA         78.2070   45.8330  136.0220 C.3       6 GLL5        0.0000 
     11 CA         78.3280   43.4340  139.6530 C.3       4 GLP5        0.0000 
     12 CA         77.8380   44.0230  133.5515 C.3       2 GLC5        0.0000 
     13 CA         78.5360   45.6090  134.6190 C.3       6 GLL5        0.0000 
     14 CA         77.1400   42.4370  132.4840 C.3       4 GLP5        0.0000 
     15 CA         78.5230   44.5375  131.9610 C.3       2 GLC5        0.0000 
     16 CA         78.5910   46.5320  132.2320 C.3       6 GLL5        0.0000 
     17 CA         78.4550   42.5430  131.6900 C.3       4 GLP5        0.0000 
     18 CA         75.8730   47.7575  133.8520 C.3       2 GLC5        0.0000 
     19 CA         77.6860   47.9950  134.0640 C.3       6 GLL5        0.0000 
     20 CA         74.0600   47.5200  133.6400 C.3       4 GLP5        0.0000 
     21 CA         79.2565   48.4200  134.6850 C.3       2 GLC5        0.0000 
     22 N          79.3380   44.8300  138.1250 N.am      1 SEC2        0.0000 
     23 N          78.4780   44.7660  136.9390 N.am      5 SEL2        0.0000 
     24 N          80.1980   44.8940  139.3110 N.am      3 SEP2        0.0000 
     25 N          78.2160   43.4785  136.5205 N.am      1 SEC2        0.0000 
     26 CA         75.6445   49.3815  138.7390 C.3       2 GLC5        0.0000 
     27 CA         77.5070   49.0540  139.9470 C.3       6 GLL5        0.0000 
     28 CA         73.7820   49.7090  137.5310 C.3       4 GLP5        0.0000 
     29 CA         76.5980   45.1645  140.4420 C.3       2 GLC5        0.0000 
     30 CA         75.9130   47.1590  140.1580 C.3       6 GLL5        0.0000 
     31 CA         77.2830   43.1700  140.7260 C.3       4 GLP5        0.0000 
     32 CA         75.8810   45.1355  137.4435 C.3       2 GLC5        0.0000 
     33 CA         76.5030   46.4230  138.8970 C.3       6 GLL5        0.0000 
     34 CA         75.2590   43.8480  135.9900 C.3       4 GLP5        0.0000 
     35 CA         75.6320   48.5135  137.7615 C.3       2 GLC5        0.0000 
     36 CA         77.4820   47.3180  137.9920 C.3       6 GLL5        0.0000 
     37 CA         75.4325   48.9865  148.0050 C.3       2 GLC5        0.0000 
     38 CA         75.9750   49.8070  146.6490 C.3       6 GLL5        0.0000 
     39 CA         74.8900   48.1660  149.3610 C.3       4 GLP5        0.0000 
     40 CA         77.4065   45.8540  144.3165 C.3       2 GLC5        0.0000 
     41 CA         77.4820   47.8390  143.4470 C.3       6 GLL5        0.0000 
     42 CA         77.3310   43.8690  145.1860 C.3       4 GLP5        0.0000 
     43 CA         79.3300   49.0905  143.1850 C.3       2 GLC5        0.0000 
     44 CA         81.1780   50.3420  142.9230 C.3       4 GLP5        0.0000 
     45 CA         77.4770   46.8025  145.9000 C.3       2 GLC5        0.0000 
     46 CA         77.2550   48.2600  144.8060 C.3       6 GLL5        0.0000 
     47 CA         77.6990   45.3450  146.9940 C.3       4 GLP5        0.0000 
     48 CA         76.5240   51.2195  143.7475 C.3       2 GLC5        0.0000 
     49 CA         75.4870   49.8900  143.9230 C.3       6 GLL5        0.0000 
     50 CA         77.5610   52.5490  143.5720 C.3       4 GLP5        0.0000 
     51 CA         80.0198   46.1620  135.7247 C.3       2 GLC5        0.0000 
     52 CA         81.6680   46.6030  136.1290 C.3       4 GLP5        0.0000 
     53 CA         76.7436   44.9397  135.7160 C.3       2 GLC5        0.0000 
     54 CA         78.6428   45.9965  130.2455 C.3       2 GLC5        0.0000 
     55 CA         78.3400   47.5940  131.2880 C.3       6 GLL5        0.0000 
     56 CA         78.8200   44.9300  128.7310 C.3       4 GLP5        0.0000 
     57 CA         78.6277   48.9040  129.9125 C.3       2 GLC5        0.0000 
     58 CA         79.1960   49.6010  128.3210 C.3       4 GLP5        0.0000 
     59 CA         76.0207   48.9395  131.9915 C.3       2 GLC5        0.0000 
     60 CA         77.7790   48.8200  131.7200 C.3       6 GLL5        0.0000 
     61 CA         74.4260   48.9540  131.5800 C.3       4 GLP5        0.0000 
     62 CA         79.3723   48.8055  133.1155 C.3       2 GLC5        0.0000 
     63 CA         81.1290   48.6860  133.8280 C.3       4 GLP5        0.0000 
     64 CA         76.4221   47.2347  132.4295 C.3       2 GLC5        0.0000 
     65 CA         78.2710   46.7180  133.6200 C.3       6 GLL5        0.0000 
     66 CA         74.4760   47.5790  132.1690 C.3       4 GLP5        0.0000 
     67 CA         79.7486   47.7882  133.2590 C.3       2 GLC5        0.0000 
     68 CA         79.7807   48.2285  138.0277 C.3       2 GLC5        0.0000 
     69 CA         81.6630   48.5960  137.6630 C.3       4 GLP5        0.0000 
     70 CA         75.0068   47.3385  142.0390 C.3       2 GLC5        0.0000 
     71 CA         77.0460   47.9210  140.9040 C.3       6 GLL5        0.0000 
     72 CA         73.5340   47.1370  143.5470 C.3       4 GLP5        0.0000 
     73 CA         74.9950   48.2500  138.5292 C.3       2 GLC5        0.0000 
     74 CA         77.6603   45.1522  139.0487 C.3       2 GLC5        0.0000 
     75 CA         75.3257   47.6290  143.2160 C.3       2 GLC5        0.0000 
     76 CA         75.2476   47.7804  145.1360 C.3       2 GLC5        0.0000 
     77 CA         73.8090   46.6590  144.9540 C.3       4 GLP5        0.0000 
     78 CA         77.6741   50.2079  144.4835 C.3       2 GLC5        0.0000 
     79 CA         76.2600   49.2800  145.0110 C.3       6 GLL5        0.0000 
     80 CA         78.6620   51.5140  143.6490 C.3       4 GLP5        0.0000 
     81 CA         74.5785   48.3983  143.4015 C.3       2 GLC5        0.0000 
     82 CA         74.8225   51.5207  143.4040 C.3       2 GLC5        0.0000 
     83 CA         75.7590   49.4290  142.5890 C.3       6 GLL5        0.0000 
     84 CA         74.0220   53.3820  143.5520 C.3       4 GLP5        0.0000 
     85 CA         77.5501   50.1445  143.1930 C.3       2 GLC5        0.0000 
@<TRIPOS>BOND
@<TRIPOS>SUBSTRUCTURE
     1 SEC2        1 GROUP        1 X    SEC  0     ROOT SEC X 2
     2 GLC5        6 GROUP        1 X    GLC  0     **** GLC X 6
     3 SEP2        3 GROUP        1 Y    SEP  0     ROOT SEP Y 9
     4 GLP5        8 GROUP        1 Y    GLP  0     **** GLP Y 13
     5 SEL2        2 GROUP        1 Z    SEL  0     ROOT SEL Z 16
     6 GLL5        7 GROUP        1 Z    GLL  0     **** GLL Z 20
@<TRIPOS>SET

