#    Name: 1uum_AFI_2_ligand
#    Modification time : Tue Mar 25 07:06:40 2014

@<TRIPOS>MOLECULE
1uum_AFI_2_ligand
   45    48     1     0     0
SMALL
NO_CHARGES


@<TRIPOS>ATOM
      1 O1         76.8350   49.3400  135.8670 O.2       1 AFI400      0.0000 
      2 O2         79.0410   44.5180  134.2140 O.3       1 AFI400      0.0000 
      3 C1         77.3390   48.2360  135.4910 C.2       1 AFI400      0.0000 
      4 C2         77.6340   47.0750  136.5080 C.2       1 AFI400      0.0000 
      5 C3         78.2070   45.8330  136.0220 C.2       1 AFI400      0.0000 
      6 C4         78.5360   45.6090  134.6190 C.2       1 AFI400      0.0000 
      7 C5         78.5910   46.5320  132.2320 C.ar      1 AFI400      0.0000 
      8 C6         78.3400   47.5940  131.2880 C.ar      1 AFI400      0.0000 
      9 C7         77.7790   48.8200  131.7200 C.ar      1 AFI400      0.0000 
     10 C8         77.4520   49.0300  133.0860 C.ar      1 AFI400      0.0000 
     11 C9         77.6860   47.9950  134.0640 C.ar      1 AFI400      0.0000 
     12 C10        78.2710   46.7180  133.6200 C.ar      1 AFI400      0.0000 
     13 O6         78.4780   44.7660  136.9390 O.3       1 AFI400      0.0000 
     14 C11        78.3150   48.4040  138.7930 C.3       1 AFI400      0.0000 
     15 C12        77.5070   49.0540  139.9470 C.3       1 AFI400      0.0000 
     16 C13        77.0460   47.9210  140.9040 C.3       1 AFI400      0.0000 
     17 C14        75.9130   47.1590  140.1580 C.3       1 AFI400      0.0000 
     18 C15        76.5030   46.4230  138.8970 C.3       1 AFI400      0.0000 
     19 C16        77.4820   47.3180  137.9920 C.2       1 AFI400      0.0000 
     20 CL         75.9750   49.8070  146.6490 Cl        1 AFI400      0.0000 
     21 C17        76.7530   48.4030  142.3230 C.ar      1 AFI400      0.0000 
     22 C18        77.4820   47.8390  143.4470 C.ar      1 AFI400      0.0000 
     23 C19        77.2550   48.2600  144.8060 C.ar      1 AFI400      0.0000 
     24 C20        76.2600   49.2800  145.0110 C.ar      1 AFI400      0.0000 
     25 C21        75.4870   49.8900  143.9230 C.ar      1 AFI400      0.0000 
     26 C22        75.7590   49.4290  142.5890 C.ar      1 AFI400      0.0000 
     27 H          78.9914   45.6597  131.9144 H         1 AFI400      0.0000 
     28 H          78.5721   47.4491  130.3068 H         1 AFI400      0.0000 
     29 H          77.6058   49.5670  131.0395 H         1 AFI400      0.0000 
     30 H          77.0484   49.9153  133.3880 H         1 AFI400      0.0000 
     31 H          79.2003   47.9177  139.2000 H         1 AFI400      0.0000 
     32 H          78.6275   49.1753  138.0907 H         1 AFI400      0.0000 
     33 H          76.6465   49.5479  139.5433 H         1 AFI400      0.0000 
     34 H          78.1377   49.7344  140.4824 H         1 AFI400      0.0000 
     35 H          77.9126   47.2107  140.9418 H         1 AFI400      0.0000 
     36 H          75.1660   47.8609  139.8291 H         1 AFI400      0.0000 
     37 H          75.4827   46.4237  140.8161 H         1 AFI400      0.0000 
     38 H          75.6785   46.0859  138.2638 H         1 AFI400      0.0000 
     39 H          77.0638   45.5452  139.2276 H         1 AFI400      0.0000 
     40 H          78.1847   47.1129  143.2597 H         1 AFI400      0.0000 
     41 H          77.7583   47.8673  145.5606 H         1 AFI400      0.0000 
     42 H          74.8133   50.5850  144.1134 H         1 AFI400      0.0000 
     43 H          75.2430   49.8294  141.8021 H         1 AFI400      0.0000 
     44 H          78.3611   44.1346  133.5889 H         1 AFI400      0.0000 
     45 H          77.7670   44.8392  137.6384 H         1 AFI400      0.0000 
@<TRIPOS>BOND
     1    3    1 2    
     2    6    2 1    
     3   44    2 1    
     4    4    3 1    
     5   11    3 1    
     6    5    4 1    
     7   19    4 2    
     8    6    5 2    
     9   13    5 1    
    10   12    6 1    
    11    8    7 ar   
    12   12    7 ar   
    13   27    7 1    
    14    9    8 ar   
    15   28    8 1    
    16   10    9 ar   
    17   29    9 1    
    18   11   10 ar   
    19   30   10 1    
    20   12   11 ar   
    21   45   13 1    
    22   15   14 1    
    23   19   14 1    
    24   31   14 1    
    25   32   14 1    
    26   16   15 1    
    27   33   15 1    
    28   34   15 1    
    29   17   16 1    
    30   21   16 1    
    31   35   16 1    
    32   18   17 1    
    33   36   17 1    
    34   37   17 1    
    35   19   18 1    
    36   38   18 1    
    37   39   18 1    
    38   24   20 1    
    39   22   21 ar   
    40   26   21 ar   
    41   23   22 ar   
    42   40   22 1    
    43   24   23 ar   
    44   41   23 1    
    45   25   24 ar   
    46   26   25 ar   
    47   42   25 1    
    48   43   26 1    
@<TRIPOS>SUBSTRUCTURE
     1 AFI400      1 GROUP   
@<TRIPOS>SET

