#    Name: 3m0e_ATP_6_INTS_M
#    Modification time : Mon Mar 24 22:35:42 2014

@<TRIPOS>MOLECULE
3m0e_ATP_6_INTS_M
   88     0    15     0     0
SMALL
NO_CHARGES


@<TRIPOS>ATOM
      1 NZ        193.1285  200.1760   32.3325 N.4       3 LYC4        0.0000 
      2 NZ        194.2420  200.4500   33.2510 N.4      13 LYL4        0.0000 
      3 NZ        190.9610  199.2170   31.8630 N.4       8 LYP4        0.0000 
      4 Zn        194.9620  200.8855   32.2735 Zn        4 ZIC7        0.0000 
      5 Zn        194.2420  200.4500   33.2510 Zn       14 ZIL7        0.0000 
      6 Zn        195.6820  201.3210   31.2960 Zn        9 ZIP7        0.0000 
      7 N         193.1285  200.1760   32.3325 N.am      2 SEC2        0.0000 
      8 N         194.2420  200.4500   33.2510 N.am     12 SEL2        0.0000 
      9 N         192.0150  199.9020   31.4140 N.am      7 SEP2        0.0000 
     10 NZ        191.2945  201.1785   34.8320 N.4       3 LYC4        0.0000 
     11 NZ        192.4570  200.2860   35.0510 N.4      13 LYL4        0.0000 
     12 NZ        189.5700  202.2570   33.4180 N.4       8 LYP4        0.0000 
     13 NZ        191.6420  199.6345   34.1045 N.4       3 LYC4        0.0000 
     14 N         191.9985  200.1305   36.3570 N.am      2 SEC2        0.0000 
     15 N         192.4570  200.2860   35.0510 N.am     12 SEL2        0.0000 
     16 N         191.5400  199.9750   37.6630 N.am      7 SEP2        0.0000 
     17 N         191.2945  201.1785   34.8320 N.am      2 SEC2        0.0000 
     18 N         190.1320  202.0710   34.6130 N.am      7 SEP2        0.0000 
     19 N         191.6420  199.6345   34.1045 N.am      2 SEC2        0.0000 
     20 N         190.8270  198.9830   33.1580 N.am      7 SEP2        0.0000 
     21 NZ        195.8615  201.3765   36.1845 N.4       3 LYC4        0.0000 
     22 NZ        194.9040  200.5240   35.6560 N.4      13 LYL4        0.0000 
     23 NZ        196.8190  202.2290   36.7130 N.4       8 LYP4        0.0000 
     24 N         195.8615  201.3765   36.1845 N.am      2 SEC2        0.0000 
     25 N         194.9040  200.5240   35.6560 N.am     12 SEL2        0.0000 
     26 N         196.8190  202.2290   36.7130 N.am      7 SEP2        0.0000 
     27 N         195.3975  199.1120   36.3370 N.am      2 SEC2        0.0000 
     28 N         195.8910  197.7000   37.0180 N.am      7 SEP2        0.0000 
     29 Zn        195.4645  202.2785   32.1190 Zn        4 ZIC7        0.0000 
     30 Zn        195.2470  203.2360   32.9420 Zn       14 ZIL7        0.0000 
     31 N         196.2185  204.3050   32.2025 N.am      2 SEC2        0.0000 
     32 N         195.2470  203.2360   32.9420 N.am     12 SEL2        0.0000 
     33 N         197.1900  205.3740   31.4630 N.am      7 SEP2        0.0000 
     34 NZ        196.0890  203.1645   36.0440 N.4       3 LYC4        0.0000 
     35 NZ        195.3590  204.1000   35.3750 N.4      13 LYL4        0.0000 
     36 N         195.0375  205.6210   35.5805 N.am      2 SEC2        0.0000 
     37 N         195.3590  204.1000   35.3750 N.am     12 SEL2        0.0000 
     38 N         194.7160  207.1420   35.7860 N.am      7 SEP2        0.0000 
     39 N         196.1060  205.1845   34.7510 N.am      2 SEC2        0.0000 
     40 N         196.8530  206.2690   34.1270 N.am      7 SEP2        0.0000 
     41 N         196.0890  203.1645   36.0440 N.am      2 SEC2        0.0000 
     42 N         193.0675  202.7730   36.0170 N.am      2 SEC2        0.0000 
     43 N         193.5580  202.4230   34.7240 N.am     12 SEL2        0.0000 
     44 N         192.5770  203.1230   37.3100 N.am      7 SEP2        0.0000 
     45 N         191.8450  202.2470   34.6685 N.am      2 SEC2        0.0000 
     46 N         191.7225  203.2340   31.9080 N.am      2 SEC2        0.0000 
     47 N         193.1080  204.0510   31.4700 N.am     12 SEL2        0.0000 
     48 N         190.3370  202.4170   32.3460 N.am      7 SEP2        0.0000 
     49 N         195.1250  207.0130   31.0460 N.am      2 SEC2        0.0000 
     50 N         194.0060  206.3730   31.9500 N.am     12 SEL2        0.0000 
     51 N         196.2440  207.6530   30.1420 N.am      7 SEP2        0.0000 
     52 N         194.0650  205.9550   34.8390 N.am      2 SEC2        0.0000 
     53 N         193.4140  204.7680   33.8920 N.am     12 SEL2        0.0000 
     54 CA        191.3330  205.2790   35.3045 C.3       5 GLC5        0.0000 
     55 CA        190.9320  206.2950   33.5860 C.3      15 GLL5        0.0000 
     56 CA        191.7340  204.2630   37.0230 C.3      10 GLP5        0.0000 
     57 CA        189.3295  205.3040   34.5740 C.3       5 GLC5        0.0000 
     58 CA        187.7270  204.3130   35.5620 C.3      10 GLP5        0.0000 
     59 CA        189.3955  208.5085   34.5125 C.3       5 GLC5        0.0000 
     60 CA        189.6170  206.8490   33.0190 C.3      15 GLL5        0.0000 
     61 CA        189.1740  210.1680   36.0060 C.3      10 GLP5        0.0000 
     62 CA        188.3765  206.2525   34.5065 C.3       5 GLC5        0.0000 
     63 CA        187.1360  205.6560   35.9940 C.3      10 GLP5        0.0000 
     64 CA        192.0160  208.8620   30.8725 C.3       5 GLC5        0.0000 
     65 CA        190.3180  208.3680   31.3490 C.3      15 GLL5        0.0000 
     66 CA        193.7140  209.3560   30.3960 C.3      10 GLP5        0.0000 
     67 CA        189.4405  209.6555   34.2570 C.3       5 GLC5        0.0000 
     68 CA        189.7070  209.1430   32.5080 C.3      15 GLL5        0.0000 
     69 CA        192.7970  214.4440   31.9690 C.3       5 GLC5        0.0000 
     70 CA        192.2090  213.2570   33.7450 C.3      15 GLL5        0.0000 
     71 CA        193.3850  215.6310   30.1930 C.3      10 GLP5        0.0000 
     72 CA        192.0620  215.4910   33.8675 C.3       5 GLC5        0.0000 
     73 CA        191.9150  217.7250   33.9900 C.3      10 GLP5        0.0000 
     74 CA        190.5960  213.7795   34.8750 C.3       5 GLC5        0.0000 
     75 CA        188.9830  214.3020   36.0050 C.3      10 GLP5        0.0000 
     76 O         193.3230  215.0515   34.8795 O.2       1 ALC1        0.0000 
     77 O         193.3080  213.7430   34.3770 O.2      11 ALL1        0.0000 
     78 O         193.3380  216.3600   35.3820 O.2       6 ALP1        0.0000 
     79 N         191.6185  215.4930   32.9490 N.am      2 SEC2        0.0000 
     80 N         191.3240  214.0580   33.1230 N.am     12 SEL2        0.0000 
     81 N         191.9130  216.9280   32.7750 N.am      7 SEP2        0.0000 
     82 CA        191.1845  215.0440   31.4515 C.3       5 GLC5        0.0000 
     83 CA        190.2360  213.5960   32.4830 C.3      15 GLL5        0.0000 
     84 CA        192.1330  216.4920   30.4200 C.3      10 GLP5        0.0000 
     85 CA        189.6095  213.9490   34.2440 C.3       5 GLC5        0.0000 
     86 CA        192.5298  210.4753   31.8657 C.3       5 GLC5        0.0000 
     87 CA        190.7430  211.3770   32.9750 C.3      15 GLL5        0.0000 
     88 CA        190.2597  210.8813   34.6707 C.3       5 GLC5        0.0000 
@<TRIPOS>BOND
@<TRIPOS>SUBSTRUCTURE
     1 ALC1       76 GROUP        1 X    ALC  0     ROOT ALC X 1
     2 SEC2        7 GROUP        1 X    SEC  0     **** SEC X 2
     3 LYC4        1 GROUP        1 X    LYC  0     **** LYC X 4
     4 ZIC7        4 GROUP        1 X    ZIC  0     **** ZIC X 5
     5 GLC5       54 GROUP        1 X    GLC  0     **** GLC X 6
     6 ALP1       78 GROUP        1 Y    ALP  0     ROOT ALP Y 8
     7 SEP2        9 GROUP        1 Y    SEP  0     **** SEP Y 9
     8 LYP4        3 GROUP        1 Y    LYP  0     **** LYP Y 11
     9 ZIP7        6 GROUP        1 Y    ZIP  0     **** ZIP Y 12
    10 GLP5       56 GROUP        1 Y    GLP  0     **** GLP Y 13
    11 ALL1       77 GROUP        1 Z    ALL  0     ROOT ALL Z 15
    12 SEL2        8 GROUP        1 Z    SEL  0     **** SEL Z 16
    13 LYL4        2 GROUP        1 Z    LYL  0     **** LYL Z 18
    14 ZIL7        5 GROUP        1 Z    ZIL  0     **** ZIL Z 19
    15 GLL5       55 GROUP        1 Z    GLL  0     **** GLL Z 20
@<TRIPOS>SET

