#    Name: 3m0e_ATP_6_ligand
#    Modification time : Mon Mar 24 22:35:43 2014

@<TRIPOS>MOLECULE
3m0e_ATP_6_ligand
   43    45     1     0     0
SMALL
NO_CHARGES


@<TRIPOS>ATOM
      1 PG        193.8090  200.8110   34.6540 P.3       1 ATP400      0.0000 
      2 O1G       194.2420  200.4500   33.2510 O.co2     1 ATP400      0.0000 
      3 O2G       192.4570  200.2860   35.0510 O.co2     1 ATP400      0.0000 
      4 O3G       194.9040  200.5240   35.6560 O.co2     1 ATP400      0.0000 
      5 PB        194.5380  203.6360   34.2030 P.3       1 ATP400      0.0000 
      6 O1B       195.2470  203.2360   32.9420 O.co2     1 ATP400      0.0000 
      7 O2B       195.3590  204.1000   35.3750 O.co2     1 ATP400      0.0000 
      8 O3B       193.5580  202.4230   34.7240 O.3       1 ATP400      0.0000 
      9 PA        193.1000  205.2510   32.3860 P.3       1 ATP400      0.0000 
     10 O1A       193.1080  204.0510   31.4700 O.co2     1 ATP400      0.0000 
     11 O2A       194.0060  206.3730   31.9500 O.co2     1 ATP400      0.0000 
     12 O3A       193.4140  204.7680   33.8920 O.3       1 ATP400      0.0000 
     13 O5'       191.5730  205.6580   32.4950 O.3       1 ATP400      0.0000 
     14 C5'       190.9320  206.2950   33.5860 C.3       1 ATP400      0.0000 
     15 C4'       189.6170  206.8490   33.0190 C.3       1 ATP400      0.0000 
     16 O4'       189.3950  208.1740   33.5080 O.3       1 ATP400      0.0000 
     17 C3'       189.7230  207.0000   31.5170 C.3       1 ATP400      0.0000 
     18 O3'       188.4130  207.0410   30.9630 O.3       1 ATP400      0.0000 
     19 C2'       190.3180  208.3680   31.3490 C.3       1 ATP400      0.0000 
     20 O2'       189.9450  208.8650   30.0640 O.3       1 ATP400      0.0000 
     21 C1'       189.7070  209.1430   32.5080 C.3       1 ATP400      0.0000 
     22 N9        190.7220  210.0530   33.0760 N.pl3     1 ATP400      0.0000 
     23 C8        191.7980  209.6650   33.7880 C.2       1 ATP400      0.0000 
     24 N7        192.5610  210.7170   34.1730 N.2       1 ATP400      0.0000 
     25 C5        191.9480  211.8120   33.6960 C.ar      1 ATP400      0.0000 
     26 C6        192.2090  213.2570   33.7450 C.ar      1 ATP400      0.0000 
     27 N6        193.3080  213.7430   34.3770 N.pl3     1 ATP400      0.0000 
     28 N1        191.3240  214.0580   33.1230 N.ar      1 ATP400      0.0000 
     29 C2        190.2360  213.5960   32.4830 C.ar      1 ATP400      0.0000 
     30 N3        189.9380  212.2980   32.3960 N.ar      1 ATP400      0.0000 
     31 C4        190.7430  211.3770   32.9750 C.ar      1 ATP400      0.0000 
     32 H         191.5002  207.1272   33.9732 H         1 ATP400      0.0000 
     33 H         190.6843  205.6079   34.3809 H         1 ATP400      0.0000 
     34 H         188.8212  206.1998   33.2510 H         1 ATP400      0.0000 
     35 H         190.3439  206.2839   31.1225 H         1 ATP400      0.0000 
     36 H         191.3624  208.2954   31.4959 H         1 ATP400      0.0000 
     37 H         188.8630  209.6632   32.1785 H         1 ATP400      0.0000 
     38 H         192.0100  208.7244   34.0064 H         1 ATP400      0.0000 
     39 H         194.1145  213.1518   34.3746 H         1 ATP400      0.0000 
     40 H         193.2139  214.6492   34.7891 H         1 ATP400      0.0000 
     41 H         189.5826  214.3032   32.0245 H         1 ATP400      0.0000 
     42 H         188.2213  206.1006   30.6822 H         1 ATP400      0.0000 
     43 H         189.2013  208.2686   29.7619 H         1 ATP400      0.0000 
@<TRIPOS>BOND
     1    2    1 ar   
     2    3    1 ar   
     3    4    1 ar   
     4    8    1 1    
     5    6    5 ar   
     6    7    5 ar   
     7    8    5 1    
     8   12    5 1    
     9   10    9 ar   
    10   11    9 ar   
    11   12    9 1    
    12   13    9 1    
    13   14   13 1    
    14   15   14 1    
    15   32   14 1    
    16   33   14 1    
    17   16   15 1    
    18   17   15 1    
    19   34   15 1    
    20   21   16 1    
    21   18   17 1    
    22   19   17 1    
    23   35   17 1    
    24   42   18 1    
    25   20   19 1    
    26   21   19 1    
    27   36   19 1    
    28   43   20 1    
    29   22   21 1    
    30   37   21 1    
    31   23   22 1    
    32   31   22 1    
    33   24   23 2    
    34   38   23 1    
    35   25   24 1    
    36   26   25 ar   
    37   31   25 ar   
    38   27   26 1    
    39   28   26 ar   
    40   39   27 1    
    41   40   27 1    
    42   29   28 ar   
    43   30   29 ar   
    44   41   29 1    
    45   31   30 ar   
@<TRIPOS>SUBSTRUCTURE
     1 ATP400      1 GROUP   
@<TRIPOS>SET

