#    Name: 3r7u_X96_1_INTS_M
#    Modification time : Tue Mar 25 11:13:43 2014

@<TRIPOS>MOLECULE
3r7u_X96_1_INTS_M
   44     0    12     0     0
SMALL
NO_CHARGES


@<TRIPOS>ATOM
      1 O          93.9125   82.2370  -52.5990 O.2       1 ALC1        0.0000 
      2 O          93.9150   81.6570  -51.2160 O.2       9 ALL1        0.0000 
      3 O          93.9100   82.8170  -53.9820 O.2       5 ALP1        0.0000 
      4 O          90.0140   82.7230  -49.2220 O.2       1 ALC1        0.0000 
      5 O          90.8530   81.8660  -48.3380 O.2       9 ALL1        0.0000 
      6 O          89.1750   83.5800  -50.1060 O.2       5 ALP1        0.0000 
      7 N          91.2330   83.3775  -51.5180 N.am      2 SEC2        0.0000 
      8 N          92.2140   83.0530  -50.5130 N.am     10 SEL2        0.0000 
      9 N          90.2520   83.7020  -52.5230 N.am      6 SEP2        0.0000 
     10 OD1        88.8035   87.3255  -42.6850 O.co2     3 ASC3        0.0000 
     11 OD1        87.3540   86.2530  -43.4540 O.co2    11 ASL3        0.0000 
     12 OD1        90.2530   88.3980  -41.9160 O.co2     7 ASP3        0.0000 
     13 CA         91.2035   79.5200  -47.8200 C.3       4 GLC5        0.0000 
     14 CA         92.3090   80.9020  -46.6200 C.3      12 GLL5        0.0000 
     15 CA         90.0980   78.1380  -49.0200 C.3       8 GLP5        0.0000 
     16 CA         89.8355   79.9630  -48.3035 C.3       4 GLC5        0.0000 
     17 CA         89.5730   81.7880  -47.5870 C.3      12 GLL5        0.0000 
     18 CA         88.0360   82.2240  -42.7990 C.3       4 GLC5        0.0000 
     19 CA         88.6820   83.6080  -44.3180 C.3      12 GLL5        0.0000 
     20 CA         87.3900   80.8400  -41.2800 C.3       8 GLP5        0.0000 
     21 CA         90.6635   86.1445  -44.1490 C.3       4 GLC5        0.0000 
     22 CA         88.7690   85.9360  -43.6560 C.3      12 GLL5        0.0000 
     23 CA         92.5580   86.3530  -44.6420 C.3       8 GLP5        0.0000 
     24 CA         94.3325   82.8323  -47.2175 C.3       4 GLC5        0.0000 
     25 CA         94.7070   80.5750  -47.1130 C.3      12 GLL5        0.0000 
     26 CA         94.0640   84.8160  -46.6720 C.3       8 GLP5        0.0000 
     27 CA         96.0490   82.0463  -47.0955 C.3       4 GLC5        0.0000 
     28 CA         94.4950   81.1220  -48.4130 C.3      12 GLL5        0.0000 
     29 CA         97.4970   83.2440  -46.4280 C.3       8 GLP5        0.0000 
     30 CA         94.8723   82.7572  -49.5005 C.3       4 GLC5        0.0000 
     31 CA         95.8960   84.1700  -50.3740 C.3       8 GLP5        0.0000 
     32 CA         93.3470   83.1655  -47.5318 C.3       4 GLC5        0.0000 
     33 CA         93.2020   81.5670  -48.8410 C.3      12 GLL5        0.0000 
     34 CA         92.2191   80.2919  -49.5862 C.3       4 GLC5        0.0000 
     35 CA         92.0580   81.4630  -47.9420 C.3      12 GLL5        0.0000 
     36 CA         91.4850   79.1800  -50.8880 C.3       8 GLP5        0.0000 
     37 CA         93.5087   82.7528  -46.5485 C.3       4 GLC5        0.0000 
     38 CA         88.0573   84.0715  -48.2075 C.3       4 GLC5        0.0000 
     39 CA         89.3730   82.8990  -46.5850 C.3      12 GLL5        0.0000 
     40 CA         86.5950   84.5650  -49.6670 C.3       8 GLP5        0.0000 
     41 CA         87.4468   81.9546  -46.9525 C.3       4 GLC5        0.0000 
     42 CA         85.7180   81.4440  -47.7220 C.3       8 GLP5        0.0000 
     43 CA         91.0012   85.5235  -45.3716 C.3       4 GLC5        0.0000 
     44 CA         89.4710   85.2850  -45.9500 C.3      12 GLL5        0.0000 
@<TRIPOS>BOND
@<TRIPOS>SUBSTRUCTURE
     1 ALC1        1 GROUP        1 X    ALC  0     ROOT ALC X 1
     2 SEC2        7 GROUP        1 X    SEC  0     **** SEC X 2
     3 ASC3       10 GROUP        1 X    ASC  0     **** ASC X 3
     4 GLC5       13 GROUP        1 X    GLC  0     **** GLC X 6
     5 ALP1        3 GROUP        1 Y    ALP  0     ROOT ALP Y 8
     6 SEP2        9 GROUP        1 Y    SEP  0     **** SEP Y 9
     7 ASP3       12 GROUP        1 Y    ASP  0     **** ASP Y 10
     8 GLP5       15 GROUP        1 Y    GLP  0     **** GLP Y 13
     9 ALL1        2 GROUP        1 Z    ALL  0     ROOT ALL Z 15
    10 SEL2        8 GROUP        1 Z    SEL  0     **** SEL Z 16
    11 ASL3       11 GROUP        1 Z    ASL  0     **** ASL Z 17
    12 GLL5       14 GROUP        1 Z    GLL  0     **** GLL Z 20
@<TRIPOS>SET

