#    Name: 3r7u_X96_1_ligand
#    Modification time : Tue Mar 25 11:13:43 2014

@<TRIPOS>MOLECULE
3r7u_X96_1_ligand
   39    40     1     0     0
SMALL
NO_CHARGES


@<TRIPOS>ATOM
      1 C1         94.7070   80.5750  -47.1130 C.ar      1 X96523      0.0000 
      2 N1         95.9710   80.1460  -46.7200 N.pl3     1 X96523      0.0000 
      3 O1         96.1770   79.6330  -45.5000 O.2       1 X96523      0.0000 
      4 C2         94.4950   81.1220  -48.4130 C.ar      1 X96523      0.0000 
      5 N2         93.9150   81.6570  -51.2160 N.am      1 X96523      0.0000 
      6 O2         97.0150   80.2310  -47.5480 O.2       1 X96523      0.0000 
      7 C3         93.2020   81.5670  -48.8410 C.ar      1 X96523      0.0000 
      8 N3         90.8530   81.8660  -48.3380 N.pl3     1 X96523      0.0000 
      9 O3         92.2140   83.0530  -50.5130 O.2       1 X96523      0.0000 
     10 C4         92.0580   81.4630  -47.9420 C.ar      1 X96523      0.0000 
     11 N4         87.3540   86.2530  -43.4540 N.4       1 X96523      0.0000 
     12 C5         92.3090   80.9020  -46.6200 C.ar      1 X96523      0.0000 
     13 C6         93.5980   80.4770  -46.2300 C.ar      1 X96523      0.0000 
     14 C7         93.1120   82.1120  -50.2310 C.2       1 X96523      0.0000 
     15 C8         89.5730   81.7880  -47.5870 C.3       1 X96523      0.0000 
     16 C9         89.3730   82.8990  -46.5850 C.ar      1 X96523      0.0000 
     17 C10        88.8780   82.5870  -45.2800 C.ar      1 X96523      0.0000 
     18 C11        88.6820   83.6080  -44.3180 C.ar      1 X96523      0.0000 
     19 C12        88.9750   84.9770  -44.6330 C.ar      1 X96523      0.0000 
     20 C13        89.4710   85.2850  -45.9500 C.ar      1 X96523      0.0000 
     21 C14        89.6660   84.2570  -46.9110 C.ar      1 X96523      0.0000 
     22 C15        88.7690   85.9360  -43.6560 C.3       1 X96523      0.0000 
     23 H          95.2883   81.2002  -49.0615 H         1 X96523      0.0000 
     24 H          93.8099   82.0969  -52.1079 H         1 X96523      0.0000 
     25 H          94.5436   80.9205  -50.9663 H         1 X96523      0.0000 
     26 H          90.7312   82.3116  -49.3154 H         1 X96523      0.0000 
     27 H          91.5185   80.8223  -45.9724 H         1 X96523      0.0000 
     28 H          93.7410   80.0879  -45.2880 H         1 X96523      0.0000 
     29 H          89.5132   80.8154  -47.0548 H         1 X96523      0.0000 
     30 H          88.7225   81.7967  -48.3006 H         1 X96523      0.0000 
     31 H          88.6652   81.6151  -45.0448 H         1 X96523      0.0000 
     32 H          88.3287   83.3757  -43.3881 H         1 X96523      0.0000 
     33 H          89.6820   86.2547  -46.1868 H         1 X96523      0.0000 
     34 H          90.0174   84.4882  -47.8402 H         1 X96523      0.0000 
     35 H          89.1995   85.6147  -42.6713 H         1 X96523      0.0000 
     36 H          89.3096   86.8884  -43.8983 H         1 X96523      0.0000 
     37 H          87.2266   86.9494  -42.7477 H         1 X96523      0.0000 
     38 H          86.9285   86.6014  -44.2892 H         1 X96523      0.0000 
     39 H          86.8301   85.4495  -43.1713 H         1 X96523      0.0000 
@<TRIPOS>BOND
     1    2    1 1    
     2    4    1 ar   
     3   13    1 ar   
     4    3    2 2    
     5    6    2 2    
     6    7    4 ar   
     7   23    4 1    
     8   14    5 am   
     9   24    5 1    
    10   25    5 1    
    11   10    7 ar   
    12   14    7 1    
    13   10    8 1    
    14   15    8 1    
    15   26    8 1    
    16   14    9 2    
    17   12   10 ar   
    18   22   11 1    
    19   37   11 1    
    20   38   11 1    
    21   39   11 1    
    22   13   12 ar   
    23   27   12 1    
    24   28   13 1    
    25   16   15 1    
    26   29   15 1    
    27   30   15 1    
    28   17   16 ar   
    29   21   16 ar   
    30   18   17 ar   
    31   31   17 1    
    32   19   18 ar   
    33   32   18 1    
    34   20   19 ar   
    35   22   19 1    
    36   21   20 ar   
    37   33   20 1    
    38   34   21 1    
    39   35   22 1    
    40   36   22 1    
@<TRIPOS>SUBSTRUCTURE
     1 X96523      1 GROUP   
@<TRIPOS>SET

