#    Name: 4dgn_LU2_1_INTS_M
#    Modification time : Tue Mar 25 09:42:04 2014

@<TRIPOS>MOLECULE
4dgn_LU2_1_INTS_M
   60     0     9     0     0
SMALL
NO_CHARGES


@<TRIPOS>ATOM
      1 O          22.9005    4.9895   24.6470 O.2       1 ALC1        0.0000 
      2 O          21.7400    5.1570   23.6370 O.2       7 ALL1        0.0000 
      3 O          24.0610    4.8220   25.6570 O.2       4 ALP1        0.0000 
      4 CA         18.6430    7.1215   23.0885 C.3       3 GLC5        0.0000 
      5 CA         20.6010    7.1740   23.1280 C.3       9 GLL5        0.0000 
      6 CA         16.6850    7.0690   23.0490 C.3       6 GLP5        0.0000 
      7 N          18.8270   11.5205   20.3120 N.am      2 SEC2        0.0000 
      8 N          19.7350   10.2230   20.2790 N.am      8 SEL2        0.0000 
      9 N          17.9190   12.8180   20.3450 N.am      5 SEP2        0.0000 
     10 N          25.8815    5.5950   14.5575 N.am      2 SEC2        0.0000 
     11 N          24.8460    5.4670   15.8420 N.am      8 SEL2        0.0000 
     12 N          26.9170    5.7230   13.2730 N.am      5 SEP2        0.0000 
     13 CA         21.3010    5.9805   18.8160 C.3       3 GLC5        0.0000 
     14 CA         21.7280    7.2070   20.5930 C.3       9 GLL5        0.0000 
     15 CA         20.8740    4.7540   17.0390 C.3       6 GLP5        0.0000 
     16 N          25.6505    6.4550   13.4760 N.am      2 SEC2        0.0000 
     17 N          24.3840    7.1870   13.6790 N.am      8 SEL2        0.0000 
     18 N          23.2790    6.1340   13.3695 N.am      2 SEC2        0.0000 
     19 N          22.1740    5.0810   13.0600 N.am      5 SEP2        0.0000 
     20 CA         21.7875   10.7120   19.4100 C.3       3 GLC5        0.0000 
     21 CA         21.1090    9.2730   18.6940 C.3       9 GLL5        0.0000 
     22 CA         22.4660   12.1510   20.1260 C.3       6 GLP5        0.0000 
     23 CA         20.1680    8.2585   17.0225 C.3       3 GLC5        0.0000 
     24 CA         19.2270    7.2440   15.3510 C.3       6 GLP5        0.0000 
     25 CA         22.6525   10.9775   15.6700 C.3       3 GLC5        0.0000 
     26 CA         22.4110    8.8520   16.1410 C.3       9 GLL5        0.0000 
     27 CA         22.8940   13.1030   15.1990 C.3       6 GLP5        0.0000 
     28 CA         20.8190    8.0480   15.7460 C.3       3 GLC5        0.0000 
     29 CA         23.7415    7.4825   20.7700 C.3       3 GLC5        0.0000 
     30 CA         22.0320    6.1610   21.4750 C.3       9 GLL5        0.0000 
     31 CA         25.6030    8.2810   20.5060 C.3       6 GLP5        0.0000 
     32 CA         22.6582    7.4566   23.3155 C.3       3 GLC5        0.0000 
     33 CA         24.1420    8.2460   24.0100 C.3       6 GLP5        0.0000 
     34 CA         19.8407    6.2516   21.4180 C.3       3 GLC5        0.0000 
     35 CA         18.5070    5.8360   20.2150 C.3       6 GLP5        0.0000 
     36 CA         22.7175    7.9822   22.3927 C.3       3 GLC5        0.0000 
     37 CA         22.0620    9.5708   21.0922 C.3       3 GLC5        0.0000 
     38 CA         22.8310   11.4230   21.4090 C.3       6 GLP5        0.0000 
     39 CA         19.9000    6.7773   20.4952 C.3       3 GLC5        0.0000 
     40 CA         20.8580    8.2300   20.9580 C.3       9 GLL5        0.0000 
     41 CA         19.7527    7.6935   18.6477 C.3       3 GLC5        0.0000 
     42 CA         21.9920    8.2330   18.4590 C.3       9 GLL5        0.0000 
     43 CA         17.9550    6.6340   18.7190 C.3       6 GLP5        0.0000 
     44 CA         21.5972    6.4355   17.4345 C.3       3 GLC5        0.0000 
     45 CA         24.2431    7.8810   19.0020 C.3       3 GLC5        0.0000 
     46 CA         23.4460    6.8450   17.1660 C.3       9 GLL5        0.0000 
     47 CA         22.3113    5.7293   16.7978 C.3       3 GLC5        0.0000 
     48 CA         25.7975    7.2863   15.0547 C.3       3 GLC5        0.0000 
     49 CA         24.0510    6.5640   15.9470 C.3       9 GLL5        0.0000 
     50 CA         27.6600    7.5890   14.6970 C.3       6 GLP5        0.0000 
     51 CA         23.6280    5.6258   14.0297 C.3       3 GLC5        0.0000 
     52 CA         23.8190    7.4030   14.8780 C.3       9 GLL5        0.0000 
     53 CA         23.3210    4.2680   12.6470 C.3       6 GLP5        0.0000 
     54 CA         21.7782    7.0210   14.9153 C.3       3 GLC5        0.0000 
     55 CA         20.1340    6.0710   14.9200 C.3       6 GLP5        0.0000 
     56 CA         21.2802    9.7188   14.7445 C.3       3 GLC5        0.0000 
     57 CA         23.0260    8.5390   14.9430 C.3       9 GLL5        0.0000 
     58 CA         19.8420   10.7420   13.9470 C.3       6 GLP5        0.0000 
     59 CA         23.4644    9.8562   17.9718 C.3       3 GLC5        0.0000 
     60 CA         24.5630   11.2280   18.9580 C.3       6 GLP5        0.0000 
@<TRIPOS>BOND
@<TRIPOS>SUBSTRUCTURE
     1 ALC1        1 GROUP        1 X    ALC  0     ROOT ALC X 1
     2 SEC2        7 GROUP        1 X    SEC  0     **** SEC X 2
     3 GLC5        4 GROUP        1 X    GLC  0     **** GLC X 6
     4 ALP1        3 GROUP        1 Y    ALP  0     ROOT ALP Y 8
     5 SEP2        9 GROUP        1 Y    SEP  0     **** SEP Y 9
     6 GLP5        6 GROUP        1 Y    GLP  0     **** GLP Y 13
     7 ALL1        2 GROUP        1 Z    ALL  0     ROOT ALL Z 15
     8 SEL2        8 GROUP        1 Z    SEL  0     **** SEL Z 16
     9 GLL5        5 GROUP        1 Z    GLL  0     **** GLL Z 20
@<TRIPOS>SET

