#    Name: 4dgn_LU2_1_ligand
#    Modification time : Tue Mar 25 09:42:04 2014

@<TRIPOS>MOLECULE
4dgn_LU2_1_ligand
   30    32     1     0     0
SMALL
NO_CHARGES


@<TRIPOS>ATOM
      1 C1         22.0320    6.1610   21.4750 C.ar      1 LU2401      0.0000 
      2 O1         21.7400    5.1570   23.6370 O.3       1 LU2401      0.0000 
      3 C2         21.4640    6.1600   22.7530 C.ar      1 LU2401      0.0000 
      4 O2         19.4520    9.1480   22.6590 O.co2     1 LU2401      0.0000 
      5 C3         20.6010    7.1740   23.1280 C.ar      1 LU2401      0.0000 
      6 O3         19.7350   10.2230   20.2790 O.2       1 LU2401      0.0000 
      7 C4         20.2870    8.1850   22.2350 C.ar      1 LU2401      0.0000 
      8 O4         22.2710    7.2150   19.3280 O.3       1 LU2401      0.0000 
      9 C5         20.8580    8.2300   20.9580 C.ar      1 LU2401      0.0000 
     10 O5         24.8460    5.4670   15.8420 O.3       1 LU2401      0.0000 
     11 C6         21.7280    7.2070   20.5930 C.ar      1 LU2401      0.0000 
     12 O6         24.3840    7.1870   13.6790 O.3       1 LU2401      0.0000 
     13 C7         20.5150    9.2920   19.9610 C.2       1 LU2401      0.0000 
     14 C8         21.1090    9.2730   18.6940 C.2       1 LU2401      0.0000 
     15 C9         21.9920    8.2330   18.4590 C.2       1 LU2401      0.0000 
     16 C10        22.6490    8.0010   17.2010 C.ar      1 LU2401      0.0000 
     17 C11        23.4460    6.8450   17.1660 C.ar      1 LU2401      0.0000 
     18 C12        24.0510    6.5640   15.9470 C.ar      1 LU2401      0.0000 
     19 C13        23.8190    7.4030   14.8780 C.ar      1 LU2401      0.0000 
     20 C14        23.0260    8.5390   14.9430 C.ar      1 LU2401      0.0000 
     21 C15        22.4110    8.8520   16.1410 C.ar      1 LU2401      0.0000 
     22 H          22.6594    5.4110   21.1872 H         1 LU2401      0.0000 
     23 H          20.1904    7.1778   24.0739 H         1 LU2401      0.0000 
     24 H          20.9040    9.9689   18.0080 H         1 LU2401      0.0000 
     25 H          23.5656    6.2670   17.9695 H         1 LU2401      0.0000 
     26 H          22.9001    9.1315   14.1208 H         1 LU2401      0.0000 
     27 H          21.8180    9.6625   16.2344 H         1 LU2401      0.0000 
     28 H          22.5571    5.4613   24.1266 H         1 LU2401      0.0000 
     29 H          25.7522    5.8249   15.6167 H         1 LU2401      0.0000 
     30 H          23.6485    6.8217   13.1085 H         1 LU2401      0.0000 
@<TRIPOS>BOND
     1    3    1 ar   
     2   11    1 ar   
     3   22    1 1    
     4    3    2 1    
     5   28    2 1    
     6    5    3 ar   
     7    7    4 ar   
     8    7    5 ar   
     9   23    5 1    
    10   13    6 2    
    11    9    7 ar   
    12   11    8 1    
    13   15    8 1    
    14   11    9 ar   
    15   13    9 1    
    16   18   10 1    
    17   29   10 1    
    18   19   12 1    
    19   30   12 1    
    20   14   13 1    
    21   15   14 2    
    22   24   14 1    
    23   16   15 1    
    24   17   16 ar   
    25   21   16 ar   
    26   18   17 ar   
    27   25   17 1    
    28   19   18 ar   
    29   20   19 ar   
    30   21   20 ar   
    31   26   20 1    
    32   27   21 1    
@<TRIPOS>SUBSTRUCTURE
     1 LU2401      1 GROUP   
@<TRIPOS>SET

