#    Name: 2oc2_RX3_1_INTS_M
#    Modification time : Tue Mar 25 22:17:45 2014

@<TRIPOS>MOLECULE
2oc2_RX3_1_INTS_M
   87     0    12     0     0
SMALL
NO_CHARGES


@<TRIPOS>ATOM
      1 N          43.7955   36.3365   52.1355 N.am      1 SEC2        0.0000 
      2 N          43.0560   36.8970   51.1570 N.am      9 SEL2        0.0000 
      3 N          44.5350   35.7760   53.1140 N.am      5 SEP2        0.0000 
      4 CA         44.9305   38.4015   52.4280 C.3       4 GLC5        0.0000 
      5 CA         43.2880   39.6800   51.8350 C.3      12 GLL5        0.0000 
      6 CA         46.5730   37.1230   53.0210 C.3       8 GLP5        0.0000 
      7 CA         44.5325   40.4425   53.2565 C.3       4 GLC5        0.0000 
      8 CA         45.7770   41.2050   54.6780 C.3       8 GLP5        0.0000 
      9 CA         44.0400   43.3800   50.3365 C.3       4 GLC5        0.0000 
     10 CA         42.8590   42.0810   51.1760 C.3      12 GLL5        0.0000 
     11 CA         45.2210   44.6790   49.4970 C.3       8 GLP5        0.0000 
     12 Zn         42.8745   37.7335   46.8150 Zn        3 ZIC7        0.0000 
     13 Zn         42.0020   37.2800   46.8420 Zn       11 ZIL7        0.0000 
     14 Zn         43.7470   38.1870   46.7880 Zn        7 ZIP7        0.0000 
     15 N          40.7950   37.4445   46.3155 N.am      1 SEC2        0.0000 
     16 N          42.0020   37.2800   46.8420 N.am      9 SEL2        0.0000 
     17 N          39.5880   37.6090   45.7890 N.am      5 SEP2        0.0000 
     18 Zn         43.7345   37.2680   47.6085 Zn        3 ZIC7        0.0000 
     19 Zn         43.7220   36.3490   48.4290 Zn       11 ZIL7        0.0000 
     20 N          44.7335   35.4995   48.4015 N.am      1 SEC2        0.0000 
     21 N          43.7220   36.3490   48.4290 N.am      9 SEL2        0.0000 
     22 N          45.7450   34.6500   48.3740 N.am      5 SEP2        0.0000 
     23 CA         42.1075   35.2210   50.6435 C.3       4 GLC5        0.0000 
     24 CA         41.1440   36.3800   49.0670 C.3      12 GLL5        0.0000 
     25 CA         43.0710   34.0620   52.2200 C.3       8 GLP5        0.0000 
     26 CA         39.3975   33.6945   48.5175 C.3       4 GLC5        0.0000 
     27 CA         39.8850   35.5280   49.1810 C.3      12 GLL5        0.0000 
     28 CA         38.9100   31.8610   47.8540 C.3       8 GLP5        0.0000 
     29 CA         38.0385   34.3775   49.1830 C.3       4 GLC5        0.0000 
     30 CA         36.1920   33.2270   49.1850 C.3       8 GLP5        0.0000 
     31 N          39.6155   33.4325   45.9340 N.am      1 SEC2        0.0000 
     32 N          40.1570   34.6020   45.3170 N.am      9 SEL2        0.0000 
     33 N          39.0740   32.2630   46.5510 N.am      5 SEP2        0.0000 
     34 N          38.7700   35.0345   45.2770 N.am      1 SEC2        0.0000 
     35 N          37.3830   35.4670   45.2370 N.am      5 SEP2        0.0000 
     36 CA         41.7365   36.4080   44.6640 C.3       4 GLC5        0.0000 
     37 CA         42.5570   34.6710   45.4650 C.3      12 GLL5        0.0000 
     38 CA         40.9160   38.1450   43.8630 C.3       8 GLP5        0.0000 
     39 CA         40.7555   32.6070   47.7205 C.3       4 GLC5        0.0000 
     40 CA         42.6010   33.3530   47.5870 C.3      12 GLL5        0.0000 
     41 CA         40.5860   36.4540   43.1665 C.3       4 GLC5        0.0000 
     42 CA         40.2560   34.7630   42.4700 C.3      12 GLL5        0.0000 
     43 NZ         37.4910   32.5605   41.4335 N.4       2 LYC4        0.0000 
     44 NZ         38.4630   33.3360   41.7840 N.4      10 LYL4        0.0000 
     45 NZ         36.5190   31.7850   41.0830 N.4       6 LYP4        0.0000 
     46 N          38.8730   32.3290   40.5330 N.am      1 SEC2        0.0000 
     47 N          38.4630   33.3360   41.7840 N.am      9 SEL2        0.0000 
     48 N          39.2830   31.3220   39.2820 N.am      5 SEP2        0.0000 
     49 N          37.4910   32.5605   41.4335 N.am      1 SEC2        0.0000 
     50 N          36.5190   31.7850   41.0830 N.am      5 SEP2        0.0000 
     51 N          38.0300   34.1735   40.8685 N.am      1 SEC2        0.0000 
     52 N          37.5970   35.0110   39.9530 N.am      5 SEP2        0.0000 
     53 CA         40.4200   35.8995   39.5900 C.3       4 GLC5        0.0000 
     54 CA         40.8310   35.1960   41.1110 C.3      12 GLL5        0.0000 
     55 CA         40.0090   36.6030   38.0690 C.3       8 GLP5        0.0000 
     56 CA         40.9110   36.8960   41.8245 C.3       4 GLC5        0.0000 
     57 CA         40.9910   38.5960   42.5380 C.3       8 GLP5        0.0000 
     58 CA         46.1545   36.0100   43.2810 C.3       4 GLC5        0.0000 
     59 CA         45.4050   35.3830   41.6830 C.3      12 GLL5        0.0000 
     60 CA         46.9040   36.6370   44.8790 C.3       8 GLP5        0.0000 
     61 CA         48.1115   33.6910   40.4945 C.3       4 GLC5        0.0000 
     62 CA         46.1080   34.3930   40.9930 C.3      12 GLL5        0.0000 
     63 CA         50.1150   32.9890   39.9960 C.3       8 GLP5        0.0000 
     64 CA         44.6400   40.4642   50.6545 C.3       4 GLC5        0.0000 
     65 CA         46.2980   39.6900   49.7180 C.3       8 GLP5        0.0000 
     66 CA         43.7280   44.5315   51.3695 C.3       4 GLC5        0.0000 
     67 CA         42.5270   43.3980   51.5040 C.3      12 GLL5        0.0000 
     68 CA         45.0670   45.4870   50.5720 C.3       8 GLP5        0.0000 
     69 CA         40.5950   35.0083   51.3815 C.3       4 GLC5        0.0000 
     70 CA         38.9570   35.8690   50.3430 C.3      12 GLL5        0.0000 
     71 CA         41.7690   34.3180   53.0010 C.3       8 GLP5        0.0000 
     72 CA         36.7770   36.8392   50.0502 C.3       4 GLC5        0.0000 
     73 CA         34.8950   37.1780   49.6930 C.3       8 GLP5        0.0000 
     74 CA         40.0115   34.6788   52.4260 C.3       4 GLC5        0.0000 
     75 CA         37.8310   35.1820   52.3910 C.3      12 GLL5        0.0000 
     76 CA         36.2512   36.6190   50.9521 C.3       4 GLC5        0.0000 
     77 CA         45.0558   31.9057   45.8152 C.3       4 GLC5        0.0000 
     78 CA         43.3230   33.3780   45.2020 C.3      12 GLL5        0.0000 
     79 CA         46.8270   30.8590   45.7940 C.3       8 GLP5        0.0000 
     80 CA         43.5228   31.8255   48.3060 C.3       4 GLC5        0.0000 
     81 CA         43.2460   32.5270   46.4710 C.3      12 GLL5        0.0000 
     82 CA         44.1220   30.7110   49.5830 C.3       8 GLP5        0.0000 
     83 CA         44.2802   35.4724   45.9424 C.3       4 GLC5        0.0000 
     84 CA         42.4550   34.7110   46.9620 C.3      12 GLL5        0.0000 
     85 CA         45.8630   36.5770   45.7370 C.3       8 GLP5        0.0000 
     86 CA         38.6613   35.5057   41.0763 C.3       4 GLC5        0.0000 
     87 CA         36.7790   36.0320   40.3620 C.3       8 GLP5        0.0000 
@<TRIPOS>BOND
@<TRIPOS>SUBSTRUCTURE
     1 SEC2        1 GROUP        1 X    SEC  0     ROOT SEC X 2
     2 LYC4       43 GROUP        1 X    LYC  0     **** LYC X 4
     3 ZIC7       12 GROUP        1 X    ZIC  0     **** ZIC X 5
     4 GLC5        4 GROUP        1 X    GLC  0     **** GLC X 6
     5 SEP2        3 GROUP        1 Y    SEP  0     ROOT SEP Y 9
     6 LYP4       45 GROUP        1 Y    LYP  0     **** LYP Y 11
     7 ZIP7       14 GROUP        1 Y    ZIP  0     **** ZIP Y 12
     8 GLP5        6 GROUP        1 Y    GLP  0     **** GLP Y 13
     9 SEL2        2 GROUP        1 Z    SEL  0     ROOT SEL Z 16
    10 LYL4       44 GROUP        1 Z    LYL  0     **** LYL Z 18
    11 ZIL7       13 GROUP        1 Z    ZIL  0     **** ZIL Z 19
    12 GLL5        5 GROUP        1 Z    GLL  0     **** GLL Z 20
@<TRIPOS>SET

