#    Name: 2oc2_RX3_1_ligand
#    Modification time : Tue Mar 25 22:17:45 2014

@<TRIPOS>MOLECULE
2oc2_RX3_1_ligand
   78    82     1     0     0
SMALL
NO_CHARGES


@<TRIPOS>ATOM
      1 C1         42.1820   37.6730   50.8170 C.2       1 RX3680      0.0000 
      2 O2         43.0560   36.8970   51.1570 O.2       1 RX3680      0.0000 
      3 O1         42.1130   38.9410   51.5090 O.3       1 RX3680      0.0000 
      4 C2         43.2880   39.6800   51.8350 C.3       1 RX3680      0.0000 
      5 C3         42.9220   41.1120   52.1770 C.ar      1 RX3680      0.0000 
      6 C4         42.8590   42.0810   51.1760 C.ar      1 RX3680      0.0000 
      7 C6         42.5270   43.3980   51.5040 C.ar      1 RX3680      0.0000 
      8 C8         42.2510   43.7540   52.8300 C.ar      1 RX3680      0.0000 
      9 C7         42.3130   42.7880   53.8300 C.ar      1 RX3680      0.0000 
     10 C5         42.6460   41.4700   53.5030 C.ar      1 RX3680      0.0000 
     11 O3         42.0020   37.2800   46.8420 O.co2     1 RX3680      0.0000 
     12 P1         42.3530   36.1880   47.8360 P.3       1 RX3680      0.0000 
     13 O4         43.7220   36.3490   48.4290 O.co2     1 RX3680      0.0000 
     14 C9         41.1440   36.3800   49.0670 C.3       1 RX3680      0.0000 
     15 N1         41.2760   37.4440   49.8650 N.am      1 RX3680      0.0000 
     16 C10        39.8850   35.5280   49.1810 C.3       1 RX3680      0.0000 
     17 C11        38.9570   35.8690   50.3430 C.ar      1 RX3680      0.0000 
     18 C12        38.3610   37.1320   50.4720 C.ar      1 RX3680      0.0000 
     19 C14        37.5200   37.4270   51.5510 C.ar      1 RX3680      0.0000 
     20 C16        37.2480   36.4490   52.5120 C.ar      1 RX3680      0.0000 
     21 C15        37.8310   35.1820   52.3910 C.ar      1 RX3680      0.0000 
     22 C13        38.6770   34.8970   51.3110 C.ar      1 RX3680      0.0000 
     23 C19        41.2400   34.6760   44.7290 C.2       1 RX3680      0.0000 
     24 O5         40.1570   34.6020   45.3170 O.2       1 RX3680      0.0000 
     25 C18        42.5570   34.6710   45.4650 C.3       1 RX3680      0.0000 
     26 C20        43.3230   33.3780   45.2020 C.3       1 RX3680      0.0000 
     27 C21        43.2460   32.5270   46.4710 C.3       1 RX3680      0.0000 
     28 C22        42.6010   33.3530   47.5870 C.3       1 RX3680      0.0000 
     29 C17        42.4550   34.7110   46.9620 C.3       1 RX3680      0.0000 
     30 N2         41.3740   34.7650   43.4050 N.am      1 RX3680      0.0000 
     31 C23        40.2560   34.7630   42.4700 C.3       1 RX3680      0.0000 
     32 C24        39.5550   33.4210   42.3900 C.2       1 RX3680      0.0000 
     33 O6         38.4630   33.3360   41.7840 O.co2     1 RX3680      0.0000 
     34 C25        40.8310   35.1960   41.1110 C.3       1 RX3680      0.0000 
     35 C26        41.9690   34.3460   40.5830 C.2       1 RX3680      0.0000 
     36 C27        41.8570   33.2560   39.7270 C.2       1 RX3680      0.0000 
     37 C28        43.3300   34.5100   40.8240 C.ar      1 RX3680      0.0000 
     38 N3         43.0970   32.7650   39.4650 N.pl3     1 RX3680      0.0000 
     39 C29        44.0180   33.5140   40.1240 C.ar      1 RX3680      0.0000 
     40 C30        44.0110   35.4510   41.6050 C.ar      1 RX3680      0.0000 
     41 C31        45.4220   33.4540   40.2130 C.ar      1 RX3680      0.0000 
     42 C32        45.4050   35.3830   41.6830 C.ar      1 RX3680      0.0000 
     43 C33        46.1080   34.3930   40.9930 C.ar      1 RX3680      0.0000 
     44 OXT        40.0740   32.4240   42.9350 O.co2     1 RX3680      0.0000 
     45 H          43.9976   39.7029   50.9968 H         1 RX3680      0.0000 
     46 H          43.8110   39.2485   52.6993 H         1 RX3680      0.0000 
     47 H          43.0555   41.8289   50.2019 H         1 RX3680      0.0000 
     48 H          42.4845   44.1140   50.7654 H         1 RX3680      0.0000 
     49 H          42.0051   44.7215   53.0588 H         1 RX3680      0.0000 
     50 H          42.1156   43.0392   54.8043 H         1 RX3680      0.0000 
     51 H          42.6891   40.7551   54.2427 H         1 RX3680      0.0000 
     52 H          41.8836   35.5360   49.9115 H         1 RX3680      0.0000 
     53 H          40.5276   38.2481   49.7139 H         1 RX3680      0.0000 
     54 H          40.1826   34.4609   49.2644 H         1 RX3680      0.0000 
     55 H          39.3123   35.6088   48.2325 H         1 RX3680      0.0000 
     56 H          38.5465   37.8549   49.7587 H         1 RX3680      0.0000 
     57 H          37.1039   38.3603   51.6360 H         1 RX3680      0.0000 
     58 H          36.6281   36.6565   53.2977 H         1 RX3680      0.0000 
     59 H          37.6388   34.4602   53.0943 H         1 RX3680      0.0000 
     60 H          39.0982   33.9598   51.2286 H         1 RX3680      0.0000 
     61 H          43.1845   35.4819   45.1358 H         1 RX3680      0.0000 
     62 H          44.3516   33.6051   44.9846 H         1 RX3680      0.0000 
     63 H          42.8661   32.8468   44.3860 H         1 RX3680      0.0000 
     64 H          44.2428   32.2364   46.7701 H         1 RX3680      0.0000 
     65 H          42.6441   31.6502   46.2799 H         1 RX3680      0.0000 
     66 H          43.2574   33.3943   48.4183 H         1 RX3680      0.0000 
     67 H          41.6503   32.9466   47.8209 H         1 RX3680      0.0000 
     68 H          41.0512   34.6057   46.9170 H         1 RX3680      0.0000 
     69 H          42.3280   34.8437   42.9576 H         1 RX3680      0.0000 
     70 H          39.5365   35.5260   42.7641 H         1 RX3680      0.0000 
     71 H          41.1716   36.2486   41.1963 H         1 RX3680      0.0000 
     72 H          40.0057   35.2014   40.3694 H         1 RX3680      0.0000 
     73 H          41.0258   32.9171   39.3846 H         1 RX3680      0.0000 
     74 H          43.2910   32.0053   38.9006 H         1 RX3680      0.0000 
     75 H          43.4987   36.1728   42.1077 H         1 RX3680      0.0000 
     76 H          45.9344   32.7277   39.7097 H         1 RX3680      0.0000 
     77 H          45.9179   36.0696   42.2548 H         1 RX3680      0.0000 
     78 H          47.1327   34.3521   41.0569 H         1 RX3680      0.0000 
@<TRIPOS>BOND
     1    2    1 2    
     2    3    1 1    
     3   15    1 am   
     4    4    3 1    
     5    5    4 1    
     6   45    4 1    
     7   46    4 1    
     8    6    5 ar   
     9   10    5 ar   
    10    7    6 ar   
    11   47    6 1    
    12    8    7 ar   
    13   48    7 1    
    14    9    8 ar   
    15   49    8 1    
    16   10    9 ar   
    17   50    9 1    
    18   51   10 1    
    19   12   11 ar   
    20   13   12 ar   
    21   14   12 1    
    22   29   12 1    
    23   15   14 1    
    24   16   14 1    
    25   52   14 1    
    26   53   15 1    
    27   17   16 1    
    28   54   16 1    
    29   55   16 1    
    30   18   17 ar   
    31   22   17 ar   
    32   19   18 ar   
    33   56   18 1    
    34   20   19 ar   
    35   57   19 1    
    36   21   20 ar   
    37   58   20 1    
    38   22   21 ar   
    39   59   21 1    
    40   60   22 1    
    41   24   23 2    
    42   25   23 1    
    43   30   23 am   
    44   26   25 1    
    45   29   25 1    
    46   61   25 1    
    47   27   26 1    
    48   62   26 1    
    49   63   26 1    
    50   28   27 1    
    51   64   27 1    
    52   65   27 1    
    53   29   28 1    
    54   66   28 1    
    55   67   28 1    
    56   68   29 1    
    57   31   30 1    
    58   69   30 1    
    59   32   31 1    
    60   34   31 1    
    61   70   31 1    
    62   33   32 ar   
    63   44   32 ar   
    64   35   34 1    
    65   71   34 1    
    66   72   34 1    
    67   36   35 2    
    68   37   35 1    
    69   38   36 1    
    70   73   36 1    
    71   39   37 ar   
    72   40   37 ar   
    73   39   38 1    
    74   74   38 1    
    75   41   39 ar   
    76   42   40 ar   
    77   75   40 1    
    78   43   41 ar   
    79   76   41 1    
    80   43   42 ar   
    81   77   42 1    
    82   78   43 1    
@<TRIPOS>SUBSTRUCTURE
     1 RX3680      1 GROUP   
@<TRIPOS>SET

