#    Name: 1gzu_NMN_2_INTS_M
#    Modification time : Tue Mar 25 04:17:14 2014

@<TRIPOS>MOLECULE
1gzu_NMN_2_INTS_M
   37     0    12     0     0
SMALL
NO_CHARGES


@<TRIPOS>ATOM
      1 NZ         18.1670   70.6310   43.6815 N.4       3 LYC4        0.0000 
      2 NZ         19.6300   71.5970   43.5640 N.4      11 LYL4        0.0000 
      3 NZ         16.7040   69.6650   43.7990 N.4       7 LYP4        0.0000 
      4 N          21.1420   71.1265   43.5780 N.am      2 SEC2        0.0000 
      5 N          19.6300   71.5970   43.5640 N.am     10 SEL2        0.0000 
      6 N          22.6540   70.6560   43.5920 N.am      6 SEP2        0.0000 
      7 NZ         17.3445   71.4705   43.3790 N.4       3 LYC4        0.0000 
      8 NZ         17.9850   73.2760   42.9590 N.4      11 LYL4        0.0000 
      9 CA         20.3260   74.2260   47.0910 C.3       4 GLC5        0.0000 
     10 CA         21.8250   74.8400   45.7150 C.3      12 GLL5        0.0000 
     11 CA         18.8270   73.6120   48.4670 C.3       8 GLP5        0.0000 
     12 CA         20.6105   74.8905   48.1480 C.3       4 GLC5        0.0000 
     13 CA         21.7230   75.6440   46.7450 C.3      12 GLL5        0.0000 
     14 CA         19.4980   74.1370   49.5510 C.3       8 GLP5        0.0000 
     15 N          22.3990   75.4385   49.3760 N.am      2 SEC2        0.0000 
     16 N          22.1660   75.3780   47.8560 N.am     10 SEL2        0.0000 
     17 N          22.6320   75.4990   50.8960 N.am      6 SEP2        0.0000 
     18 CA         20.8140   77.4795   44.3905 C.3       4 GLC5        0.0000 
     19 CA         21.5060   76.8710   46.3100 C.3      12 GLL5        0.0000 
     20 CA         20.1220   78.0880   42.4710 C.3       8 GLP5        0.0000 
     21 CA         22.7905   79.5665   47.0515 C.3       4 GLC5        0.0000 
     22 CA         21.1070   78.7140   47.5680 C.3      12 GLL5        0.0000 
     23 CA         24.4740   80.4190   46.5350 C.3       8 GLP5        0.0000 
     24 N          23.2665   80.6255   48.9095 N.am      2 SEC2        0.0000 
     25 N          21.9490   81.0080   48.8600 N.am     10 SEL2        0.0000 
     26 N          24.5840   80.2430   48.9590 N.am      6 SEP2        0.0000 
     27 O          18.2580   81.2580   49.8055 O.2       1 ALC1        0.0000 
     28 O          19.8610   81.4080   49.6180 O.2       9 ALL1        0.0000 
     29 O          16.6550   81.1080   49.9930 O.2       5 ALP1        0.0000 
     30 CA         20.7082   76.7005   43.2750 C.3       4 GLC5        0.0000 
     31 CA         20.9200   75.0450   43.5100 C.3      12 GLL5        0.0000 
     32 CA         22.6844   73.8197   43.7820 C.3       4 GLC5        0.0000 
     33 CA         21.6690   75.5810   44.6480 C.3      12 GLL5        0.0000 
     34 CA         23.8090   72.5630   42.6670 C.3       8 GLP5        0.0000 
     35 CA         16.9172   78.3758   48.6205 C.3       4 GLC5        0.0000 
     36 CA         18.4450   78.0130   47.7610 C.3      12 GLL5        0.0000 
     37 CA         15.1620   78.1610   49.1630 C.3       8 GLP5        0.0000 
@<TRIPOS>BOND
@<TRIPOS>SUBSTRUCTURE
     1 ALC1       27 GROUP        1 X    ALC  0     ROOT ALC X 1
     2 SEC2        4 GROUP        1 X    SEC  0     **** SEC X 2
     3 LYC4        1 GROUP        1 X    LYC  0     **** LYC X 4
     4 GLC5        9 GROUP        1 X    GLC  0     **** GLC X 6
     5 ALP1       29 GROUP        1 Y    ALP  0     ROOT ALP Y 8
     6 SEP2        6 GROUP        1 Y    SEP  0     **** SEP Y 9
     7 LYP4        3 GROUP        1 Y    LYP  0     **** LYP Y 11
     8 GLP5       11 GROUP        1 Y    GLP  0     **** GLP Y 13
     9 ALL1       28 GROUP        1 Z    ALL  0     ROOT ALL Z 15
    10 SEL2        5 GROUP        1 Z    SEL  0     **** SEL Z 16
    11 LYL4        2 GROUP        1 Z    LYL  0     **** LYL Z 18
    12 GLL5       10 GROUP        1 Z    GLL  0     **** GLL Z 20
@<TRIPOS>SET

