#    Name: 1gzu_NMN_2_ligand
#    Modification time : Tue Mar 25 04:17:14 2014

@<TRIPOS>MOLECULE
1gzu_NMN_2_ligand
   36    37     1     0     0
SMALL
NO_CHARGES


@<TRIPOS>ATOM
      1 O3P        19.6300   71.5970   43.5640 O.co2     1 NMN501      0.0000 
      2 P          19.4800   72.9880   43.0350 P.3       1 NMN501      0.0000 
      3 O1P        20.3620   73.1040   41.8100 O.co2     1 NMN501      0.0000 
      4 O2P        17.9850   73.2760   42.9590 O.co2     1 NMN501      0.0000 
      5 O5R        20.1170   74.0330   44.0770 O.3       1 NMN501      0.0000 
      6 C5R        20.9200   75.0450   43.5100 C.3       1 NMN501      0.0000 
      7 C4R        21.6690   75.5810   44.6480 C.3       1 NMN501      0.0000 
      8 O4R        21.8090   76.9860   44.9120 O.3       1 NMN501      0.0000 
      9 C3R        21.8250   74.8400   45.7150 C.3       1 NMN501      0.0000 
     10 O3R        22.5490   73.8800   45.7280 O.3       1 NMN501      0.0000 
     11 C2R        21.7230   75.6440   46.7450 C.3       1 NMN501      0.0000 
     12 O2R        22.1660   75.3780   47.8560 O.3       1 NMN501      0.0000 
     13 C1R        21.5060   76.8710   46.3100 C.3       1 NMN501      0.0000 
     14 N1         20.6390   77.6260   46.9650 N.pl3     1 NMN501      0.0000 
     15 C2         21.1070   78.7140   47.5680 C.ar      1 NMN501      0.0000 
     16 C3         20.2440   79.5000   48.2890 C.ar      1 NMN501      0.0000 
     17 C7         20.7600   80.7050   48.9540 C.2       1 NMN501      0.0000 
     18 O7         21.9490   81.0080   48.8600 O.2       1 NMN501      0.0000 
     19 N7         19.8610   81.4080   49.6180 N.am      1 NMN501      0.0000 
     20 C4         18.9000   79.1680   48.3950 C.ar      1 NMN501      0.0000 
     21 C5         18.4450   78.0130   47.7610 C.ar      1 NMN501      0.0000 
     22 C6         19.3550   77.2410   47.0470 C.ar      1 NMN501      0.0000 
     23 H          20.3225   75.8306   43.0665 H         1 NMN501      0.0000 
     24 H          21.6093   74.6473   42.7769 H         1 NMN501      0.0000 
     25 H          22.8741   75.4102   44.1368 H         1 NMN501      0.0000 
     26 H          20.6526   74.3321   45.7615 H         1 NMN501      0.0000 
     27 H          20.4266   75.3753   46.9684 H         1 NMN501      0.0000 
     28 H          22.6260   77.3965   46.7408 H         1 NMN501      0.0000 
     29 H          22.1054   78.9817   47.5065 H         1 NMN501      0.0000 
     30 H          18.9307   81.0411   49.6219 H         1 NMN501      0.0000 
     31 H          20.1921   82.2434   50.0567 H         1 NMN501      0.0000 
     32 H          18.2576   79.7548   48.9247 H         1 NMN501      0.0000 
     33 H          17.4653   77.7412   47.8204 H         1 NMN501      0.0000 
     34 H          19.0221   76.3750   46.5873 H         1 NMN501      0.0000 
     35 H          23.4479   74.2303   45.4648 H         1 NMN501      0.0000 
     36 H          23.1273   75.1489   47.7031 H         1 NMN501      0.0000 
@<TRIPOS>BOND
     1    2    1 ar   
     2    3    2 ar   
     3    4    2 ar   
     4    5    2 1    
     5    6    5 1    
     6    7    6 1    
     7   23    6 1    
     8   24    6 1    
     9    8    7 1    
    10    9    7 1    
    11   25    7 1    
    12   13    8 1    
    13   10    9 1    
    14   11    9 1    
    15   26    9 1    
    16   35   10 1    
    17   12   11 1    
    18   13   11 1    
    19   27   11 1    
    20   36   12 1    
    21   14   13 1    
    22   28   13 1    
    23   15   14 ar   
    24   22   14 ar   
    25   16   15 ar   
    26   29   15 1    
    27   17   16 1    
    28   20   16 ar   
    29   18   17 2    
    30   19   17 am   
    31   30   19 1    
    32   31   19 1    
    33   21   20 ar   
    34   32   20 1    
    35   22   21 ar   
    36   33   21 1    
    37   34   22 1    
@<TRIPOS>SUBSTRUCTURE
     1 NMN501      1 GROUP   
@<TRIPOS>SET

