#    Name: 4DWB_2_CAVITY_N1_6.mol2
#    Modification time : Mon Mar 10 15:16:08 2014

@<TRIPOS>MOLECULE
4DWB_2_CAVITY_N1_6.mol2
   74     0     7     0     0
SMALL
NO_CHARGES


@<TRIPOS>ATOM
      1 N          12.1707   17.5197  178.1888 N.2       2 ALA2        0.0000 
      2 OD1        12.3998   18.2374  176.8918 O.3       3 ASP3        0.0000 
      3 NZ         12.6289   18.9551  175.5947 N.2       4 LYS4        0.0000 
      4 NZ         11.9133   16.2464  177.4388 N.2       4 LYS4        0.0000 
      5 NZ         12.1424   16.9641  176.1418 N.2       4 LYS4        0.0000 
      6 NZ         12.3715   17.6818  174.8447 N.2       4 LYS4        0.0000 
      7 NZ         11.6558   14.9731  176.6888 N.2       4 LYS4        0.0000 
      8 O          11.8849   15.6909  175.3917 O.2       2 ALA2        0.0000 
      9 NZ         12.1140   16.4086  174.0947 N.2       4 LYS4        0.0000 
     10 CA         11.1974   19.8478  177.5705 C.3       6 GLY6        0.0000 
     11 N          11.4265   20.5655  176.2734 N.2       2 ALA2        0.0000 
     12 N          10.7108   17.8569  178.1175 N.2       2 ALA2        0.0000 
     13 OG         10.9399   18.5746  176.8205 O.2       1 SER1        0.0000 
     14 N          11.1690   19.2923  175.5234 N.2       2 ALA2        0.0000 
     15 N          11.3981   20.0100  174.2263 N.2       2 ALA2        0.0000 
     16 NZ         10.2243   15.8659  178.6646 N.2       4 LYS4        0.0000 
     17 N          10.4534   16.5836  177.3675 N.2       2 ALA2        0.0000 
     18 DU         10.6825   17.3013  176.0705 H         7 CUB7        0.0000 
     19 CA         10.9116   18.0190  174.7734 C.3       6 GLY6        0.0000 
     20 CA         11.1407   18.7367  173.4763 C.3       6 GLY6        0.0000 
     21 NZ          9.9669   14.5926  177.9146 N.2       4 LYS4        0.0000 
     22 DU         10.1960   15.3103  176.6175 H         7 CUB7        0.0000 
     23 CA         10.4251   16.0280  175.3205 C.3       6 GLY6        0.0000 
     24 OD1         9.7094   13.3193  177.1646 O.3       3 ASP3        0.0000 
     25 O           9.9385   14.0370  175.8675 O.2       2 ALA2        0.0000 
     26 O          10.1676   14.7547  174.5705 O.2       2 ALA2        0.0000 
     27 NZ          8.9938   10.6107  179.0088 N.2       4 LYS4        0.0000 
     28 OD1         8.7363    9.3374  178.2588 O.3       3 ASP3        0.0000 
     29 OD1         8.9654   10.0551  176.9617 O.3       3 ASP3        0.0000 
     30 OD1         9.1945   10.7728  175.6646 O.3       3 ASP3        0.0000 
     31 CA          8.7080    8.7818  176.2117 C.3       6 GLY6        0.0000 
     32 CA          8.9371    9.4995  174.9146 C.3       6 GLY6        0.0000 
     33 O           9.1662   10.2172  173.6175 O.2       2 ALA2        0.0000 
     34 OG          9.2510   18.1940  178.0462 O.2       1 SER1        0.0000 
     35 OG          9.4801   18.9117  176.7492 O.2       1 SER1        0.0000 
     36 N           9.7092   19.6294  175.4521 N.2       2 ALA2        0.0000 
     37 CZ          9.9383   20.3471  174.1550 C.ar      5 PHE5        0.0000 
     38 N           8.7644   16.2030  178.5933 N.2       2 ALA2        0.0000 
     39 OG          8.9935   16.9208  177.2962 O.2       1 SER1        0.0000 
     40 OG          9.2226   17.6385  175.9992 O.2       1 SER1        0.0000 
     41 OG          9.4517   18.3562  174.7021 O.2       1 SER1        0.0000 
     42 CA          9.6808   19.0739  173.4050 C.3       6 GLY6        0.0000 
     43 NZ          8.2779   14.2121  179.1404 N.2       4 LYS4        0.0000 
     44 CZ          8.5070   14.9298  177.8433 C.ar      5 PHE5        0.0000 
     45 OG          8.7361   15.6475  176.5462 O.2       1 SER1        0.0000 
     46 OG          8.9652   16.3652  175.2492 O.2       1 SER1        0.0000 
     47 NZ          8.0204   12.9388  178.3904 N.2       4 LYS4        0.0000 
     48 OD1         8.2495   13.6565  177.0933 O.3       3 ASP3        0.0000 
     49 O           8.4786   14.3742  175.7962 O.2       2 ALA2        0.0000 
     50 CA          8.7077   15.0919  174.4992 C.3       6 GLY6        0.0000 
     51 O           7.5339   10.9478  178.9375 O.2       2 ALA2        0.0000 
     52 OD1         7.7630   11.6655  177.6404 O.3       3 ASP3        0.0000 
     53 OD1         7.9921   12.3832  176.3433 O.3       3 ASP3        0.0000 
     54 O           8.2212   13.1009  175.0462 O.2       2 ALA2        0.0000 
     55 OD1         7.5056   10.3923  176.8904 O.3       3 ASP3        0.0000 
     56 DU          7.7347   11.1100  175.5933 H         7 CUB7        0.0000 
     57 O           7.9638   11.8277  174.2962 O.2       2 ALA2        0.0000 
     58 CA          8.1929   12.5454  172.9992 C.3       6 GLY6        0.0000 
     59 DU          7.4772    9.8367  174.8433 H         7 CUB7        0.0000 
     60 CA          7.7063   10.5544  173.5462 C.3       6 GLY6        0.0000 
     61 O           7.9354   11.2721  172.2491 O.2       2 ALA2        0.0000 
     62 CZ          7.3045   16.5402  178.5220 C.ar      5 PHE5        0.0000 
     63 OG          7.5336   17.2579  177.2249 O.2       1 SER1        0.0000 
     64 CZ          7.0471   15.2669  177.7720 C.ar      5 PHE5        0.0000 
     65 OG          7.2762   15.9846  176.4749 O.2       1 SER1        0.0000 
     66 CZ          6.5606   13.2760  178.3191 C.ar      5 PHE5        0.0000 
     67 O           6.7897   13.9937  177.0220 O.2       2 ALA2        0.0000 
     68 O           7.0188   14.7114  175.7249 O.2       2 ALA2        0.0000 
     69 CZ          6.3031   12.0027  177.5691 C.ar      5 PHE5        0.0000 
     70 O           6.5322   12.7204  176.2720 O.2       2 ALA2        0.0000 
     71 O           6.7613   13.4381  174.9749 O.2       2 ALA2        0.0000 
     72 DU          6.2748   11.4471  175.5220 H         7 CUB7        0.0000 
     73 O           6.5039   12.1648  174.2249 O.2       2 ALA2        0.0000 
     74 CA          6.7330   12.8825  172.9279 C.3       6 GLY6        0.0000 
@<TRIPOS>BOND
@<TRIPOS>SUBSTRUCTURE
     1 SER1       13 GROUP   
     2 ALA2        1 GROUP   
     3 ASP3        2 GROUP   
     4 LYS4        3 GROUP   
     5 PHE5       37 GROUP   
     6 GLY6       10 GROUP   
     7 CUB7       18 GROUP   
@<TRIPOS>SET

