#    Name: 4dwb_0M7_2_INTS_M
#    Modification time : Tue Mar 25 10:17:19 2014

@<TRIPOS>MOLECULE
4dwb_0M7_2_INTS_M
   57     0    12     0     0
SMALL
NO_CHARGES


@<TRIPOS>ATOM
      1 NZ         12.2305   12.3310  177.5870 N.4       2 LYC4        0.0000 
      2 NZ         13.1500   13.2480  177.6410 N.4      10 LYL4        0.0000 
      3 NZ         11.3110   11.4140  177.5330 N.4       6 LYP4        0.0000 
      4 Zn         13.4660   13.5330  178.6030 Zn        3 ZIC7        0.0000 
      5 Zn         13.1500   13.2480  177.6410 Zn       11 ZIL7        0.0000 
      6 Zn         13.7820   13.8180  179.5650 Zn        7 ZIP7        0.0000 
      7 N          12.2305   12.3310  177.5870 N.am      1 SEC2        0.0000 
      8 N          13.1500   13.2480  177.6410 N.am      9 SEL2        0.0000 
      9 N          11.3110   11.4140  177.5330 N.am      5 SEP2        0.0000 
     10 NZ         13.4745   13.9425  174.2740 N.4       2 LYC4        0.0000 
     11 NZ         13.9690   14.3150  175.4870 N.4      10 LYL4        0.0000 
     12 NZ         11.9510   12.8440  172.5970 N.4       6 LYP4        0.0000 
     13 Zn         14.7455   15.0105  175.4665 Zn        3 ZIC7        0.0000 
     14 Zn         13.9690   14.3150  175.4870 Zn       11 ZIL7        0.0000 
     15 Zn         15.5220   15.7060  175.4460 Zn        7 ZIP7        0.0000 
     16 N          13.4745   13.9425  174.2740 N.am      1 SEC2        0.0000 
     17 N          13.9690   14.3150  175.4870 N.am      9 SEL2        0.0000 
     18 N          12.9800   13.5700  173.0610 N.am      5 SEP2        0.0000 
     19 NZ         11.2250   13.1190  174.6125 N.4       2 LYC4        0.0000 
     20 NZ         11.5200   13.6490  175.8060 N.4      10 LYL4        0.0000 
     21 NZ         11.4155   12.5315  176.6695 N.4       2 LYC4        0.0000 
     22 N          11.2250   13.1190  174.6125 N.am      1 SEC2        0.0000 
     23 N          11.5200   13.6490  175.8060 N.am      9 SEL2        0.0000 
     24 N          10.9300   12.5890  173.4190 N.am      5 SEP2        0.0000 
     25 N          12.2500   13.6095  174.4335 N.am      1 SEC2        0.0000 
     26 N          11.4155   12.5315  176.6695 N.am      1 SEC2        0.0000 
     27 Zn         13.9015   14.6840  179.3115 Zn        3 ZIC7        0.0000 
     28 Zn         14.0210   15.5500  179.0580 Zn       11 ZIL7        0.0000 
     29 Zn         15.2850   17.7480  176.4270 Zn        3 ZIC7        0.0000 
     30 Zn         14.7090   16.7620  176.9020 Zn       11 ZIL7        0.0000 
     31 Zn         15.8610   18.7340  175.9520 Zn        7 ZIP7        0.0000 
     32 Zn         15.1155   16.2340  176.1740 Zn        3 ZIC7        0.0000 
     33 N          15.9890   17.5840  177.4930 N.am      1 SEC2        0.0000 
     34 N          14.7090   16.7620  176.9020 N.am      9 SEL2        0.0000 
     35 N          17.2690   18.4060  178.0840 N.am      5 SEP2        0.0000 
     36 NZ         13.6505   18.7555  179.4405 N.4       2 LYC4        0.0000 
     37 NZ         13.1300   17.8490  178.4860 N.4      10 LYL4        0.0000 
     38 NZ         14.1710   19.6620  180.3950 N.4       6 LYP4        0.0000 
     39 N          13.6505   18.7555  179.4405 N.am      1 SEC2        0.0000 
     40 N          13.1300   17.8490  178.4860 N.am      9 SEL2        0.0000 
     41 N          14.1710   19.6620  180.3950 N.am      5 SEP2        0.0000 
     42 CA         10.7795   16.3375  173.9930 C.3       4 GLC5        0.0000 
     43 CA         11.9670   16.5080  175.8390 C.3      12 GLL5        0.0000 
     44 CA          9.5920   16.1670  172.1470 C.3       8 GLP5        0.0000 
     45 CA          9.9395   17.2155  173.6935 C.3       4 GLC5        0.0000 
     46 CA         10.2870   18.2640  175.2400 C.3      12 GLL5        0.0000 
     47 CA          8.3795   19.3770  175.3700 C.3       4 GLC5        0.0000 
     48 CA          6.4720   20.4900  175.5000 C.3       8 GLP5        0.0000 
     49 CA         12.7510   19.2320  172.6890 C.3       4 GLC5        0.0000 
     50 CA         11.2510   20.0400  173.7650 C.3      12 GLL5        0.0000 
     51 CA         14.2510   18.4240  171.6130 C.3       8 GLP5        0.0000 
     52 CA          9.0777   22.7330  173.7467 C.3       4 GLC5        0.0000 
     53 CA          8.9970   20.9520  173.3720 C.3      12 GLL5        0.0000 
     54 CA          8.4530   24.3480  173.8830 C.3       8 GLP5        0.0000 
     55 CA          8.0873   20.8040  174.5553 C.3       4 GLC5        0.0000 
     56 CA          9.7266   21.0260  172.0192 C.3       4 GLC5        0.0000 
     57 CA          9.5400   21.2450  170.4490 C.3       8 GLP5        0.0000 
@<TRIPOS>BOND
@<TRIPOS>SUBSTRUCTURE
     1 SEC2        7 GROUP        1 X    SEC  0     ROOT SEC X 2
     2 LYC4        1 GROUP        1 X    LYC  0     **** LYC X 4
     3 ZIC7        4 GROUP        1 X    ZIC  0     **** ZIC X 5
     4 GLC5       42 GROUP        1 X    GLC  0     **** GLC X 6
     5 SEP2        9 GROUP        1 Y    SEP  0     ROOT SEP Y 9
     6 LYP4        3 GROUP        1 Y    LYP  0     **** LYP Y 11
     7 ZIP7        6 GROUP        1 Y    ZIP  0     **** ZIP Y 12
     8 GLP5       44 GROUP        1 Y    GLP  0     **** GLP Y 13
     9 SEL2        8 GROUP        1 Z    SEL  0     ROOT SEL Z 16
    10 LYL4        2 GROUP        1 Z    LYL  0     **** LYL Z 18
    11 ZIL7        5 GROUP        1 Z    ZIL  0     **** ZIL Z 19
    12 GLL5       43 GROUP        1 Z    GLL  0     **** GLL Z 20
@<TRIPOS>SET

