#    Name: 4dwb_0M7_2_ligand
#    Modification time : Tue Mar 25 10:17:19 2014

@<TRIPOS>MOLECULE
4dwb_0M7_2_ligand
   30    29     1     0     0
SMALL
NO_CHARGES


@<TRIPOS>ATOM
      1 O11        13.1500   13.2480  177.6410 O.co2     1 0M7509      0.0000 
      2 P3         12.8000   14.0940  176.4560 P.3       1 0M7509      0.0000 
      3 O13        13.9690   14.3150  175.4870 O.co2     1 0M7509      0.0000 
      4 O12        11.5200   13.6490  175.8060 O.co2     1 0M7509      0.0000 
      5 C2         12.3270   15.7180  177.0850 C.3       1 0M7509      0.0000 
      6 P1         13.6660   16.5560  177.9900 P.3       1 0M7509      0.0000 
      7 O15        14.0210   15.5500  179.0580 O.co2     1 0M7509      0.0000 
      8 O14        14.7090   16.7620  176.9020 O.co2     1 0M7509      0.0000 
      9 O16        13.1300   17.8490  178.4860 O.co2     1 0M7509      0.0000 
     10 C4         11.9670   16.5080  175.8390 C.3       1 0M7509      0.0000 
     11 N5         10.7570   17.2520  176.1600 N.4       1 0M7509      0.0000 
     12 C6         10.2870   18.2640  175.2400 C.3       1 0M7509      0.0000 
     13 C7         11.3190   19.3850  175.1320 C.3       1 0M7509      0.0000 
     14 C8         11.2510   20.0400  173.7650 C.3       1 0M7509      0.0000 
     15 C9         10.4080   21.2840  173.8490 C.3       1 0M7509      0.0000 
     16 C10         8.9970   20.9520  173.3720 C.3       1 0M7509      0.0000 
     17 H          11.5585   15.5675  177.7307 H         1 0M7509      0.0000 
     18 H          11.7983   15.8169  175.0266 H         1 0M7509      0.0000 
     19 H          12.7843   17.1725  175.6012 H         1 0M7509      0.0000 
     20 H           9.3439   18.7029  175.5791 H         1 0M7509      0.0000 
     21 H          10.1300   17.8501  174.2394 H         1 0M7509      0.0000 
     22 H          12.3135   18.9708  175.2882 H         1 0M7509      0.0000 
     23 H          11.1204   20.1282  175.9021 H         1 0M7509      0.0000 
     24 H          10.8112   19.3449  173.0554 H         1 0M7509      0.0000 
     25 H          12.2551   20.2974  173.4400 H         1 0M7509      0.0000 
     26 H          10.8244   22.0567  173.2153 H         1 0M7509      0.0000 
     27 H          10.3638   21.6326  174.8730 H         1 0M7509      0.0000 
     28 H           8.9913   20.6286  172.4258 H         1 0M7509      0.0000 
     29 H           8.5755   20.2363  173.9289 H         1 0M7509      0.0000 
     30 H           8.3940   21.7487  173.4131 H         1 0M7509      0.0000 
@<TRIPOS>BOND
     1    2    1 ar   
     2    3    2 ar   
     3    4    2 ar   
     4    5    2 1    
     5    6    5 1    
     6   10    5 1    
     7   17    5 1    
     8    7    6 ar   
     9    8    6 ar   
    10    9    6 ar   
    11   11   10 1    
    12   18   10 1    
    13   19   10 1    
    14   12   11 1    
    15   13   12 1    
    16   20   12 1    
    17   21   12 1    
    18   14   13 1    
    19   22   13 1    
    20   23   13 1    
    21   15   14 1    
    22   24   14 1    
    23   25   14 1    
    24   16   15 1    
    25   26   15 1    
    26   27   15 1    
    27   28   16 1    
    28   29   16 1    
    29   30   16 1    
@<TRIPOS>SUBSTRUCTURE
     1 0M7509      1 GROUP   
@<TRIPOS>SET

