#    Name: 2ych_ATP_2_INTS_M
#    Modification time : Tue Mar 25 08:40:58 2014

@<TRIPOS>MOLECULE
2ych_ATP_2_INTS_M
   84     0    15     0     0
SMALL
NO_CHARGES


@<TRIPOS>ATOM
      1 N          17.1475    5.1140   23.7255 N.am      2 SEC2        0.0000 
      2 N          15.9450    5.9450   23.7070 N.am     12 SEL2        0.0000 
      3 N          18.3500    4.2830   23.7440 N.am      7 SEP2        0.0000 
      4 N          17.2255    6.3335   24.0655 N.am      2 SEC2        0.0000 
      5 N          18.5060    6.7220   24.4240 N.am      7 SEP2        0.0000 
      6 NZ         13.1885    6.7405   22.0020 N.4       3 LYC4        0.0000 
      7 NZ         14.7070    6.8620   21.7860 N.4      13 LYL4        0.0000 
      8 NZ         11.6700    6.6190   22.2180 N.4       8 LYP4        0.0000 
      9 N          15.2150    7.1890   20.5190 N.am      2 SEC2        0.0000 
     10 N          14.7070    6.8620   21.7860 N.am     12 SEL2        0.0000 
     11 N          15.7230    7.5160   19.2520 N.am      7 SEP2        0.0000 
     12 NZ         12.7735    5.6930   22.5495 N.4       3 LYC4        0.0000 
     13 NZ         13.8770    4.7670   22.8810 N.4      13 LYL4        0.0000 
     14 Zn         13.4200    3.8685   22.5635 Zn        4 ZIC7        0.0000 
     15 Zn         13.8770    4.7670   22.8810 Zn       14 ZIL7        0.0000 
     16 Zn         12.9630    2.9700   22.2460 Zn        9 ZIP7        0.0000 
     17 N          12.7735    5.6930   22.5495 N.am      2 SEC2        0.0000 
     18 N          13.8770    4.7670   22.8810 N.am     12 SEL2        0.0000 
     19 N          11.6700    6.6190   22.2180 N.am      7 SEP2        0.0000 
     20 NZ         15.0135    2.8080   18.8830 N.4       3 LYC4        0.0000 
     21 NZ         16.1710    4.3160   19.1940 N.4      13 LYL4        0.0000 
     22 NZ         13.8560    1.3000   18.5720 N.4       8 LYP4        0.0000 
     23 N          17.0740    5.3020   18.7165 N.am      2 SEC2        0.0000 
     24 N          16.1710    4.3160   19.1940 N.am     12 SEL2        0.0000 
     25 N          17.9770    6.2880   18.2390 N.am      7 SEP2        0.0000 
     26 N          16.6025    4.4650   17.6535 N.am      2 SEC2        0.0000 
     27 N          17.0340    4.6140   16.1130 N.am      7 SEP2        0.0000 
     28 NZ         14.0885    2.2635   19.5565 N.4       3 LYC4        0.0000 
     29 NZ         14.3210    3.2270   20.5410 N.4      13 LYL4        0.0000 
     30 Zn         13.6420    3.0985   21.3935 Zn        4 ZIC7        0.0000 
     31 Zn         14.3210    3.2270   20.5410 Zn       14 ZIL7        0.0000 
     32 N          14.0885    2.2635   19.5565 N.am      2 SEC2        0.0000 
     33 N          14.3210    3.2270   20.5410 N.am     12 SEL2        0.0000 
     34 N          13.8560    1.3000   18.5720 N.am      7 SEP2        0.0000 
     35 N          17.2355    4.5015   22.6865 N.am      2 SEC2        0.0000 
     36 N          16.1210    4.7200   21.6290 N.am     12 SEL2        0.0000 
     37 NZ         15.0775    1.1485   18.7585 N.4       3 LYC4        0.0000 
     38 NZ         16.2990    0.9970   18.9450 N.4      13 LYL4        0.0000 
     39 N          15.0775    1.1485   18.7585 N.am      2 SEC2        0.0000 
     40 N          16.2990    0.9970   18.9450 N.am     12 SEL2        0.0000 
     41 NZ         14.8810    0.6760   19.9705 N.4       3 LYC4        0.0000 
     42 NZ         15.9060    0.0520   21.3690 N.4      13 LYL4        0.0000 
     43 N          16.5010   -0.9030   22.0150 N.am      2 SEC2        0.0000 
     44 N          15.9060    0.0520   21.3690 N.am     12 SEL2        0.0000 
     45 N          17.0960   -1.8580   22.6610 N.am      7 SEP2        0.0000 
     46 CA         20.5050   -0.0875   23.0955 C.3       5 GLC5        0.0000 
     47 CA         20.3740    1.0690   21.1830 C.3      15 GLL5        0.0000 
     48 CA         20.6360   -1.2440   25.0080 C.3      10 GLP5        0.0000 
     49 N          23.6475    1.9425   22.1720 N.am      2 SEC2        0.0000 
     50 N          22.1250    2.4340   21.6120 N.am     12 SEL2        0.0000 
     51 N          25.1700    1.4510   22.7320 N.am      7 SEP2        0.0000 
     52 N          24.5305    1.2265   21.4985 N.am      2 SEC2        0.0000 
     53 N          23.8910    1.0020   20.2650 N.am     12 SEL2        0.0000 
     54 O          24.6040    0.8735   18.8295 O.2       1 ALC1        0.0000 
     55 O          23.8910    1.0020   20.2650 O.2      11 ALL1        0.0000 
     56 O          25.3170    0.7450   17.3940 O.2       6 ALP1        0.0000 
     57 CA         20.2900   -1.3815   21.7095 C.3       5 GLC5        0.0000 
     58 CA         22.2100   -0.3620   21.3100 C.3      15 GLL5        0.0000 
     59 CA         18.3700   -2.4010   22.1090 C.3      10 GLP5        0.0000 
     60 CA         21.4230   -0.8030   23.1590 C.3       5 GLC5        0.0000 
     61 N          26.0950   -5.7010   22.2065 N.am      2 SEC2        0.0000 
     62 N          24.8590   -4.9000   21.7430 N.am     12 SEL2        0.0000 
     63 N          27.3310   -6.5020   22.6700 N.am      7 SEP2        0.0000 
     64 CA         26.5805   -2.3360   22.5990 C.3       5 GLC5        0.0000 
     65 CA         24.9870   -3.7460   22.4810 C.3      15 GLL5        0.0000 
     66 CA         28.1740   -0.9260   22.7170 C.3      10 GLP5        0.0000 
     67 CA         26.3860   -3.9965   20.7470 C.3       5 GLC5        0.0000 
     68 CA         27.7850   -4.2470   19.0130 C.3      10 GLP5        0.0000 
     69 CA         24.9445   -4.6895   23.8850 C.3       5 GLC5        0.0000 
     70 CA         24.9020   -5.6330   25.2890 C.3      10 GLP5        0.0000 
     71 CA         19.0787   -0.6397   21.3963 C.3       5 GLC5        0.0000 
     72 CA         20.0221    2.8709   19.4926 C.3       5 GLC5        0.0000 
     73 CA         19.3540    4.3330   18.3690 C.3      10 GLP5        0.0000 
     74 CA         20.1271    3.2699   21.1976 C.3       5 GLC5        0.0000 
     75 CA         19.2010    1.1740   20.1840 C.3      15 GLL5        0.0000 
     76 CA         19.5640    5.1310   21.7790 C.3      10 GLP5        0.0000 
     77 CA         24.3567    0.4277   21.4282 C.3       5 GLC5        0.0000 
     78 CA         22.5430    0.5890   20.2010 C.3      15 GLL5        0.0000 
     79 CA         26.3370    0.7420   22.1010 C.3      10 GLP5        0.0000 
     80 CA         22.2518   -5.5270   21.6442 C.3       5 GLC5        0.0000 
     81 CA         23.1210   -3.8140   20.5090 C.3      15 GLL5        0.0000 
     82 CA         20.9590   -6.6540   22.6540 C.3      10 GLP5        0.0000 
     83 CA         24.5366   -3.3200   19.4984 C.3       5 GLC5        0.0000 
     84 CA         25.6330   -3.1390   18.0260 C.3      10 GLP5        0.0000 
@<TRIPOS>BOND
@<TRIPOS>SUBSTRUCTURE
     1 ALC1       54 GROUP        1 X    ALC  0     ROOT ALC X 1
     2 SEC2        1 GROUP        1 X    SEC  0     **** SEC X 2
     3 LYC4        6 GROUP        1 X    LYC  0     **** LYC X 4
     4 ZIC7       14 GROUP        1 X    ZIC  0     **** ZIC X 5
     5 GLC5       46 GROUP        1 X    GLC  0     **** GLC X 6
     6 ALP1       56 GROUP        1 Y    ALP  0     ROOT ALP Y 8
     7 SEP2        3 GROUP        1 Y    SEP  0     **** SEP Y 9
     8 LYP4        8 GROUP        1 Y    LYP  0     **** LYP Y 11
     9 ZIP7       16 GROUP        1 Y    ZIP  0     **** ZIP Y 12
    10 GLP5       48 GROUP        1 Y    GLP  0     **** GLP Y 13
    11 ALL1       55 GROUP        1 Z    ALL  0     ROOT ALL Z 15
    12 SEL2        2 GROUP        1 Z    SEL  0     **** SEL Z 16
    13 LYL4        7 GROUP        1 Z    LYL  0     **** LYL Z 18
    14 ZIL7       15 GROUP        1 Z    ZIL  0     **** ZIL Z 19
    15 GLL5       47 GROUP        1 Z    GLL  0     **** GLL Z 20
@<TRIPOS>SET

