#    Name: 2ych_ATP_2_ligand
#    Modification time : Tue Mar 25 08:40:58 2014

@<TRIPOS>MOLECULE
2ych_ATP_2_ligand
   43    45     1     0     0
SMALL
NO_CHARGES


@<TRIPOS>ATOM
      1 PG         15.0390    5.6060   22.5330 P.3       1 ATP502      0.0000 
      2 O1G        15.9450    5.9450   23.7070 O.co2     1 ATP502      0.0000 
      3 O2G        14.7070    6.8620   21.7860 O.co2     1 ATP502      0.0000 
      4 O3G        13.8770    4.7670   22.8810 O.co2     1 ATP502      0.0000 
      5 PB         15.7620    3.6240   20.4700 P.3       1 ATP502      0.0000 
      6 O1B        16.1710    4.3160   19.1940 O.co2     1 ATP502      0.0000 
      7 O2B        14.3210    3.2270   20.5410 O.co2     1 ATP502      0.0000 
      8 O3B        16.1210    4.7200   21.6290 O.3       1 ATP502      0.0000 
      9 PA         16.6990    0.8940   20.4190 P.3       1 ATP502      0.0000 
     10 O1A        16.2990    0.9970   18.9450 O.co2     1 ATP502      0.0000 
     11 O2A        15.9060    0.0520   21.3690 O.co2     1 ATP502      0.0000 
     12 O3A        16.7720    2.4520   20.8520 O.3       1 ATP502      0.0000 
     13 O5'        18.1450    0.4290   20.7230 O.3       1 ATP502      0.0000 
     14 C5'        19.2010    1.1740   20.1840 C.3       1 ATP502      0.0000 
     15 C4'        20.3740    1.0690   21.1830 C.3       1 ATP502      0.0000 
     16 O4'        20.7730   -0.2540   21.5070 O.3       1 ATP502      0.0000 
     17 C3'        21.5930    1.6960   20.5490 C.3       1 ATP502      0.0000 
     18 O3'        22.1250    2.4340   21.6120 O.3       1 ATP502      0.0000 
     19 C2'        22.5430    0.5890   20.2010 C.3       1 ATP502      0.0000 
     20 O2'        23.8910    1.0020   20.2650 O.3       1 ATP502      0.0000 
     21 C1'        22.2100   -0.3620   21.3100 C.3       1 ATP502      0.0000 
     22 N9         22.4670   -1.7160   20.8390 N.pl3     1 ATP502      0.0000 
     23 C8         21.7930   -2.2590   19.7810 C.2       1 ATP502      0.0000 
     24 N7         22.1780   -3.5380   19.6300 N.2       1 ATP502      0.0000 
     25 C5         23.1210   -3.8140   20.5090 C.ar      1 ATP502      0.0000 
     26 C6         23.9680   -4.9860   20.7600 C.ar      1 ATP502      0.0000 
     27 N6         23.8490   -6.1130   20.0540 N.pl3     1 ATP502      0.0000 
     28 N1         24.8590   -4.9000   21.7430 N.ar      1 ATP502      0.0000 
     29 C2         24.9870   -3.7460   22.4810 C.ar      1 ATP502      0.0000 
     30 N3         24.2780   -2.6140   22.2830 N.ar      1 ATP502      0.0000 
     31 C4         23.3360   -2.6020   21.3070 C.ar      1 ATP502      0.0000 
     32 H          18.9654    2.2287   20.0758 H         1 ATP502      0.0000 
     33 H          19.5538    0.7852   19.2332 H         1 ATP502      0.0000 
     34 H          20.1374    1.6455   22.0585 H         1 ATP502      0.0000 
     35 H          21.3222    2.2537   19.7339 H         1 ATP502      0.0000 
     36 H          22.2421    0.1598   19.2909 H         1 ATP502      0.0000 
     37 H          22.7393   -0.1301   22.1682 H         1 ATP502      0.0000 
     38 H          21.1469   -1.7887   19.2377 H         1 ATP502      0.0000 
     39 H          23.1787   -6.0987   19.3120 H         1 ATP502      0.0000 
     40 H          24.4408   -6.8701   20.3307 H         1 ATP502      0.0000 
     41 H          25.7100   -3.7565   23.2742 H         1 ATP502      0.0000 
     42 H          23.1106    2.2690   21.5737 H         1 ATP502      0.0000 
     43 H          24.0863    1.3882   19.3635 H         1 ATP502      0.0000 
@<TRIPOS>BOND
     1    2    1 ar   
     2    3    1 ar   
     3    4    1 ar   
     4    8    1 1    
     5    6    5 ar   
     6    7    5 ar   
     7    8    5 1    
     8   12    5 1    
     9   10    9 ar   
    10   11    9 ar   
    11   12    9 1    
    12   13    9 1    
    13   14   13 1    
    14   15   14 1    
    15   32   14 1    
    16   33   14 1    
    17   16   15 1    
    18   17   15 1    
    19   34   15 1    
    20   21   16 1    
    21   18   17 1    
    22   19   17 1    
    23   35   17 1    
    24   42   18 1    
    25   20   19 1    
    26   21   19 1    
    27   36   19 1    
    28   43   20 1    
    29   22   21 1    
    30   37   21 1    
    31   23   22 1    
    32   31   22 1    
    33   24   23 2    
    34   38   23 1    
    35   25   24 1    
    36   26   25 ar   
    37   31   25 ar   
    38   27   26 1    
    39   28   26 ar   
    40   39   27 1    
    41   40   27 1    
    42   29   28 ar   
    43   30   29 ar   
    44   41   29 1    
    45   31   30 ar   
@<TRIPOS>SUBSTRUCTURE
     1 ATP502      1 GROUP   
@<TRIPOS>SET

