#    Name: 1PR4_2_CAVITY_N1_6.mol2
#    Modification time : Tue Mar 11 01:40:43 2014

@<TRIPOS>MOLECULE
1PR4_2_CAVITY_N1_6.mol2
   77     0     6     0     0
SMALL
NO_CHARGES


@<TRIPOS>ATOM
      1 CA         69.4532   43.0990   -7.1260 C.3       5 GLY6        0.0000 
      2 CZ         68.9554   42.6620   -5.7803 C.ar      4 PHE5        0.0000 
      3 CA         69.3361   42.3180   -9.0949 C.3       5 GLY6        0.0000 
      4 DU         68.8383   41.8810   -7.7491 H         6 CUB7        0.0000 
      5 CA         71.2254   42.7776   -8.2467 C.3       5 GLY6        0.0000 
      6 CA         70.7276   42.3406   -6.9010 C.3       5 GLY6        0.0000 
      7 CZ         70.2298   41.9035   -5.5552 C.ar      4 PHE5        0.0000 
      8 CZ         69.7319   41.4665   -4.2094 C.ar      4 PHE5        0.0000 
      9 NZ         70.6105   41.5595   -8.8698 N.2       3 LYS4        0.0000 
     10 NZ         70.1127   41.1225   -7.5240 N.2       3 LYS4        0.0000 
     11 DU         69.6149   40.6854   -6.1782 H         6 CUB7        0.0000 
     12 N          69.1170   40.2484   -4.8324 N.2       2 ALA2        0.0000 
     13 NZ         69.9956   40.3415   -9.4928 N.2       3 LYS4        0.0000 
     14 CZ         68.5021   39.0303   -5.4554 C.ar      4 PHE5        0.0000 
     15 N          75.5335   33.2614   -4.7279 N.2       2 ALA2        0.0000 
     16 CA         75.0356   32.8243   -3.3821 C.3       5 GLY6        0.0000 
     17 N          74.7124   37.6515   -5.2778 N.2       2 ALA2        0.0000 
     18 N          74.2146   37.2145   -3.9320 N.2       2 ALA2        0.0000 
     19 CA         73.7167   36.7774   -2.5862 C.3       5 GLY6        0.0000 
     20 O          74.5953   36.8705   -7.2466 O.2       2 ALA2        0.0000 
     21 N          74.0975   36.4334   -5.9008 N.2       2 ALA2        0.0000 
     22 CZ         73.5996   35.9964   -4.5551 C.ar      4 PHE5        0.0000 
     23 CZ         73.1018   35.5594   -3.2093 C.ar      4 PHE5        0.0000 
     24 OG         74.4782   36.0895   -9.2155 O.2       1 SER1        0.0000 
     25 OG         73.9804   35.6524   -7.8697 O.2       1 SER1        0.0000 
     26 CZ         73.4826   35.2154   -6.5239 C.ar      4 PHE5        0.0000 
     27 CZ         72.9847   34.7783   -5.1781 C.ar      4 PHE5        0.0000 
     28 OG         73.3655   34.4344   -8.4927 O.2       1 SER1        0.0000 
     29 CZ         72.8676   33.9973   -7.1469 C.ar      4 PHE5        0.0000 
     30 CZ         72.3698   33.5603   -5.8011 C.ar      4 PHE5        0.0000 
     31 CA         70.0681   44.3171   -6.5030 C.3       5 GLY6        0.0000 
     32 CZ         69.5703   43.8801   -5.1572 C.ar      4 PHE5        0.0000 
     33 CA         69.9511   43.5361   -8.4718 C.3       5 GLY6        0.0000 
     34 CA         72.0020   41.5821   -6.6759 C.3       5 GLY6        0.0000 
     35 CZ         71.5042   41.1450   -5.3301 C.ar      4 PHE5        0.0000 
     36 CZ         71.0063   40.7080   -3.9843 C.ar      4 PHE5        0.0000 
     37 NZ         71.3871   40.3640   -7.2989 N.2       3 LYS4        0.0000 
     38 DU         70.8892   39.9270   -5.9531 H         6 CUB7        0.0000 
     39 N          70.3914   39.4899   -4.6073 N.2       2 ALA2        0.0000 
     40 NZ         70.7722   39.1459   -7.9219 N.2       3 LYS4        0.0000 
     41 CZ         70.2743   38.7089   -6.5761 C.ar      4 PHE5        0.0000 
     42 CZ         69.7765   38.2718   -5.2304 C.ar      4 PHE5        0.0000 
     43 N          71.9000   40.2935   -0.4446 N.2       2 ALA2        0.0000 
     44 CA         72.7785   40.3865   -5.1050 C.3       5 GLY6        0.0000 
     45 CZ         72.2807   39.9495   -3.7592 C.ar      4 PHE5        0.0000 
     46 N          71.7829   39.5125   -2.4134 N.2       2 ALA2        0.0000 
     47 NZ         72.6615   39.6055   -7.0738 N.2       3 LYS4        0.0000 
     48 DU         72.1636   39.1685   -5.7280 H         6 CUB7        0.0000 
     49 N          71.6658   38.7314   -4.3822 N.2       2 ALA2        0.0000 
     50 NZ         72.0465   38.3875   -7.6968 N.2       3 LYS4        0.0000 
     51 CZ         71.5487   37.9504   -6.3510 C.ar      4 PHE5        0.0000 
     52 NZ         71.4316   37.1694   -8.3199 N.2       3 LYS4        0.0000 
     53 CA         73.6722   39.9720   -1.5652 C.3       5 GLY6        0.0000 
     54 CA         74.0529   39.6281   -4.8799 C.3       5 GLY6        0.0000 
     55 CA         73.5551   39.1910   -3.5341 C.3       5 GLY6        0.0000 
     56 CA         73.0573   38.7540   -2.1883 C.3       5 GLY6        0.0000 
     57 CA         73.9358   38.8470   -6.8487 C.3       5 GLY6        0.0000 
     58 DU         73.4380   38.4100   -5.5029 H         6 CUB7        0.0000 
     59 CZ         72.9402   37.9729   -4.1571 C.ar      4 PHE5        0.0000 
     60 CZ         72.4423   37.5359   -2.8113 C.ar      4 PHE5        0.0000 
     61 NZ         73.3209   37.6290   -7.4717 N.2       3 LYS4        0.0000 
     62 CZ         72.8231   37.1919   -6.1259 C.ar      4 PHE5        0.0000 
     63 CZ         72.3253   36.7549   -4.7802 C.ar      4 PHE5        0.0000 
     64 CA         73.2038   36.8479   -9.4406 C.3       5 GLY6        0.0000 
     65 NZ         72.7060   36.4109   -8.0948 N.2       3 LYS4        0.0000 
     66 CZ         72.2082   35.9739   -6.7490 C.ar      4 PHE5        0.0000 
     67 CZ         71.5933   34.7558   -7.3720 C.ar      4 PHE5        0.0000 
     68 N          75.3718   35.6750   -5.6758 N.2       2 ALA2        0.0000 
     69 N          74.8740   35.2379   -4.3300 N.2       2 ALA2        0.0000 
     70 CA         74.3762   34.8009   -2.9842 C.3       5 GLY6        0.0000 
     71 CA         75.2548   34.8939   -7.6446 C.3       5 GLY6        0.0000 
     72 N          74.7569   34.4569   -6.2988 N.2       2 ALA2        0.0000 
     73 DU         74.2591   34.0198   -4.9530 H         6 CUB7        0.0000 
     74 CA         73.7613   33.5828   -3.6072 C.3       5 GLY6        0.0000 
     75 OG         74.6398   33.6759   -8.2676 O.2       1 SER1        0.0000 
     76 OG         74.1420   33.2388   -6.9218 O.2       1 SER1        0.0000 
     77 DU         73.6442   32.8018   -5.5760 H         6 CUB7        0.0000 
@<TRIPOS>BOND
@<TRIPOS>SUBSTRUCTURE
     1 SER1       24 GROUP   
     2 ALA2       12 GROUP   
     3 LYS4        9 GROUP   
     4 PHE5        2 GROUP   
     5 GLY6        1 GROUP   
     6 CUB7        4 GROUP   
@<TRIPOS>SET

