#    Name: 1pr4_MTP_2_INTS_M
#    Modification time : Mon Mar 24 22:09:18 2014

@<TRIPOS>MOLECULE
1pr4_MTP_2_INTS_M
   49     0     9     0     0
SMALL
NO_CHARGES


@<TRIPOS>ATOM
      1 CA         71.3890   33.4160   -4.1000 C.3       3 GLC5        0.0000 
      2 CA         72.3690   31.8240   -4.4810 C.3       9 GLL5        0.0000 
      3 CA         70.4090   35.0080   -3.7190 C.3       6 GLP5        0.0000 
      4 CA         77.1340   33.4050   -3.9945 C.3       3 GLC5        0.0000 
      5 CA         75.5060   32.4710   -5.0070 C.3       9 GLL5        0.0000 
      6 CA         78.7620   34.3390   -2.9820 C.3       6 GLP5        0.0000 
      7 CA         76.3995   35.8390   -6.6100 C.3       3 GLC5        0.0000 
      8 CA         74.3540   35.7840   -5.9910 C.3       9 GLL5        0.0000 
      9 CA         78.4450   35.8940   -7.2290 C.3       6 GLP5        0.0000 
     10 CA         73.7265   38.5435   -8.9635 C.3       3 GLC5        0.0000 
     11 CA         73.4360   38.3340   -6.8410 C.3       9 GLL5        0.0000 
     12 CA         74.0170   38.7530  -11.0860 C.3       6 GLP5        0.0000 
     13 CA         72.5665   41.2175   -4.3190 C.3       3 GLC5        0.0000 
     14 CA         72.7510   39.5790   -5.6500 C.3       9 GLL5        0.0000 
     15 CA         72.3820   42.8560   -2.9880 C.3       6 GLP5        0.0000 
     16 CA         73.5800   41.2015   -5.6800 C.3       3 GLC5        0.0000 
     17 CA         74.4090   42.8240   -5.7100 C.3       6 GLP5        0.0000 
     18 CA         74.9695   37.8370   -2.8660 C.3       3 GLC5        0.0000 
     19 CA         73.8100   36.1860   -3.4400 C.3       9 GLL5        0.0000 
     20 CA         76.1290   39.4880   -2.2920 C.3       6 GLP5        0.0000 
     21 CA         75.7415   35.7350   -2.9335 C.3       3 GLC5        0.0000 
     22 CA         77.6730   35.2840   -2.4270 C.3       6 GLP5        0.0000 
     23 CA         74.0305   34.9235   -1.8700 C.3       3 GLC5        0.0000 
     24 CA         74.2510   33.6610   -0.3000 C.3       6 GLP5        0.0000 
     25 CA         76.1365   35.0500   -3.7405 C.3       3 GLC5        0.0000 
     26 CA         74.6000   34.8160   -5.0540 C.3       9 GLL5        0.0000 
     27 CA         76.5430   33.7345   -2.9525 C.3       3 GLC5        0.0000 
     28 CA         75.4130   32.1850   -3.4780 C.3       9 GLL5        0.0000 
     29 CA         74.8320   32.9230   -1.8890 C.3       3 GLC5        0.0000 
     30 N          76.9570   32.7125   -1.9450 N.am      2 SEC2        0.0000 
     31 N          76.7520   31.8820   -3.1120 N.am      8 SEL2        0.0000 
     32 N          77.1620   33.5430   -0.7780 N.am      5 SEP2        0.0000 
     33 O          77.3425   30.9935   -2.2980 O.2       1 ALC1        0.0000 
     34 O          76.7520   31.8820   -3.1120 O.2       7 ALL1        0.0000 
     35 O          77.9330   30.1050   -1.4840 O.2       4 ALP1        0.0000 
     36 CA         73.2115   29.3415   -2.9320 C.3       3 GLC5        0.0000 
     37 CA         74.4440   30.9960   -3.2520 C.3       9 GLL5        0.0000 
     38 CA         71.9790   27.6870   -2.6120 C.3       6 GLP5        0.0000 
     39 O          75.5545   29.5070   -1.9955 O.2       1 ALC1        0.0000 
     40 O          75.1010   29.7390   -3.1820 O.2       7 ALL1        0.0000 
     41 O          76.0080   29.2750   -0.8090 O.2       4 ALP1        0.0000 
     42 CA         71.8285   29.9890   -3.9805 C.3       3 GLC5        0.0000 
     43 CA         73.6570   30.9920   -4.5310 C.3       9 GLL5        0.0000 
     44 CA         70.6440   28.5700   -3.4550 C.3       6 GLP5        0.0000 
     45 CA         75.2130   38.4675   -7.0627 C.3       3 GLC5        0.0000 
     46 CA         73.8000   37.0260   -5.6520 C.3       9 GLL5        0.0000 
     47 CA         76.8080   39.2550   -7.8790 C.3       6 GLP5        0.0000 
     48 CA         73.1617   32.1450   -2.3270 C.3       3 GLC5        0.0000 
     49 CA         72.5950   33.0880   -0.7750 C.3       6 GLP5        0.0000 
@<TRIPOS>BOND
@<TRIPOS>SUBSTRUCTURE
     1 ALC1       33 GROUP        1 X    ALC  0     ROOT ALC X 1
     2 SEC2       30 GROUP        1 X    SEC  0     **** SEC X 2
     3 GLC5        1 GROUP        1 X    GLC  0     **** GLC X 6
     4 ALP1       35 GROUP        1 Y    ALP  0     ROOT ALP Y 8
     5 SEP2       32 GROUP        1 Y    SEP  0     **** SEP Y 9
     6 GLP5        3 GROUP        1 Y    GLP  0     **** GLP Y 13
     7 ALL1       34 GROUP        1 Z    ALL  0     ROOT ALL Z 15
     8 SEL2       31 GROUP        1 Z    SEL  0     **** SEL Z 16
     9 GLL5        2 GROUP        1 Z    GLL  0     **** GLL Z 20
@<TRIPOS>SET

