#    Name: 1pr4_MTP_2_ligand
#    Modification time : Mon Mar 24 22:09:18 2014

@<TRIPOS>MOLECULE
1pr4_MTP_2_ligand
   34    36     1     0     0
SMALL
NO_CHARGES


@<TRIPOS>ATOM
      1 O5'        71.6710   31.7850   -5.7090 O.3       1 MTP1246     0.0000 
      2 C5'        72.3690   31.8240   -4.4810 C.3       1 MTP1246     0.0000 
      3 C4'        73.6570   30.9920   -4.5310 C.3       1 MTP1246     0.0000 
      4 O4'        74.6170   31.4290   -5.5280 O.3       1 MTP1246     0.0000 
      5 C1'        75.5060   32.4710   -5.0070 C.3       1 MTP1246     0.0000 
      6 N9         75.1460   33.7040   -5.7810 N.pl3     1 MTP1246     0.0000 
      7 C8         75.1780   34.1280   -7.1080 C.2       1 MTP1246     0.0000 
      8 N7         74.6980   35.3920   -7.2350 N.2       1 MTP1246     0.0000 
      9 C5         74.3540   35.7840   -5.9910 C.ar      1 MTP1246     0.0000 
     10 C6         73.8000   37.0260   -5.6520 C.ar      1 MTP1246     0.0000 
     11 S6         73.4360   38.3340   -6.8410 S.3       1 MTP1246     0.0000 
     12 CS         72.7510   39.5790   -5.6500 C.3       1 MTP1246     0.0000 
     13 N1         73.5390   37.1830   -4.3170 N.ar      1 MTP1246     0.0000 
     14 C2         73.8100   36.1860   -3.4400 C.ar      1 MTP1246     0.0000 
     15 N3         74.3400   34.9620   -3.7110 N.ar      1 MTP1246     0.0000 
     16 C4         74.6000   34.8160   -5.0540 C.ar      1 MTP1246     0.0000 
     17 C2'        75.4130   32.1850   -3.4780 C.3       1 MTP1246     0.0000 
     18 O2'        76.7520   31.8820   -3.1120 O.3       1 MTP1246     0.0000 
     19 C3'        74.4440   30.9960   -3.2520 C.3       1 MTP1246     0.0000 
     20 O3'        75.1010   29.7390   -3.1820 O.3       1 MTP1246     0.0000 
     21 H          71.7595   31.4314   -3.6457 H         1 MTP1246     0.0000 
     22 H          72.6573   32.8545   -4.2011 H         1 MTP1246     0.0000 
     23 H          73.3924   29.9453   -4.7394 H         1 MTP1246     0.0000 
     24 H          76.5247   32.1137   -5.3318 H         1 MTP1246     0.0000 
     25 H          75.5069   33.5730   -7.8388 H         1 MTP1246     0.0000 
     26 H          73.5764   36.3861   -2.3919 H         1 MTP1246     0.0000 
     27 H          75.0409   33.0527   -3.0144 H         1 MTP1246     0.0000 
     28 H          73.8082   31.2144   -2.4613 H         1 MTP1246     0.0000 
     29 H          73.3490   39.7037   -4.8582 H         1 MTP1246     0.0000 
     30 H          72.6373   40.4767   -6.0757 H         1 MTP1246     0.0000 
     31 H          71.8551   39.3048   -5.3004 H         1 MTP1246     0.0000 
     32 H          72.1457   32.4396   -6.2973 H         1 MTP1246     0.0000 
     33 H          76.6784   31.1177   -2.4713 H         1 MTP1246     0.0000 
     34 H          74.9824   29.4374   -2.2359 H         1 MTP1246     0.0000 
@<TRIPOS>BOND
     1    2    1 1    
     2   32    1 1    
     3    3    2 1    
     4   21    2 1    
     5   22    2 1    
     6    4    3 1    
     7   19    3 1    
     8   23    3 1    
     9    5    4 1    
    10    6    5 1    
    11   17    5 1    
    12   24    5 1    
    13    7    6 1    
    14   16    6 1    
    15    8    7 2    
    16   25    7 1    
    17    9    8 1    
    18   10    9 ar   
    19   16    9 ar   
    20   11   10 1    
    21   13   10 ar   
    22   12   11 1    
    23   29   12 1    
    24   30   12 1    
    25   31   12 1    
    26   14   13 ar   
    27   15   14 ar   
    28   26   14 1    
    29   16   15 ar   
    30   18   17 1    
    31   19   17 1    
    32   27   17 1    
    33   33   18 1    
    34   20   19 1    
    35   28   19 1    
    36   34   20 1    
@<TRIPOS>SUBSTRUCTURE
     1 MTP1246     1 GROUP   
@<TRIPOS>SET

