#    Name: 2O8J_2_CAVITY_N1_6.mol2
#    Modification time : Tue Mar 11 02:12:16 2014

@<TRIPOS>MOLECULE
2O8J_2_CAVITY_N1_6.mol2
  101     0     5     0     0
SMALL
NO_CHARGES


@<TRIPOS>ATOM
      1 CA         -9.4311   50.5938   76.8557 C.3       4 GLY6        0.0000 
      2 DU         -8.5803   47.1616   80.0173 H         5 CUB7        0.0000 
      3 CZ         -8.4157   46.4351   81.3193 C.ar      3 PHE5        0.0000 
      4 CZ         -8.2510   45.7086   82.6212 C.ar      3 PHE5        0.0000 
      5 N          -8.3882   46.6356   77.9713 N.2       2 ALA2        0.0000 
      6 N          -8.2235   45.9090   79.2732 N.2       2 ALA2        0.0000 
      7 CZ         -8.0589   45.1825   80.5751 C.ar      3 PHE5        0.0000 
      8 CA         -7.8668   44.6564   78.5291 C.3       4 GLY6        0.0000 
      9 CZ         -7.7021   43.9299   79.8310 C.ar      3 PHE5        0.0000 
     10 CA         -7.5100   43.4038   77.7850 C.3       4 GLY6        0.0000 
     11 CZ         -7.3453   42.6773   79.0869 C.ar      3 PHE5        0.0000 
     12 CZ         -7.1807   41.9508   80.3888 C.ar      3 PHE5        0.0000 
     13 O          -6.9886   41.4247   78.3428 O.2       2 ALA2        0.0000 
     14 CA         -8.6970   53.4904   78.3792 C.3       4 GLY6        0.0000 
     15 OG         -8.5323   52.7638   79.6811 O.2       1 SER1        0.0000 
     16 CA         -8.3402   52.2378   77.6351 C.3       4 GLY6        0.0000 
     17 OG         -8.1756   51.5112   78.9370 O.2       1 SER1        0.0000 
     18 OG         -8.0109   50.7847   80.2389 O.2       1 SER1        0.0000 
     19 O          -7.9835   50.9852   76.8910 O.2       2 ALA2        0.0000 
     20 N          -7.8188   50.2586   78.1929 N.2       2 ALA2        0.0000 
     21 DU         -7.6541   49.5321   79.4948 H         5 CUB7        0.0000 
     22 DU         -7.4895   48.8056   80.7968 H         5 CUB7        0.0000 
     23 DU         -7.3248   48.0790   82.0987 H         5 CUB7        0.0000 
     24 CZ         -7.1601   47.3525   83.4006 C.ar      3 PHE5        0.0000 
     25 CZ         -6.9955   46.6260   84.7026 C.ar      3 PHE5        0.0000 
     26 N          -7.2974   48.2795   78.7507 N.2       2 ALA2        0.0000 
     27 DU         -7.1327   47.5530   80.0526 H         5 CUB7        0.0000 
     28 DU         -6.9680   46.8264   81.3546 H         5 CUB7        0.0000 
     29 CZ         -6.8034   46.0999   82.6565 C.ar      3 PHE5        0.0000 
     30 N          -6.7759   46.3004   79.3085 N.2       2 ALA2        0.0000 
     31 CZ         -6.6113   45.5738   80.6104 C.ar      3 PHE5        0.0000 
     32 N          -6.4192   45.0478   78.5644 N.2       2 ALA2        0.0000 
     33 CZ         -6.2545   44.3213   79.8663 C.ar      3 PHE5        0.0000 
     34 CA         -6.0624   43.7952   77.8203 C.3       4 GLY6        0.0000 
     35 CZ         -5.8977   43.0687   79.1222 C.ar      3 PHE5        0.0000 
     36 CZ         -5.7331   42.3421   80.4241 C.ar      3 PHE5        0.0000 
     37 O          -5.5409   41.8161   78.3781 O.2       2 ALA2        0.0000 
     38 OG         -7.2494   53.8817   78.4145 O.2       1 SER1        0.0000 
     39 CA         -6.8926   52.6291   77.6704 C.3       4 GLY6        0.0000 
     40 OG         -6.7280   51.9026   78.9723 O.2       1 SER1        0.0000 
     41 OG         -6.5633   51.1760   80.2742 O.2       1 SER1        0.0000 
     42 OG         -6.3986   50.4495   81.5762 O.2       1 SER1        0.0000 
     43 CA         -6.2340   49.7230   82.8781 C.3       4 GLY6        0.0000 
     44 O          -6.5358   51.3765   76.9263 O.2       2 ALA2        0.0000 
     45 DU         -6.3712   50.6500   78.2282 H         5 CUB7        0.0000 
     46 OG         -6.2065   49.9235   79.5301 O.2       1 SER1        0.0000 
     47 DU         -6.0419   49.1969   80.8321 H         5 CUB7        0.0000 
     48 CA         -5.8772   48.4704   82.1340 C.3       4 GLY6        0.0000 
     49 CA         -5.7125   47.7438   83.4359 C.3       4 GLY6        0.0000 
     50 DU         -9.6712   45.5177   79.2379 H         5 CUB7        0.0000 
     51 CZ         -9.5065   44.7911   80.5398 C.ar      3 PHE5        0.0000 
     52 N          -9.4791   44.9916   77.1919 N.2       2 ALA2        0.0000 
     53 N          -9.3144   44.2651   78.4938 N.2       2 ALA2        0.0000 
     54 CZ         -9.1497   43.5386   79.7957 C.ar      3 PHE5        0.0000 
     55 N          -8.9576   43.0125   77.7497 N.2       2 ALA2        0.0000 
     56 N          -8.7930   42.2860   79.0516 N.2       2 ALA2        0.0000 
     57 CZ         -5.8018   54.2731   78.4498 C.ar      3 PHE5        0.0000 
     58 CZ         -5.4450   53.0205   77.7057 C.ar      3 PHE5        0.0000 
     59 OG         -5.2803   52.2939   79.0076 O.2       1 SER1        0.0000 
     60 CZ         -4.9510   50.8409   81.6115 C.ar      3 PHE5        0.0000 
     61 CA         -4.7863   50.1143   82.9134 C.3       4 GLY6        0.0000 
     62 N          -5.0882   51.7679   76.9616 N.2       2 ALA2        0.0000 
     63 OG         -4.9236   51.0413   78.2635 O.2       1 SER1        0.0000 
     64 OG         -4.7589   50.3148   79.5654 O.2       1 SER1        0.0000 
     65 CZ         -4.5942   49.5883   80.8674 C.ar      3 PHE5        0.0000 
     66 N          -4.4296   48.8617   82.1693 N.2       2 ALA2        0.0000 
     67 N          -4.2649   48.1352   83.4712 N.2       2 ALA2        0.0000 
     68 N          -4.5668   49.7887   77.5194 N.2       2 ALA2        0.0000 
     69 N          -4.4021   49.0622   78.8213 N.2       2 ALA2        0.0000 
     70 OG         -4.2375   48.3357   80.1232 O.2       1 SER1        0.0000 
     71 OG         -4.0728   47.6091   81.4252 O.2       1 SER1        0.0000 
     72 CZ         -3.9081   46.8826   82.7271 C.ar      3 PHE5        0.0000 
     73 N          -3.8807   47.0831   79.3791 N.2       2 ALA2        0.0000 
     74 OG         -3.7160   46.3565   80.6810 O.2       1 SER1        0.0000 
     75 CZ         -3.5514   45.6300   81.9830 C.ar      3 PHE5        0.0000 
     76 OG         -3.3593   45.1040   79.9369 O.2       1 SER1        0.0000 
     77 O          -3.0025   43.8514   79.1928 O.2       2 ALA2        0.0000 
     78 CA        -10.5973   43.1472   79.7604 C.3       4 GLY6        0.0000 
     79 N         -10.4052   42.6211   77.7144 N.2       2 ALA2        0.0000 
     80 CA        -10.2406   41.8946   79.0163 C.3       4 GLY6        0.0000 
     81 N          -3.4759   51.4327   78.2988 N.2       2 ALA2        0.0000 
     82 N          -3.3113   50.7062   79.6007 N.2       2 ALA2        0.0000 
     83 CZ         -3.1466   49.9796   80.9027 C.ar      3 PHE5        0.0000 
     84 N          -3.1192   50.1801   77.5547 N.2       2 ALA2        0.0000 
     85 N          -2.9545   49.4536   78.8566 N.2       2 ALA2        0.0000 
     86 OG         -2.7898   48.7270   80.1585 O.2       1 SER1        0.0000 
     87 N          -6.0144   49.3974   77.4841 N.2       2 ALA2        0.0000 
     88 N          -5.8497   48.6709   78.7860 N.2       2 ALA2        0.0000 
     89 DU         -5.6851   47.9443   80.0879 H         5 CUB7        0.0000 
     90 DU         -5.5204   47.2178   81.3899 H         5 CUB7        0.0000 
     91 CZ         -5.3558   46.4913   82.6918 C.ar      3 PHE5        0.0000 
     92 N          -5.3283   46.6917   79.3438 N.2       2 ALA2        0.0000 
     93 DU         -5.1636   45.9652   80.6457 H         5 CUB7        0.0000 
     94 CZ         -4.9990   45.2387   81.9477 C.ar      3 PHE5        0.0000 
     95 N          -4.9715   45.4391   78.5997 N.2       2 ALA2        0.0000 
     96 DU         -4.8069   44.7126   79.9016 H         5 CUB7        0.0000 
     97 CZ         -4.6422   43.9861   81.2036 C.ar      3 PHE5        0.0000 
     98 CA         -4.6148   44.1865   77.8556 C.3       4 GLY6        0.0000 
     99 DU         -4.4501   43.4600   79.1575 H         5 CUB7        0.0000 
    100 CZ         -4.2854   42.7335   80.4594 C.ar      3 PHE5        0.0000 
    101 N          -4.0933   42.2074   78.4134 N.2       2 ALA2        0.0000 
@<TRIPOS>BOND
@<TRIPOS>SUBSTRUCTURE
     1 SER1       15 GROUP   
     2 ALA2        5 GROUP   
     3 PHE5        3 GROUP   
     4 GLY6        1 GROUP   
     5 CUB7        2 GROUP   
@<TRIPOS>SET

