#    Name: 2o8j_SAH_2_INTS_M
#    Modification time : Tue Mar 25 22:02:41 2014

@<TRIPOS>MOLECULE
2o8j_SAH_2_INTS_M
   58     0     9     0     0
SMALL
NO_CHARGES


@<TRIPOS>ATOM
      1 O          -5.1955   49.5060   75.8320 O.2       1 ALC1        0.0000 
      2 O          -5.6400   49.1250   77.0850 O.2       7 ALL1        0.0000 
      3 O          -4.7510   49.8870   74.5790 O.2       4 ALP1        0.0000 
      4 O          -4.6560   48.1450   76.8910 O.2       1 ALC1        0.0000 
      5 O          -3.6720   47.1650   76.6970 O.2       4 ALP1        0.0000 
      6 CA         -3.6715   51.8705   79.8740 C.3       3 GLC5        0.0000 
      7 CA         -3.8690   50.4780   78.1920 C.3       9 GLL5        0.0000 
      8 CA         -3.4740   53.2630   81.5560 C.3       6 GLP5        0.0000 
      9 CA         -3.3235   51.6065   81.1750 C.3       3 GLC5        0.0000 
     10 CA         -3.1730   49.9500   80.7940 C.3       9 GLL5        0.0000 
     11 N          -5.9530   52.9385   79.8490 N.am      2 SEC2        0.0000 
     12 N          -6.0550   52.4710   78.5220 N.am      8 SEL2        0.0000 
     13 N          -5.8510   53.4060   81.1760 N.am      5 SEP2        0.0000 
     14 N          -7.1735   51.1090   75.5975 N.am      2 SEC2        0.0000 
     15 N          -7.0530   51.4590   76.9300 N.am      8 SEL2        0.0000 
     16 N          -7.2940   50.7590   74.2650 N.am      5 SEP2        0.0000 
     17 CA         -2.3190   46.8025   81.7000 C.3       3 GLC5        0.0000 
     18 CA         -3.6290   48.3280   81.5030 C.3       9 GLL5        0.0000 
     19 CA         -1.0090   45.2770   81.8970 C.3       6 GLP5        0.0000 
     20 CA         -4.5075   45.4370   83.4480 C.3       3 GLC5        0.0000 
     21 CA         -5.5540   46.6850   82.1100 C.3       9 GLL5        0.0000 
     22 CA         -3.4610   44.1890   84.7860 C.3       6 GLP5        0.0000 
     23 CA         -6.4795   45.2480   83.0700 C.3       3 GLC5        0.0000 
     24 CA         -7.4050   43.8110   84.0300 C.3       6 GLP5        0.0000 
     25 CA         -6.9815   44.5100   82.0875 C.3       3 GLC5        0.0000 
     26 CA         -6.6260   46.0940   81.2060 C.3       9 GLL5        0.0000 
     27 CA         -7.3370   42.9260   82.9690 C.3       6 GLP5        0.0000 
     28 N          -2.0590   44.1025   78.2895 N.am      2 SEC2        0.0000 
     29 N          -3.5060   44.1000   78.5990 N.am      8 SEL2        0.0000 
     30 N          -0.6120   44.1050   77.9800 N.am      5 SEP2        0.0000 
     31 CA         -3.3260   44.4925   77.1185 C.3       3 GLC5        0.0000 
     32 CA         -4.6150   43.3190   78.5020 C.3       9 GLL5        0.0000 
     33 CA         -2.0370   45.6660   75.7350 C.3       6 GLP5        0.0000 
     34 CA         -2.5600   42.7515   79.0355 C.3       3 GLC5        0.0000 
     35 CA         -0.5050   42.1840   79.5690 C.3       6 GLP5        0.0000 
     36 CA         -4.2955   39.9835   78.0120 C.3       3 GLC5        0.0000 
     37 CA         -4.8030   42.0040   78.0710 C.3       9 GLL5        0.0000 
     38 CA         -3.7880   37.9630   77.9530 C.3       6 GLP5        0.0000 
     39 O          -2.4495   41.4830   77.0960 O.2       1 ALC1        0.0000 
     40 O          -3.7640   41.2750   77.6570 O.2       7 ALL1        0.0000 
     41 O          -1.1350   41.6910   76.5350 O.2       4 ALP1        0.0000 
     42 N          -6.4555   40.1490   77.5075 N.am      2 SEC2        0.0000 
     43 N          -6.0780   41.4640   78.0830 N.am      8 SEL2        0.0000 
     44 N          -6.8330   38.8340   76.9320 N.am      5 SEP2        0.0000 
     45 CA         -6.8610   42.7830   76.7000 C.3       3 GLC5        0.0000 
     46 CA         -7.1600   42.2070   78.5140 C.3       9 GLL5        0.0000 
     47 CA         -6.5620   43.3590   74.8860 C.3       6 GLP5        0.0000 
     48 CA         -6.7085   40.0920   78.8180 C.3       3 GLC5        0.0000 
     49 CA         -6.2570   37.9770   79.1220 C.3       6 GLP5        0.0000 
     50 CA         -8.2905   41.1345   77.5135 C.3       3 GLC5        0.0000 
     51 CA         -9.4210   40.0620   76.5130 C.3       6 GLP5        0.0000 
     52 CA         -6.1405   43.7075   76.9105 C.3       3 GLC5        0.0000 
     53 CA         -5.7190   44.0560   78.9350 C.3       9 GLL5        0.0000 
     54 CA         -2.2698   51.2305   77.6525 C.3       3 GLC5        0.0000 
     55 CA         -3.1180   49.4620   79.0580 C.3       9 GLL5        0.0000 
     56 CA         -1.0460   52.4910   76.6800 C.3       6 GLP5        0.0000 
     57 CA         -4.7545   42.8003   76.6017 C.3       3 GLC5        0.0000 
     58 CA         -4.8000   42.9390   74.9170 C.3       6 GLP5        0.0000 
@<TRIPOS>BOND
@<TRIPOS>SUBSTRUCTURE
     1 ALC1        1 GROUP        1 X    ALC  0     ROOT ALC X 1
     2 SEC2       11 GROUP        1 X    SEC  0     **** SEC X 2
     3 GLC5        6 GROUP        1 X    GLC  0     **** GLC X 6
     4 ALP1        3 GROUP        1 Y    ALP  0     ROOT ALP Y 8
     5 SEP2       13 GROUP        1 Y    SEP  0     **** SEP Y 9
     6 GLP5        8 GROUP        1 Y    GLP  0     **** GLP Y 13
     7 ALL1        2 GROUP        1 Z    ALL  0     ROOT ALL Z 15
     8 SEL2       12 GROUP        1 Z    SEL  0     **** SEL Z 16
     9 GLL5        7 GROUP        1 Z    GLL  0     **** GLL Z 20
@<TRIPOS>SET

