#    Name: 2o8j_SAH_2_ligand
#    Modification time : Tue Mar 25 22:02:41 2014

@<TRIPOS>MOLECULE
2o8j_SAH_2_ligand
   46    48     1     0     0
SMALL
NO_CHARGES


@<TRIPOS>ATOM
      1 N          -5.6400   49.1250   77.0850 N.4       1 SAH1509     0.0000 
      2 CA         -5.3790   50.1840   78.1080 C.3       1 SAH1509     0.0000 
      3 CB         -3.8690   50.4780   78.1920 C.3       1 SAH1509     0.0000 
      4 CG         -3.1180   49.4620   79.0580 C.3       1 SAH1509     0.0000 
      5 SD         -3.1730   49.9500   80.7940 S.3       1 SAH1509     0.0000 
      6 C          -6.2080   51.4480   77.8320 C.2       1 SAH1509     0.0000 
      7 O          -6.0550   52.4710   78.5220 O.co2     1 SAH1509     0.0000 
      8 OXT        -7.0530   51.4590   76.9300 O.co2     1 SAH1509     0.0000 
      9 C5'        -3.6290   48.3280   81.5030 C.3       1 SAH1509     0.0000 
     10 C4'        -5.1030   47.9270   81.3360 C.3       1 SAH1509     0.0000 
     11 O4'        -5.3260   47.5960   79.9780 O.3       1 SAH1509     0.0000 
     12 C3'        -5.5540   46.6850   82.1100 C.3       1 SAH1509     0.0000 
     13 O3'        -6.0840   46.9980   83.3820 O.3       1 SAH1509     0.0000 
     14 C2'        -6.6260   46.0940   81.2060 C.3       1 SAH1509     0.0000 
     15 O2'        -7.8380   46.8150   81.3820 O.3       1 SAH1509     0.0000 
     16 C1'        -6.1060   46.4190   79.8240 C.3       1 SAH1509     0.0000 
     17 N9         -5.2670   45.3060   79.2990 N.pl3     1 SAH1509     0.0000 
     18 C8         -3.9020   45.3120   79.0930 C.2       1 SAH1509     0.0000 
     19 N7         -3.5060   44.1000   78.5990 N.2       1 SAH1509     0.0000 
     20 C5         -4.6150   43.3190   78.5020 C.ar      1 SAH1509     0.0000 
     21 C6         -4.8030   42.0040   78.0710 C.ar      1 SAH1509     0.0000 
     22 N6         -3.7640   41.2750   77.6570 N.pl3     1 SAH1509     0.0000 
     23 N1         -6.0780   41.4640   78.0830 N.ar      1 SAH1509     0.0000 
     24 C2         -7.1600   42.2070   78.5140 C.ar      1 SAH1509     0.0000 
     25 N3         -6.9610   43.5030   78.9440 N.ar      1 SAH1509     0.0000 
     26 C4         -5.7190   44.0560   78.9350 C.ar      1 SAH1509     0.0000 
     27 H          -5.6870   49.7936   79.0912 H         1 SAH1509     0.0000 
     28 H          -3.7268   51.4804   78.6083 H         1 SAH1509     0.0000 
     29 H          -3.4502   50.4679   77.1806 H         1 SAH1509     0.0000 
     30 H          -2.0745   49.4252   78.8583 H         1 SAH1509     0.0000 
     31 H          -3.5709   48.5003   79.0709 H         1 SAH1509     0.0000 
     32 H          -3.3315   48.4429   82.5378 H         1 SAH1509     0.0000 
     33 H          -2.9439   47.6600   80.9961 H         1 SAH1509     0.0000 
     34 H          -5.7320   48.7533   81.6216 H         1 SAH1509     0.0000 
     35 H          -4.7371   46.0006   82.1328 H         1 SAH1509     0.0000 
     36 H          -6.6870   45.0799   81.3349 H         1 SAH1509     0.0000 
     37 H          -6.9422   46.5903   79.1812 H         1 SAH1509     0.0000 
     38 H          -3.3221   46.0611   79.2726 H         1 SAH1509     0.0000 
     39 H          -3.8395   40.2866   77.7890 H         1 SAH1509     0.0000 
     40 H          -3.0036   41.7829   77.2521 H         1 SAH1509     0.0000 
     41 H          -8.1020   41.7986   78.5141 H         1 SAH1509     0.0000 
     42 H          -5.3320   49.4035   76.1753 H         1 SAH1509     0.0000 
     43 H          -5.1683   48.2713   77.3055 H         1 SAH1509     0.0000 
     44 H          -6.6141   48.9112   77.0120 H         1 SAH1509     0.0000 
     45 H          -7.0439   47.2228   83.2141 H         1 SAH1509     0.0000 
     46 H          -8.5256   46.1187   81.5879 H         1 SAH1509     0.0000 
@<TRIPOS>BOND
     1    2    1 1    
     2   42    1 1    
     3   43    1 1    
     4   44    1 1    
     5    3    2 1    
     6    6    2 1    
     7   27    2 1    
     8    4    3 1    
     9   28    3 1    
    10   29    3 1    
    11    5    4 1    
    12   30    4 1    
    13   31    4 1    
    14    9    5 1    
    15    7    6 ar   
    16    8    6 ar   
    17   10    9 1    
    18   32    9 1    
    19   33    9 1    
    20   11   10 1    
    21   12   10 1    
    22   34   10 1    
    23   16   11 1    
    24   13   12 1    
    25   14   12 1    
    26   35   12 1    
    27   45   13 1    
    28   15   14 1    
    29   16   14 1    
    30   36   14 1    
    31   46   15 1    
    32   17   16 1    
    33   37   16 1    
    34   18   17 1    
    35   26   17 1    
    36   19   18 2    
    37   38   18 1    
    38   20   19 1    
    39   21   20 ar   
    40   26   20 ar   
    41   22   21 1    
    42   23   21 ar   
    43   39   22 1    
    44   40   22 1    
    45   24   23 ar   
    46   25   24 ar   
    47   41   24 1    
    48   26   25 ar   
@<TRIPOS>SUBSTRUCTURE
     1 SAH1509     1 GROUP   
@<TRIPOS>SET

