#    Name: 1IG0_1_CAVITY_N1_6.mol2
#    Modification time : Tue Mar 11 08:05:54 2014

@<TRIPOS>MOLECULE
1IG0_1_CAVITY_N1_6.mol2
  157     0     6     0     0
SMALL
NO_CHARGES


@<TRIPOS>ATOM
      1 NZ         49.6340   27.8176   32.4255 N.2       3 LYS4        0.0000 
      2 NZ         49.6339   29.1362   31.7105 N.2       3 LYS4        0.0000 
      3 NZ         49.6339   30.4548   30.9954 N.2       3 LYS4        0.0000 
      4 DU         49.6338   31.7734   30.2804 H         6 CUB7        0.0000 
      5 N          49.6338   33.0920   29.5654 N.2       2 ALA2        0.0000 
      6 O          49.6338   34.4106   28.8503 O.2       2 ALA2        0.0000 
      7 NZ         48.9320   27.1856   31.2602 N.2       3 LYS4        0.0000 
      8 NZ         48.9320   28.5043   30.5451 N.2       3 LYS4        0.0000 
      9 DU         48.9320   29.8229   29.8301 H         6 CUB7        0.0000 
     10 O          48.9319   31.1415   29.1151 O.2       2 ALA2        0.0000 
     11 CA         48.9319   32.4601   28.4000 C.3       5 GLY6        0.0000 
     12 N          48.9318   33.7787   27.6850 N.2       2 ALA2        0.0000 
     13 NZ         48.2301   27.8723   29.3798 N.2       3 LYS4        0.0000 
     14 DU         48.2300   29.1909   28.6648 H         6 CUB7        0.0000 
     15 OG         48.2300   30.5095   27.9498 O.2       1 SER1        0.0000 
     16 CA         48.2300   31.8281   27.2347 C.3       5 GLY6        0.0000 
     17 N          47.5282   27.2404   28.2145 N.2       2 ALA2        0.0000 
     18 N          47.5281   28.5590   27.4995 N.2       2 ALA2        0.0000 
     19 CA         47.5281   29.8776   26.7844 C.3       5 GLY6        0.0000 
     20 N          46.8262   27.9271   26.3341 N.2       2 ALA2        0.0000 
     21 CA         46.8262   29.2457   25.6191 C.3       5 GLY6        0.0000 
     22 CA         46.8261   30.5643   24.9041 C.3       5 GLY6        0.0000 
     23 CA         46.1243   28.6137   24.4538 C.3       5 GLY6        0.0000 
     24 N          46.1242   29.9323   23.7387 N.2       2 ALA2        0.0000 
     25 CA         45.4224   27.9818   23.2885 C.3       5 GLY6        0.0000 
     26 N          45.4223   29.3004   22.5734 N.2       2 ALA2        0.0000 
     27 N          45.4223   30.6190   21.8584 N.2       2 ALA2        0.0000 
     28 N          44.7204   27.3499   22.1231 N.2       2 ALA2        0.0000 
     29 N          44.7204   28.6685   21.4081 N.2       2 ALA2        0.0000 
     30 N          44.7204   29.9871   20.6931 N.2       2 ALA2        0.0000 
     31 CA         44.7203   31.3057   19.9780 C.3       5 GLY6        0.0000 
     32 CA         44.0186   25.3993   21.6728 C.3       5 GLY6        0.0000 
     33 N          44.0185   26.7179   20.9578 N.2       2 ALA2        0.0000 
     34 N          44.0185   28.0365   20.2428 N.2       2 ALA2        0.0000 
     35 N          44.0185   29.3552   19.5277 N.2       2 ALA2        0.0000 
     36 N          44.0184   30.6738   18.8127 N.2       2 ALA2        0.0000 
     37 CA         44.0184   31.9924   18.0977 C.3       5 GLY6        0.0000 
     38 N          43.3166   26.0860   19.7925 N.2       2 ALA2        0.0000 
     39 DU         43.3166   27.4046   19.0775 H         6 CUB7        0.0000 
     40 N          43.3165   28.7232   18.3624 N.2       2 ALA2        0.0000 
     41 CZ         43.3165   30.0418   17.6474 C.ar      4 PHE5        0.0000 
     42 CZ         42.6146   29.4099   16.4821 C.ar      4 PHE5        0.0000 
     43 NZ         48.3083   28.1521   33.0425 N.2       3 LYS4        0.0000 
     44 NZ         48.3083   29.4708   32.3275 N.2       3 LYS4        0.0000 
     45 DU         48.3082   30.7894   31.6125 H         6 CUB7        0.0000 
     46 DU         48.3082   32.1080   30.8974 H         6 CUB7        0.0000 
     47 N          48.3082   33.4266   30.1824 N.2       2 ALA2        0.0000 
     48 NZ         47.6064   28.8388   31.1622 N.2       3 LYS4        0.0000 
     49 DU         47.6063   30.1574   30.4472 H         6 CUB7        0.0000 
     50 OG         47.6063   31.4760   29.7321 O.2       1 SER1        0.0000 
     51 OG         47.6062   32.7946   29.0171 O.2       1 SER1        0.0000 
     52 NZ         46.9044   28.2069   29.9969 N.2       3 LYS4        0.0000 
     53 OG         46.9044   29.5255   29.2818 O.2       1 SER1        0.0000 
     54 OG         46.9044   30.8441   28.5668 O.2       1 SER1        0.0000 
     55 O          46.2025   27.5750   28.8315 O.2       2 ALA2        0.0000 
     56 OG         46.2025   28.8936   28.1165 O.2       1 SER1        0.0000 
     57 CA         45.5006   28.2616   26.9512 C.3       5 GLY6        0.0000 
     58 OG         45.5005   29.5802   26.2362 O.2       1 SER1        0.0000 
     59 OG         44.7986   30.2669   24.3558 O.2       1 SER1        0.0000 
     60 OG         43.3948   29.0030   22.0252 O.2       1 SER1        0.0000 
     61 CA         42.6929   25.7339   22.2899 C.3       5 GLY6        0.0000 
     62 CA         42.6929   27.0525   21.5749 C.3       5 GLY6        0.0000 
     63 N          42.6929   28.3711   20.8598 N.2       2 ALA2        0.0000 
     64 NZ         46.9826   29.8053   32.9446 N.2       3 LYS4        0.0000 
     65 DU         46.9826   31.1239   32.2295 H         6 CUB7        0.0000 
     66 NZ         46.2807   29.1734   31.7792 N.2       3 LYS4        0.0000 
     67 DU         46.2807   30.4920   31.0642 H         6 CUB7        0.0000 
     68 NZ         45.5788   28.5415   30.6139 N.2       3 LYS4        0.0000 
     69 OG         45.5788   29.8601   29.8989 O.2       1 SER1        0.0000 
     70 NZ         44.8769   27.9095   29.4486 N.2       3 LYS4        0.0000 
     71 O          44.8769   29.2281   28.7336 O.2       2 ALA2        0.0000 
     72 CA         44.1749   28.5962   27.5682 C.3       5 GLY6        0.0000 
     73 O          45.6570   31.4585   32.8466 O.2       2 ALA2        0.0000 
     74 NZ         44.9551   29.5080   32.3963 N.2       3 LYS4        0.0000 
     75 O          44.9550   30.8266   31.6813 O.2       2 ALA2        0.0000 
     76 NZ         44.2532   27.5574   31.9460 N.2       3 LYS4        0.0000 
     77 NZ         44.2532   28.8760   31.2310 N.2       3 LYS4        0.0000 
     78 O          44.2531   30.1946   30.5159 O.2       2 ALA2        0.0000 
     79 CA         43.5513   26.9255   30.7807 C.3       5 GLY6        0.0000 
     80 N          43.5513   28.2441   30.0656 N.2       2 ALA2        0.0000 
     81 N          42.9275   29.2106   31.8480 N.2       2 ALA2        0.0000 
     82 N          42.2257   27.2600   31.3977 N.2       2 ALA2        0.0000 
     83 CA         48.6191   28.7036   15.1792 C.3       5 GLY6        0.0000 
     84 DU         47.9171   28.0716   14.0139 H         6 CUB7        0.0000 
     85 CZ         48.6972   30.3020   18.1269 C.ar      4 PHE5        0.0000 
     86 CA         48.6972   31.6206   17.4119 C.3       5 GLY6        0.0000 
     87 CA         47.9954   27.0329   18.3916 C.3       5 GLY6        0.0000 
     88 CZ         47.9954   28.3515   17.6766 C.ar      4 PHE5        0.0000 
     89 CZ         47.9953   29.6701   16.9616 C.ar      4 PHE5        0.0000 
     90 CZ         47.2935   27.7195   16.5113 C.ar      4 PHE5        0.0000 
     91 CA         47.2934   29.0381   15.7962 C.3       5 GLY6        0.0000 
     92 CA         47.2934   30.3567   15.0812 C.3       5 GLY6        0.0000 
     93 DU         46.5915   27.0876   15.3460 H         6 CUB7        0.0000 
     94 O          46.5915   28.4062   14.6309 O.2       2 ALA2        0.0000 
     95 O          46.5915   29.7248   13.9159 O.2       2 ALA2        0.0000 
     96 O          52.2852   29.7857   29.7613 O.2       2 ALA2        0.0000 
     97 CZ         48.7754   31.9004   21.0746 C.ar      4 PHE5        0.0000 
     98 N          48.0736   29.9499   20.6243 N.2       2 ALA2        0.0000 
     99 CA         48.0735   31.2685   19.9093 C.3       5 GLY6        0.0000 
    100 CA         48.0735   32.5871   19.1942 C.3       5 GLY6        0.0000 
    101 CA         47.3716   29.3180   19.4590 C.3       5 GLY6        0.0000 
    102 DU         47.3716   30.6366   18.7439 H         6 CUB7        0.0000 
    103 CA         47.3716   31.9552   18.0289 C.3       5 GLY6        0.0000 
    104 CA         47.3715   33.2738   17.3139 C.3       5 GLY6        0.0000 
    105 N          46.6697   28.6860   18.2936 N.2       2 ALA2        0.0000 
    106 DU         46.6697   30.0046   17.5786 H         6 CUB7        0.0000 
    107 CZ         46.6697   31.3232   16.8636 C.ar      4 PHE5        0.0000 
    108 CA         46.6696   32.6418   16.1485 C.3       5 GLY6        0.0000 
    109 N          45.9679   26.7355   17.8434 N.2       2 ALA2        0.0000 
    110 DU         45.9678   28.0541   17.1283 H         6 CUB7        0.0000 
    111 CZ         45.9678   29.3727   16.4133 C.ar      4 PHE5        0.0000 
    112 CZ         45.9677   30.6913   15.6983 C.ar      4 PHE5        0.0000 
    113 DU         45.2659   27.4222   15.9630 H         6 CUB7        0.0000 
    114 CZ         45.2659   28.7408   15.2480 C.ar      4 PHE5        0.0000 
    115 O          51.6613   34.7080   29.3986 O.2       2 ALA2        0.0000 
    116 NZ         50.9595   30.1202   30.3784 N.2       3 LYS4        0.0000 
    117 O          50.9595   31.4388   29.6633 O.2       2 ALA2        0.0000 
    118 O          50.9594   32.7574   28.9483 O.2       2 ALA2        0.0000 
    119 O          50.2576   29.4883   29.2131 O.2       2 ALA2        0.0000 
    120 O          50.2576   30.8069   28.4980 O.2       2 ALA2        0.0000 
    121 O          50.2575   32.1255   27.7830 O.2       2 ALA2        0.0000 
    122 O          50.2575   33.4441   27.0680 O.2       2 ALA2        0.0000 
    123 N          49.5557   27.5378   28.7628 N.2       2 ALA2        0.0000 
    124 O          49.5557   28.8564   28.0477 O.2       2 ALA2        0.0000 
    125 O          49.5556   30.1750   27.3327 O.2       2 ALA2        0.0000 
    126 O          49.5556   31.4936   26.6177 O.2       2 ALA2        0.0000 
    127 O          48.8538   28.2244   26.8824 O.2       2 ALA2        0.0000 
    128 O          48.8537   29.5430   26.1674 O.2       2 ALA2        0.0000 
    129 CA         48.8537   30.8616   25.4523 C.3       5 GLY6        0.0000 
    130 N          48.1518   28.9111   25.0021 N.2       2 ALA2        0.0000 
    131 N          48.1518   30.2297   24.2870 N.2       2 ALA2        0.0000 
    132 N          48.1517   31.5483   23.5720 N.2       2 ALA2        0.0000 
    133 N          47.4499   28.2792   23.8367 N.2       2 ALA2        0.0000 
    134 N          47.4499   29.5978   23.1217 N.2       2 ALA2        0.0000 
    135 N          47.4498   30.9164   22.4067 N.2       2 ALA2        0.0000 
    136 N          47.4498   32.2350   21.6916 N.2       2 ALA2        0.0000 
    137 O          46.7480   27.6472   22.6714 O.2       2 ALA2        0.0000 
    138 N          46.7480   28.9658   21.9564 N.2       2 ALA2        0.0000 
    139 N          46.7479   30.2845   21.2413 N.2       2 ALA2        0.0000 
    140 N          46.7479   31.6031   20.5263 N.2       2 ALA2        0.0000 
    141 OG         46.7478   32.9217   19.8113 O.2       1 SER1        0.0000 
    142 N          46.0460   28.3339   20.7911 N.2       2 ALA2        0.0000 
    143 DU         46.0460   29.6525   20.0760 H         6 CUB7        0.0000 
    144 DU         46.0460   30.9711   19.3610 H         6 CUB7        0.0000 
    145 OG         46.0459   32.2897   18.6460 O.2       1 SER1        0.0000 
    146 OG         46.0459   33.6083   17.9309 O.2       1 SER1        0.0000 
    147 N          45.3441   27.7020   19.6257 N.2       2 ALA2        0.0000 
    148 DU         45.3441   29.0206   18.9107 H         6 CUB7        0.0000 
    149 CZ         45.3441   30.3392   18.1957 C.ar      4 PHE5        0.0000 
    150 CZ         45.3440   31.6578   17.4806 C.ar      4 PHE5        0.0000 
    151 CZ         45.3440   32.9764   16.7656 C.ar      4 PHE5        0.0000 
    152 N          44.6423   25.7514   19.1754 N.2       2 ALA2        0.0000 
    153 N          44.6422   27.0700   18.4604 N.2       2 ALA2        0.0000 
    154 DU         44.6422   28.3887   17.7454 H         6 CUB7        0.0000 
    155 CZ         44.6421   29.7073   17.0303 C.ar      4 PHE5        0.0000 
    156 CZ         43.9403   27.7567   16.5801 C.ar      4 PHE5        0.0000 
    157 O          43.2383   28.4434   14.6997 O.2       2 ALA2        0.0000 
@<TRIPOS>BOND
@<TRIPOS>SUBSTRUCTURE
     1 SER1       15 GROUP   
     2 ALA2        5 GROUP   
     3 LYS4        1 GROUP   
     4 PHE5       41 GROUP   
     5 GLY6       11 GROUP   
     6 CUB7        4 GROUP   
@<TRIPOS>SET

