#    Name: 1ig0_VIB_1_INTS_M
#    Modification time : Tue Mar 25 06:59:49 2014

@<TRIPOS>MOLECULE
1ig0_VIB_1_INTS_M
   52     0     9     0     0
SMALL
NO_CHARGES


@<TRIPOS>ATOM
      1 CA         47.9470   32.4595   15.9235 C.3       3 GLC5        0.0000 
      2 CA         46.3440   32.9250   17.0050 C.3       9 GLL5        0.0000 
      3 CA         49.5500   31.9940   14.8420 C.3       6 GLP5        0.0000 
      4 CA         46.5170   33.8205   15.3960 C.3       3 GLC5        0.0000 
      5 CA         46.6900   34.7160   13.7870 C.3       6 GLP5        0.0000 
      6 CA         44.9950   32.1250   15.9990 C.3       3 GLC5        0.0000 
      7 CA         43.6460   31.3250   14.9930 C.3       6 GLP5        0.0000 
      8 O          49.5545   29.5330   21.3490 O.2       1 ALC1        0.0000 
      9 O          49.1490   30.3080   20.1410 O.2       7 ALL1        0.0000 
     10 O          49.9600   28.7580   22.5570 O.2       4 ALP1        0.0000 
     11 CA         50.8165   30.0415   24.5800 C.3       3 GLC5        0.0000 
     12 CA         49.2850   31.2900   25.1440 C.3       9 GLL5        0.0000 
     13 CA         52.3480   28.7930   24.0160 C.3       6 GLP5        0.0000 
     14 CA         50.5160   32.1950   24.1905 C.3       3 GLC5        0.0000 
     15 CA         51.7470   33.1000   23.2370 C.3       6 GLP5        0.0000 
     16 CA         45.7910   27.4795   26.7585 C.3       3 GLC5        0.0000 
     17 CA         46.8670   29.2240   27.4290 C.3       9 GLL5        0.0000 
     18 CA         44.7150   25.7350   26.0880 C.3       6 GLP5        0.0000 
     19 CA         48.0735   28.2400   21.9270 C.3       3 GLC5        0.0000 
     20 CA         46.8790   29.8960   22.8500 C.3       9 GLL5        0.0000 
     21 CA         49.2680   26.5840   21.0040 C.3       6 GLP5        0.0000 
     22 CA         46.5640   26.6275   23.5040 C.3       3 GLC5        0.0000 
     23 CA         46.4310   28.5750   23.9740 C.3       9 GLL5        0.0000 
     24 CA         46.6970   24.6800   23.0340 C.3       6 GLP5        0.0000 
     25 CA         44.7215   27.9225   24.5175 C.3       3 GLC5        0.0000 
     26 CA         43.0120   27.2700   25.0610 C.3       6 GLP5        0.0000 
     27 CA         49.3350   33.1320   22.0475 C.3       3 GLC5        0.0000 
     28 CA         48.2170   31.8260   22.4340 C.3       9 GLL5        0.0000 
     29 CA         50.4530   34.4380   21.6610 C.3       6 GLP5        0.0000 
     30 N          45.4395   34.3675   19.4385 N.am      2 SEC2        0.0000 
     31 N          46.3580   33.4010   19.4830 N.am      8 SEL2        0.0000 
     32 N          44.5210   35.3340   19.3940 N.am      5 SEP2        0.0000 
     33 CA         44.7575   33.4405   20.2280 C.3       3 GLC5        0.0000 
     34 CA         46.8100   33.1350   20.7910 C.3       9 GLL5        0.0000 
     35 CA         42.7050   33.7460   19.6650 C.3       6 GLP5        0.0000 
     36 CA         46.6605   35.0655   21.4020 C.3       3 GLC5        0.0000 
     37 CA         46.5110   36.9960   22.0130 C.3       6 GLP5        0.0000 
     38 CA         48.2575   33.6943   18.0512 C.3       3 GLC5        0.0000 
     39 CA         46.8300   32.6400   18.3980 C.3       9 GLL5        0.0000 
     40 CA         49.9280   34.6060   18.4010 C.3       6 GLP5        0.0000 
     41 CA         44.9225   33.8608   18.2922 C.3       3 GLC5        0.0000 
     42 CA         43.2580   34.9390   18.8830 C.3       6 GLP5        0.0000 
     43 CA         46.7390   30.8960   26.5990 C.3       3 GLC5        0.0000 
     44 CA         47.9830   28.8140   26.4330 C.3       9 GLL5        0.0000 
     45 CA         46.0530   32.7730   26.2670 C.3       6 GLP5        0.0000 
     46 CA         47.1289   31.4423   25.5948 C.3       3 GLC5        0.0000 
     47 CA         47.6580   29.3540   25.0430 C.3       9 GLL5        0.0000 
     48 CA         49.7501   28.6485   24.5215 C.3       3 GLC5        0.0000 
     49 CA         48.2180   30.4480   24.4600 C.3       9 GLL5        0.0000 
     50 CA         51.4810   27.5310   23.9440 C.3       6 GLP5        0.0000 
     51 CA         48.6612   33.5182   19.5181 C.3       3 GLC5        0.0000 
     52 CA         47.7420   32.1080   21.0250 C.3       9 GLL5        0.0000 
@<TRIPOS>BOND
@<TRIPOS>SUBSTRUCTURE
     1 ALC1        8 GROUP        1 X    ALC  0     ROOT ALC X 1
     2 SEC2       30 GROUP        1 X    SEC  0     **** SEC X 2
     3 GLC5        1 GROUP        1 X    GLC  0     **** GLC X 6
     4 ALP1       10 GROUP        1 Y    ALP  0     ROOT ALP Y 8
     5 SEP2       32 GROUP        1 Y    SEP  0     **** SEP Y 9
     6 GLP5        3 GROUP        1 Y    GLP  0     **** GLP Y 13
     7 ALL1        9 GROUP        1 Z    ALL  0     ROOT ALL Z 15
     8 SEL2       31 GROUP        1 Z    SEL  0     **** SEL Z 16
     9 GLL5        2 GROUP        1 Z    GLL  0     **** GLL Z 20
@<TRIPOS>SET

