#    Name: 1ig0_VIB_1_ligand
#    Modification time : Tue Mar 25 06:59:49 2014

@<TRIPOS>MOLECULE
1ig0_VIB_1_ligand
   35    36     1     0     0
SMALL
NO_CHARGES


@<TRIPOS>ATOM
      1 CM2        46.3440   32.9250   17.0050 C.3       1 VIB702      0.0000 
      2 N4A        49.1490   30.3080   20.1410 N.pl3     1 VIB702      0.0000 
      3 CM4        49.2850   31.2900   25.1440 C.3       1 VIB702      0.0000 
      4 O1         45.5870   28.9070   26.8720 O.3       1 VIB702      0.0000 
      5 C7         46.8670   29.2240   27.4290 C.3       1 VIB702      0.0000 
      6 C6         47.9830   28.8140   26.4330 C.3       1 VIB702      0.0000 
      7 C2         46.8790   29.8960   22.8500 C.2       1 VIB702      0.0000 
      8 S1         46.4310   28.5750   23.9740 S.3       1 VIB702      0.0000 
      9 C5         47.6580   29.3540   25.0430 C.2       1 VIB702      0.0000 
     10 C4         48.2180   30.4480   24.4600 C.2       1 VIB702      0.0000 
     11 N3         47.7620   30.6860   23.2790 N.pl3     1 VIB702      0.0000 
     12 C7A        48.2170   31.8260   22.4340 C.3       1 VIB702      0.0000 
     13 C4A        48.2160   31.3440   19.9340 C.ar      1 VIB702      0.0000 
     14 N3A        47.7610   31.6140   18.6250 N.ar      1 VIB702      0.0000 
     15 C2A        46.8300   32.6400   18.3980 C.ar      1 VIB702      0.0000 
     16 N1A        46.3580   33.4010   19.4830 N.ar      1 VIB702      0.0000 
     17 C6A        46.8100   33.1350   20.7910 C.ar      1 VIB702      0.0000 
     18 C5A        47.7420   32.1080   21.0250 C.ar      1 VIB702      0.0000 
     19 H          49.7769   30.1236   19.3847 H         1 VIB702      0.0000 
     20 H          49.1038   29.8455   21.0265 H         1 VIB702      0.0000 
     21 H          47.0528   28.6879   28.3630 H         1 VIB702      0.0000 
     22 H          46.9788   30.2944   27.6188 H         1 VIB702      0.0000 
     23 H          48.0422   27.7342   26.4015 H         1 VIB702      0.0000 
     24 H          48.9234   29.2255   26.7749 H         1 VIB702      0.0000 
     25 H          46.3414   29.7894   22.0430 H         1 VIB702      0.0000 
     26 H          49.3766   31.8007   22.4002 H         1 VIB702      0.0000 
     27 H          48.0632   32.8015   23.0432 H         1 VIB702      0.0000 
     28 H          46.4572   33.6932   21.5746 H         1 VIB702      0.0000 
     29 H          47.0949   33.1738   16.3933 H         1 VIB702      0.0000 
     30 H          45.8876   32.1320   16.6014 H         1 VIB702      0.0000 
     31 H          45.6891   33.6805   16.9874 H         1 VIB702      0.0000 
     32 H          50.0988   30.7518   25.3632 H         1 VIB702      0.0000 
     33 H          49.5833   32.0511   24.5680 H         1 VIB702      0.0000 
     34 H          48.9542   31.6836   26.0017 H         1 VIB702      0.0000 
     35 H          45.0583   28.5341   27.6345 H         1 VIB702      0.0000 
@<TRIPOS>BOND
     1   15    1 1    
     2   29    1 1    
     3   30    1 1    
     4   31    1 1    
     5   13    2 1    
     6   19    2 1    
     7   20    2 1    
     8   10    3 1    
     9   32    3 1    
    10   33    3 1    
    11   34    3 1    
    12    5    4 1    
    13   35    4 1    
    14    6    5 1    
    15   21    5 1    
    16   22    5 1    
    17    9    6 1    
    18   23    6 1    
    19   24    6 1    
    20    8    7 1    
    21   11    7 2    
    22   25    7 1    
    23    9    8 1    
    24   10    9 2    
    25   11   10 1    
    26   12   11 1    
    27   18   12 1    
    28   26   12 1    
    29   27   12 1    
    30   14   13 ar   
    31   18   13 ar   
    32   15   14 ar   
    33   16   15 ar   
    34   17   16 ar   
    35   18   17 ar   
    36   28   17 1    
@<TRIPOS>SUBSTRUCTURE
     1 VIB702      1 GROUP   
@<TRIPOS>SET

