#    Name: 3lgp_50X_1_INTS_M
#    Modification time : Mon Mar 24 21:39:03 2014

@<TRIPOS>MOLECULE
3lgp_50X_1_INTS_M
  105     0    12     0     0
SMALL
NO_CHARGES


@<TRIPOS>ATOM
      1 CA          1.8805   10.9090   20.3615 C.3       4 GLC5        0.0000 
      2 CA          3.8930   10.9710   20.0510 C.3      12 GLL5        0.0000 
      3 CA         -0.1320   10.8470   20.6720 C.3       8 GLP5        0.0000 
      4 CA          9.2235    3.9465   30.0225 C.3       4 GLC5        0.0000 
      5 CA          9.3350    3.9740   31.7980 C.3      12 GLL5        0.0000 
      6 CA          9.1120    3.9190   28.2470 C.3       8 GLP5        0.0000 
      7 CA         10.1025    1.5040   32.0860 C.3       4 GLC5        0.0000 
      8 CA          8.4160    2.9260   32.1580 C.3      12 GLL5        0.0000 
      9 CA         11.7890    0.0820   32.0140 C.3       8 GLP5        0.0000 
     10 CA          5.2980    4.8395   30.6945 C.3       4 GLC5        0.0000 
     11 CA          6.5840    4.6300   32.3500 C.3      12 GLL5        0.0000 
     12 CA          4.0120    5.0490   29.0390 C.3       8 GLP5        0.0000 
     13 CA          5.6120    3.9755   33.7115 C.3       4 GLC5        0.0000 
     14 CA          4.6400    3.3210   35.0730 C.3       8 GLP5        0.0000 
     15 N          11.1920    2.3520   31.1300 N.am      2 SEC2        0.0000 
     16 N          10.6650    3.8930   31.5000 N.am     10 SEL2        0.0000 
     17 N          11.7190    0.8110   30.7600 N.am      6 SEP2        0.0000 
     18 CA          6.5425    9.0555   30.9935 C.3       4 GLC5        0.0000 
     19 CA          7.7860    8.2870   29.8030 C.3      12 GLL5        0.0000 
     20 CA          5.2990    9.8240   32.1840 C.3       8 GLP5        0.0000 
     21 CA          9.7965    6.1680   26.1330 C.3       4 GLC5        0.0000 
     22 CA          8.8760    7.7010   27.4600 C.3      12 GLL5        0.0000 
     23 CA         10.7170    4.6350   24.8060 C.3       8 GLP5        0.0000 
     24 CA          4.3000   12.9915   24.3490 C.3       4 GLC5        0.0000 
     25 CA          5.9780   11.6570   23.9710 C.3      12 GLL5        0.0000 
     26 CA          2.6220   14.3260   24.7270 C.3       8 GLP5        0.0000 
     27 N           3.5475    7.9945   25.5245 N.am      2 SEC2        0.0000 
     28 N           4.9090    8.8250   25.0380 N.am     10 SEL2        0.0000 
     29 N           2.1860    7.1640   26.0110 N.am      6 SEP2        0.0000 
     30 O           7.9985   10.4950   26.2950 O.2       1 ALC1        0.0000 
     31 O           6.8690    9.1960   26.1520 O.2       9 ALL1        0.0000 
     32 O           9.1280   11.7940   26.4380 O.2       5 ALP1        0.0000 
     33 Zn          7.5165   12.4920   24.7445 Zn        3 ZIC7        0.0000 
     34 Zn          6.4670   12.5140   24.9840 Zn       11 ZIL7        0.0000 
     35 Zn          8.5660   12.4700   24.5050 Zn        7 ZIP7        0.0000 
     36 N           5.8140   13.3220   25.8205 N.am      2 SEC2        0.0000 
     37 N           6.4670   12.5140   24.9840 N.am     10 SEL2        0.0000 
     38 N           5.1610   14.1300   26.6570 N.am      6 SEP2        0.0000 
     39 O           5.7205   12.2665   26.1000 O.2       1 ALC1        0.0000 
     40 O           6.4670   12.5140   24.9840 O.2       9 ALL1        0.0000 
     41 O           4.9740   12.0190   27.2160 O.2       5 ALP1        0.0000 
     42 CA          4.5660    7.7880   27.8910 C.3       4 GLC5        0.0000 
     43 CA          6.4940    8.5770   27.3870 C.3      12 GLL5        0.0000 
     44 CA          2.6380    6.9990   28.3950 C.3       8 GLP5        0.0000 
     45 CA          7.4510   10.3510   27.4695 C.3       4 GLC5        0.0000 
     46 CA          8.4080   12.1250   27.5520 C.3       8 GLP5        0.0000 
     47 Zn          8.2625   11.4620   24.2225 Zn        3 ZIC7        0.0000 
     48 Zn          7.9590   10.4540   23.9400 Zn       11 ZIL7        0.0000 
     49 Zn          7.9960   12.7800   23.4705 Zn        3 ZIC7        0.0000 
     50 Zn          7.4260   13.0900   22.4360 Zn       11 ZIL7        0.0000 
     51 CA          9.3840    7.5545   32.7935 C.3       4 GLC5        0.0000 
     52 CA         10.1700    7.5030   31.0720 C.3      12 GLL5        0.0000 
     53 CA          8.5980    7.6060   34.5150 C.3       8 GLP5        0.0000 
     54 CA         10.8350    9.0770   32.0480 C.3       4 GLC5        0.0000 
     55 CA         11.5000   10.6510   33.0240 C.3       8 GLP5        0.0000 
     56 CA         15.0965    4.5605   29.9685 C.3       4 GLC5        0.0000 
     57 CA         13.1710    4.3240   30.5880 C.3      12 GLL5        0.0000 
     58 CA         17.0220    4.7970   29.3490 C.3       8 GLP5        0.0000 
     59 CA         13.1255    8.1115   30.7310 C.3       4 GLC5        0.0000 
     60 CA         12.6150    6.2450   29.6550 C.3      12 GLL5        0.0000 
     61 CA         13.6360    9.9780   31.8070 C.3       8 GLP5        0.0000 
     62 CA         13.7445    6.6270   28.4050 C.3       4 GLC5        0.0000 
     63 CA         14.8740    7.0090   27.1550 C.3       8 GLP5        0.0000 
     64 CA         10.8635    5.0820   28.9510 C.3       4 GLC5        0.0000 
     65 CA         13.3980    8.0115   31.8690 C.3       4 GLC5        0.0000 
     66 CA         13.1600    6.0450   31.9310 C.3      12 GLL5        0.0000 
     67 CA         14.0230    6.1125   33.3840 C.3       4 GLC5        0.0000 
     68 CA         14.8860    6.1800   34.8370 C.3       8 GLP5        0.0000 
     69 CA         10.5085    7.8670   21.2315 C.3       4 GLC5        0.0000 
     70 CA          8.8280    7.6000   20.2440 C.3      12 GLL5        0.0000 
     71 CA         12.1890    8.1340   22.2190 C.3       8 GLP5        0.0000 
     72 CA          4.4055   13.1282   20.6395 C.3       4 GLC5        0.0000 
     73 CA          6.0790   12.1030   20.1490 C.3      12 GLL5        0.0000 
     74 CA          3.3420   14.2740   21.5880 C.3       8 GLP5        0.0000 
     75 CA          2.9950    9.7703   21.9168 C.3       4 GLC5        0.0000 
     76 CA          1.8730    8.5540   23.0330 C.3       8 GLP5        0.0000 
     77 CA          3.7295   12.6303   21.1943 C.3       4 GLC5        0.0000 
     78 CA          4.3410   11.0020   21.5500 C.3      12 GLL5        0.0000 
     79 CA          9.3663    4.5095   33.6225 C.3       4 GLC5        0.0000 
     80 CA          9.8570    5.5690   35.2670 C.3       8 GLP5        0.0000 
     81 CA          9.7707    2.7005   33.5665 C.3       4 GLC5        0.0000 
     82 CA         10.6660    1.9510   35.1550 C.3       8 GLP5        0.0000 
     83 CA          6.5240    2.5315   33.7745 C.3       4 GLC5        0.0000 
     84 CA          5.3210    1.9660   35.2620 C.3       8 GLP5        0.0000 
     85 CA          7.9920    6.3312   33.3019 C.3       4 GLC5        0.0000 
     86 CA          5.5085    6.4187   31.9023 C.3       4 GLC5        0.0000 
     87 CA          7.5040    5.6450   31.9610 C.3      12 GLL5        0.0000 
     88 CA          3.9730    7.7000   31.6490 C.3       8 GLP5        0.0000 
     89 CA          7.6830    6.1183   28.7425 C.3       4 GLC5        0.0000 
     90 CA          7.6900    8.0880   28.0590 C.3      12 GLL5        0.0000 
     91 CA          7.6280    4.0490   28.5540 C.3       8 GLP5        0.0000 
     92 CA          8.7067    9.9047   29.9360 C.3       4 GLC5        0.0000 
     93 CA          8.7900   11.7420   30.0790 C.3       8 GLP5        0.0000 
     94 CA          9.0845    9.6621   28.3696 C.3       4 GLC5        0.0000 
     95 CA          9.8430    7.4240   28.4830 C.3      12 GLL5        0.0000 
     96 CA          9.1060   11.6650   28.6180 C.3       8 GLP5        0.0000 
     97 CA          9.1880    5.7937   28.2718 C.3       4 GLC5        0.0000 
     98 CA          7.3287   11.5465   25.7662 C.3       4 GLC5        0.0000 
     99 CA          6.5210   10.2790   23.9900 C.3      12 GLL5        0.0000 
    100 CA         13.2850    3.9795   29.3951 C.3       4 GLC5        0.0000 
    101 CA         12.5070    5.4620   30.8310 C.3      12 GLL5        0.0000 
    102 CA         13.8430    2.3900   28.6080 C.3       8 GLP5        0.0000 
    103 CA         10.6815    8.8518   20.8075 C.3       4 GLC5        0.0000 
    104 CA          8.6700    9.2490   19.7710 C.3      12 GLL5        0.0000 
    105 CA          7.5922    4.0629   30.3709 C.3       4 GLC5        0.0000 
@<TRIPOS>BOND
@<TRIPOS>SUBSTRUCTURE
     1 ALC1       30 GROUP        1 X    ALC  0     ROOT ALC X 1
     2 SEC2       15 GROUP        1 X    SEC  0     **** SEC X 2
     3 ZIC7       33 GROUP        1 X    ZIC  0     **** ZIC X 5
     4 GLC5        1 GROUP        1 X    GLC  0     **** GLC X 6
     5 ALP1       32 GROUP        1 Y    ALP  0     ROOT ALP Y 8
     6 SEP2       17 GROUP        1 Y    SEP  0     **** SEP Y 9
     7 ZIP7       35 GROUP        1 Y    ZIP  0     **** ZIP Y 12
     8 GLP5        3 GROUP        1 Y    GLP  0     **** GLP Y 13
     9 ALL1       31 GROUP        1 Z    ALL  0     ROOT ALL Z 15
    10 SEL2       16 GROUP        1 Z    SEL  0     **** SEL Z 16
    11 ZIL7       34 GROUP        1 Z    ZIL  0     **** ZIL Z 19
    12 GLL5        2 GROUP        1 Z    GLL  0     **** GLL Z 20
@<TRIPOS>SET

