#    Name: 3lgp_50X_1_ligand
#    Modification time : Mon Mar 24 21:39:03 2014

@<TRIPOS>MOLECULE
3lgp_50X_1_ligand
   66    70     1     0     0
SMALL
NO_CHARGES


@<TRIPOS>ATOM
      1 N1          5.6520   11.7720   21.4920 N.am      1 50X485      0.0000 
      2 C2          6.0790   12.1030   20.1490 C.3       1 50X485      0.0000 
      3 C3          4.8590   11.8620   19.2330 C.3       1 50X485      0.0000 
      4 C4          3.8930   10.9710   20.0510 C.3       1 50X485      0.0000 
      5 C5          4.3410   11.0020   21.5500 C.3       1 50X485      0.0000 
      6 C6          8.8720    5.3210   31.6940 C.ar      1 50X485      0.0000 
      7 C7          9.3350    3.9740   31.7980 C.ar      1 50X485      0.0000 
      8 C8          8.4160    2.9260   32.1580 C.ar      1 50X485      0.0000 
      9 C9          7.0380    3.2680   32.4160 C.ar      1 50X485      0.0000 
     10 C10         6.5840    4.6300   32.3500 C.ar      1 50X485      0.0000 
     11 C11         7.5040    5.6450   31.9610 C.ar      1 50X485      0.0000 
     12 N12        10.0370    6.0480   31.3190 N.pl3     1 50X485      0.0000 
     13 C13        11.0750    5.1150   31.2070 C.2       1 50X485      0.0000 
     14 N14        10.6650    3.8930   31.5000 N.2       1 50X485      0.0000 
     15 C15         7.6900    8.0880   28.0590 C.2       1 50X485      0.0000 
     16 S16         7.7860    8.2870   29.8030 S.3       1 50X485      0.0000 
     17 C17         9.4610    7.8480   29.7830 C.2       1 50X485      0.0000 
     18 C18         9.8430    7.4240   28.4830 C.2       1 50X485      0.0000 
     19 C19         8.8760    7.7010   27.4600 C.2       1 50X485      0.0000 
     20 C20         6.4500   12.2280   22.5690 C.2       1 50X485      0.0000 
     21 C21         5.9780   11.6570   23.9710 C.3       1 50X485      0.0000 
     22 C22         6.5210   10.2790   23.9900 C.3       1 50X485      0.0000 
     23 C23         6.0230    9.3460   25.0680 C.2       1 50X485      0.0000 
     24 O24         4.9090    8.8250   25.0380 O.2       1 50X485      0.0000 
     25 N25         6.8690    9.1960   26.1520 N.am      1 50X485      0.0000 
     26 O26         6.4670   12.5140   24.9840 O.3       1 50X485      0.0000 
     27 C27         6.4940    8.5770   27.3870 C.3       1 50X485      0.0000 
     28 O28         7.9590   10.4540   23.9400 O.3       1 50X485      0.0000 
     29 O29         7.4260   13.0900   22.4360 O.2       1 50X485      0.0000 
     30 C30        10.1700    7.5030   31.0720 C.3       1 50X485      0.0000 
     31 C31        12.5070    5.4620   30.8310 C.3       1 50X485      0.0000 
     32 F32        13.1710    4.3240   30.5880 F         1 50X485      0.0000 
     33 F33        12.6150    6.2450   29.6550 F         1 50X485      0.0000 
     34 F34        13.1600    6.0450   31.9310 F         1 50X485      0.0000 
     35 C35         7.3180   11.3140   19.7720 C.ar      1 50X485      0.0000 
     36 C36         7.4900    9.9540   20.1560 C.ar      1 50X485      0.0000 
     37 C37         8.6700    9.2490   19.7710 C.ar      1 50X485      0.0000 
     38 C38         9.6780    9.8900   19.0210 C.ar      1 50X485      0.0000 
     39 C39         9.4900   11.2600   18.6360 C.ar      1 50X485      0.0000 
     40 C40         8.3270   11.9700   19.0060 C.ar      1 50X485      0.0000 
     41 CL41        8.8280    7.6000   20.2440 Cl        1 50X485      0.0000 
     42 H           6.3078   13.1696   20.1033 H         1 50X485      0.0000 
     43 H           5.1669   11.3408   18.3588 H         1 50X485      0.0000 
     44 H           4.3871   12.7898   19.0163 H         1 50X485      0.0000 
     45 H           3.9459    9.9613   19.6935 H         1 50X485      0.0000 
     46 H           2.8964   11.3604   19.9783 H         1 50X485      0.0000 
     47 H           3.6236   11.5336   22.1079 H         1 50X485      0.0000 
     48 H           4.5057   10.0144   21.8758 H         1 50X485      0.0000 
     49 H           8.7262    1.9751   32.2286 H         1 50X485      0.0000 
     50 H           6.3758    2.5275   32.6494 H         1 50X485      0.0000 
     51 H           5.6290    4.8570   32.5765 H         1 50X485      0.0000 
     52 H           7.1887    6.6103   31.8713 H         1 50X485      0.0000 
     53 H          10.6920    6.9800   28.2931 H         1 50X485      0.0000 
     54 H           9.0492    7.6231   26.5338 H         1 50X485      0.0000 
     55 H           4.9086   11.6274   23.9118 H         1 50X485      0.0000 
     56 H           6.2306    9.8253   22.9894 H         1 50X485      0.0000 
     57 H           7.8572    9.5541   26.0835 H         1 50X485      0.0000 
     58 H           5.9722    9.2952   28.0378 H         1 50X485      0.0000 
     59 H           5.8031    7.7394   27.2066 H         1 50X485      0.0000 
     60 H          11.2193    7.7768   30.9857 H         1 50X485      0.0000 
     61 H           9.7215    8.0667   31.8872 H         1 50X485      0.0000 
     62 H           6.7746    9.4841   20.7036 H         1 50X485      0.0000 
     63 H          10.5212    9.4035   18.7540 H         1 50X485      0.0000 
     64 H          10.2192   11.7223   18.0824 H         1 50X485      0.0000 
     65 H           8.2037   12.9396   18.7324 H         1 50X485      0.0000 
     66 H           6.3238   12.0134   25.8378 H         1 50X485      0.0000 
@<TRIPOS>BOND
     1    2    1 1    
     2    5    1 1    
     3   20    1 am   
     4    3    2 1    
     5   35    2 1    
     6   42    2 1    
     7    4    3 1    
     8   43    3 1    
     9   44    3 1    
    10    5    4 1    
    11   45    4 1    
    12   46    4 1    
    13   47    5 1    
    14   48    5 1    
    15    7    6 ar   
    16   11    6 ar   
    17   12    6 1    
    18    8    7 ar   
    19   14    7 1    
    20    9    8 ar   
    21   49    8 1    
    22   10    9 ar   
    23   50    9 1    
    24   11   10 ar   
    25   51   10 1    
    26   52   11 1    
    27   13   12 1    
    28   30   12 1    
    29   14   13 2    
    30   31   13 1    
    31   16   15 1    
    32   19   15 2    
    33   27   15 1    
    34   17   16 1    
    35   18   17 2    
    36   30   17 1    
    37   19   18 1    
    38   53   18 1    
    39   54   19 1    
    40   21   20 1    
    41   29   20 2    
    42   22   21 1    
    43   26   21 1    
    44   55   21 1    
    45   23   22 1    
    46   28   22 1    
    47   56   22 1    
    48   24   23 2    
    49   25   23 am   
    50   27   25 1    
    51   57   25 1    
    52   66   26 1    
    53   58   27 1    
    54   59   27 1    
    55   60   30 1    
    56   61   30 1    
    57   32   31 1    
    58   33   31 1    
    59   34   31 1    
    60   36   35 ar   
    61   40   35 ar   
    62   37   36 ar   
    63   62   36 1    
    64   38   37 ar   
    65   41   37 1    
    66   39   38 ar   
    67   63   38 1    
    68   40   39 ar   
    69   64   39 1    
    70   65   40 1    
@<TRIPOS>SUBSTRUCTURE
     1 50X485      1 GROUP   
@<TRIPOS>SET

