#    Name: 1gx1_CDP_2_INTS_M
#    Modification time : Tue Mar 25 04:06:26 2014

@<TRIPOS>MOLECULE
1gx1_CDP_2_INTS_M
   50     0    12     0     0
SMALL
NO_CHARGES


@<TRIPOS>ATOM
      1 Zn         20.4690   11.0955   61.8730 Zn        3 ZIC7        0.0000 
      2 Zn         20.4550   12.0630   62.3980 Zn       11 ZIL7        0.0000 
      3 Zn         20.4830   10.1280   61.3480 Zn        7 ZIP7        0.0000 
      4 Zn         19.3810   14.2185   64.2615 Zn        3 ZIC7        0.0000 
      5 Zn         19.3580   14.2090   63.3950 Zn       11 ZIL7        0.0000 
      6 Zn         19.4040   14.2280   65.1280 Zn        7 ZIP7        0.0000 
      7 N          17.9070   14.1415   63.8625 N.am      2 SEC2        0.0000 
      8 N          19.3580   14.2090   63.3950 N.am     10 SEL2        0.0000 
      9 N          16.4560   14.0740   64.3300 N.am      6 SEP2        0.0000 
     10 N          15.6885   11.9485   59.5760 N.am      2 SEC2        0.0000 
     11 N          16.9970   11.8980   60.0010 N.am     10 SEL2        0.0000 
     12 N          14.3800   11.9990   59.1510 N.am      6 SEP2        0.0000 
     13 N          16.4295   10.6610   59.9835 N.am      2 SEC2        0.0000 
     14 N          15.8620    9.4240   59.9660 N.am      6 SEP2        0.0000 
     15 Zn         19.9165   10.5370   60.5585 Zn        3 ZIC7        0.0000 
     16 Zn         19.3500   10.9460   59.7690 Zn       11 ZIL7        0.0000 
     17 O          18.0980   17.0425   58.8505 O.2       1 ALC1        0.0000 
     18 O          19.0500   16.5950   57.9550 O.2       9 ALL1        0.0000 
     19 O          17.1460   17.4900   59.7460 O.2       5 ALP1        0.0000 
     20 O          19.0735   18.3020   55.7710 O.2       1 ALC1        0.0000 
     21 O          19.0540   16.9430   55.3000 O.2       9 ALL1        0.0000 
     22 O          19.0930   19.6610   56.2420 O.2       5 ALP1        0.0000 
     23 O          18.0350   18.2150   55.4925 O.2       1 ALC1        0.0000 
     24 O          17.0160   19.4870   55.6850 O.2       5 ALP1        0.0000 
     25 CA         18.8020   13.7345   53.4250 C.3       4 GLC5        0.0000 
     26 CA         18.0990   14.7250   54.9330 C.3      12 GLL5        0.0000 
     27 CA         19.5050   12.7440   51.9170 C.3       8 GLP5        0.0000 
     28 N          15.6855   14.2560   51.4895 N.am      2 SEC2        0.0000 
     29 N          16.7250   14.7690   52.6140 N.am     10 SEL2        0.0000 
     30 N          14.6460   13.7430   50.3650 N.am      6 SEP2        0.0000 
     31 N          16.4280   15.4305   51.4005 N.am      2 SEC2        0.0000 
     32 N          16.1310   16.0920   50.1870 N.am      6 SEP2        0.0000 
     33 N          14.9455   13.4435   51.7750 N.am      2 SEC2        0.0000 
     34 N          15.2450   13.1440   53.1850 N.am     10 SEL2        0.0000 
     35 O          12.8755   11.1170   54.9350 O.2       1 ALC1        0.0000 
     36 O          13.4440   11.8280   53.7960 O.2       9 ALL1        0.0000 
     37 O          12.3070   10.4060   56.0740 O.2       5 ALP1        0.0000 
     38 O          13.1860   11.4095   52.4070 O.2       1 ALC1        0.0000 
     39 O          12.9280   10.9910   51.0180 O.2       5 ALP1        0.0000 
     40 CA         20.1883   16.7196   56.6514 C.3       4 GLC5        0.0000 
     41 CA         19.4980   14.5060   56.7650 C.3      12 GLL5        0.0000 
     42 CA         21.8600   17.8900   56.9730 C.3       8 GLP5        0.0000 
     43 CA         14.4935   14.5690   55.2377 C.3       4 GLC5        0.0000 
     44 CA         16.1470   13.3430   55.7480 C.3      12 GLL5        0.0000 
     45 CA         13.4240   16.1650   54.8640 C.3       8 GLP5        0.0000 
     46 CA         14.8875   13.6945   57.2107 C.3       4 GLC5        0.0000 
     47 CA         14.9790   12.6030   55.4750 C.3      12 GLL5        0.0000 
     48 CA         14.2120   14.4160   58.8100 C.3       8 GLP5        0.0000 
     49 CA         15.5260   11.3585   56.6412 C.3       4 GLC5        0.0000 
     50 CA         15.4890    9.7440   57.6710 C.3       8 GLP5        0.0000 
@<TRIPOS>BOND
@<TRIPOS>SUBSTRUCTURE
     1 ALC1       17 GROUP        1 X    ALC  0     ROOT ALC X 1
     2 SEC2        7 GROUP        1 X    SEC  0     **** SEC X 2
     3 ZIC7        1 GROUP        1 X    ZIC  0     **** ZIC X 5
     4 GLC5       25 GROUP        1 X    GLC  0     **** GLC X 6
     5 ALP1       19 GROUP        1 Y    ALP  0     ROOT ALP Y 8
     6 SEP2        9 GROUP        1 Y    SEP  0     **** SEP Y 9
     7 ZIP7        3 GROUP        1 Y    ZIP  0     **** ZIP Y 12
     8 GLP5       27 GROUP        1 Y    GLP  0     **** GLP Y 13
     9 ALL1       18 GROUP        1 Z    ALL  0     ROOT ALL Z 15
    10 SEL2        8 GROUP        1 Z    SEL  0     **** SEL Z 16
    11 ZIL7        2 GROUP        1 Z    ZIL  0     **** ZIL Z 19
    12 GLL5       26 GROUP        1 Z    GLL  0     **** GLL Z 20
@<TRIPOS>SET

