#    Name: 1gx1_CDP_2_ligand
#    Modification time : Tue Mar 25 04:06:27 2014

@<TRIPOS>MOLECULE
1gx1_CDP_2_ligand
   37    38     1     0     0
SMALL
NO_CHARGES


@<TRIPOS>ATOM
      1 O3B        21.1470   14.1990   61.4750 O.co2     1 CDP1157     0.0000 
      2 PB         19.9220   13.4050   62.1000 P.3       1 CDP1157     0.0000 
      3 O1B        20.4550   12.0630   62.3980 O.co2     1 CDP1157     0.0000 
      4 O2B        19.3580   14.2090   63.3950 O.co2     1 CDP1157     0.0000 
      5 O3A        18.9610   13.3430   60.7880 O.3       1 CDP1157     0.0000 
      6 PA         18.4360   12.1820   59.7760 P.3       1 CDP1157     0.0000 
      7 O1A        16.9970   11.8980   60.0010 O.co2     1 CDP1157     0.0000 
      8 O2A        19.3500   10.9460   59.7690 O.co2     1 CDP1157     0.0000 
      9 O5'        18.4860   12.9990   58.4130 O.3       1 CDP1157     0.0000 
     10 C5'        19.6930   13.5670   57.9430 C.3       1 CDP1157     0.0000 
     11 C4'        19.4980   14.5060   56.7650 C.3       1 CDP1157     0.0000 
     12 O4'        18.9160   13.8530   55.6560 O.3       1 CDP1157     0.0000 
     13 C3'        18.4800   15.5990   57.0980 C.3       1 CDP1157     0.0000 
     14 O3'        19.0500   16.5950   57.9550 O.3       1 CDP1157     0.0000 
     15 C2'        18.0440   16.0460   55.7280 C.3       1 CDP1157     0.0000 
     16 O2'        19.0540   16.9430   55.3000 O.3       1 CDP1157     0.0000 
     17 C1'        18.0990   14.7250   54.9330 C.3       1 CDP1157     0.0000 
     18 N1         16.8240   14.0070   54.7280 N.am      1 CDP1157     0.0000 
     19 C2         16.2840   13.9930   53.4760 C.2       1 CDP1157     0.0000 
     20 O2         16.7250   14.7690   52.6140 O.2       1 CDP1157     0.0000 
     21 N3         15.2450   13.1440   53.1850 N.2       1 CDP1157     0.0000 
     22 C4         14.5390   12.5020   54.1610 C.2       1 CDP1157     0.0000 
     23 N4         13.4440   11.8280   53.7960 N.pl3     1 CDP1157     0.0000 
     24 C5         14.9790   12.6030   55.4750 C.2       1 CDP1157     0.0000 
     25 C6         16.1470   13.3430   55.7480 C.2       1 CDP1157     0.0000 
     26 H          20.4171   12.7822   57.6256 H         1 CDP1157     0.0000 
     27 H          20.2124   14.1419   58.7433 H         1 CDP1157     0.0000 
     28 H          20.4140   14.9813   56.5103 H         1 CDP1157     0.0000 
     29 H          17.6386   15.0813   57.5576 H         1 CDP1157     0.0000 
     30 H          17.0949   16.4096   55.7596 H         1 CDP1157     0.0000 
     31 H          18.5594   14.9357   53.9696 H         1 CDP1157     0.0000 
     32 H          12.9561   11.3518   54.5276 H         1 CDP1157     0.0000 
     33 H          13.2109   11.8604   52.8241 H         1 CDP1157     0.0000 
     34 H          14.4724   12.1532   56.2347 H         1 CDP1157     0.0000 
     35 H          16.4981   13.3888   56.7154 H         1 CDP1157     0.0000 
     36 H          18.3032   16.8756   58.5579 H         1 CDP1157     0.0000 
     37 H          18.8653   17.7962   55.7863 H         1 CDP1157     0.0000 
@<TRIPOS>BOND
     1    2    1 ar   
     2    3    2 ar   
     3    4    2 ar   
     4    5    2 1    
     5    6    5 1    
     6    7    6 ar   
     7    8    6 ar   
     8    9    6 1    
     9   10    9 1    
    10   11   10 1    
    11   26   10 1    
    12   27   10 1    
    13   12   11 1    
    14   13   11 1    
    15   28   11 1    
    16   17   12 1    
    17   14   13 1    
    18   15   13 1    
    19   29   13 1    
    20   36   14 1    
    21   16   15 1    
    22   17   15 1    
    23   30   15 1    
    24   37   16 1    
    25   18   17 1    
    26   31   17 1    
    27   19   18 am   
    28   25   18 1    
    29   20   19 2    
    30   21   19 1    
    31   22   21 2    
    32   23   22 1    
    33   24   22 1    
    34   32   23 1    
    35   33   23 1    
    36   25   24 2    
    37   34   24 1    
    38   35   25 1    
@<TRIPOS>SUBSTRUCTURE
     1 CDP1157     1 GROUP   
@<TRIPOS>SET

