#    Name: 1eup_ASD_2_INTS_M
#    Modification time : Tue Mar 25 00:17:05 2014

@<TRIPOS>MOLECULE
1eup_ASD_2_INTS_M
   44     0     3     0     0
SMALL
NO_CHARGES


@<TRIPOS>ATOM
      1 CA         -8.8605    7.6570   16.0570 C.3       1 GLC5        0.0000 
      2 CA        -10.1840    6.0260   16.6180 C.3       3 GLL5        0.0000 
      3 CA         -7.5370    9.2880   15.4960 C.3       2 GLP5        0.0000 
      4 CA        -10.6650    8.1245   18.1880 C.3       1 GLC5        0.0000 
      5 CA        -12.3070    8.1620   16.8900 C.3       3 GLL5        0.0000 
      6 CA         -9.0230    8.0870   19.4860 C.3       2 GLP5        0.0000 
      7 CA        -12.0425    8.2485   19.3230 C.3       1 GLC5        0.0000 
      8 CA        -13.1510    9.1300   17.6810 C.3       3 GLL5        0.0000 
      9 CA        -10.9340    7.3670   20.9650 C.3       2 GLP5        0.0000 
     10 CA        -17.9900    6.9510   16.9220 C.3       1 GLC5        0.0000 
     11 CA        -16.4200    7.2540   18.1380 C.3       3 GLL5        0.0000 
     12 CA        -19.5600    6.6480   15.7060 C.3       2 GLP5        0.0000 
     13 CA        -18.2325    9.3640   19.0505 C.3       1 GLC5        0.0000 
     14 CA        -16.7720    8.6680   18.6720 C.3       3 GLL5        0.0000 
     15 CA        -19.6930   10.0600   19.4290 C.3       2 GLP5        0.0000 
     16 CA        -14.1600    4.7385   14.8860 C.3       1 GLC5        0.0000 
     17 CA        -12.1740    5.5960   15.1440 C.3       3 GLL5        0.0000 
     18 CA        -16.1460    3.8810   14.6280 C.3       2 GLP5        0.0000 
     19 CA        -11.0055    4.3130   14.0175 C.3       1 GLC5        0.0000 
     20 CA         -9.8370    3.0300   12.8910 C.3       2 GLP5        0.0000 
     21 CA        -10.4920    2.5020   19.6575 C.3       1 GLC5        0.0000 
     22 CA        -11.1940    3.6270   17.9590 C.3       3 GLL5        0.0000 
     23 CA         -9.7900    1.3770   21.3560 C.3       2 GLP5        0.0000 
     24 CA         -9.5595    3.1155   16.7610 C.3       1 GLC5        0.0000 
     25 CA         -7.9250    2.6040   15.5630 C.3       2 GLP5        0.0000 
     26 CA        -11.7320    7.0515   19.1805 C.3       1 GLC5        0.0000 
     27 CA        -12.5300    6.7360   17.3960 C.3       3 GLL5        0.0000 
     28 CA         -9.3818    6.8695   18.3077 C.3       1 GLC5        0.0000 
     29 CA         -8.4808    4.8060   16.2927 C.3       1 GLC5        0.0000 
     30 CA         -9.2970    5.2780   17.6410 C.3       3 GLL5        0.0000 
     31 CA         -7.2210    3.9600   15.4560 C.3       2 GLP5        0.0000 
     32 CA        -11.7533    3.5230   15.6710 C.3       1 GLC5        0.0000 
     33 CA        -11.7010    5.6920   16.6020 C.3       3 GLL5        0.0000 
     34 CA        -11.5690    1.4020   15.4690 C.3       2 GLP5        0.0000 
     35 CA        -17.4320    7.3275   20.2820 C.3       1 GLC5        0.0000 
     36 CA        -18.2680    6.6940   22.1590 C.3       2 GLP5        0.0000 
     37 CA        -12.0500    2.6891   16.4120 C.3       1 GLC5        0.0000 
     38 CA        -13.4530    3.9540   17.1000 C.3       3 GLL5        0.0000 
     39 CA        -14.5817    4.4689   18.9066 C.3       1 GLC5        0.0000 
     40 CA        -15.1910    3.5320   20.4100 C.3       2 GLP5        0.0000 
     41 CA        -15.0593    4.6434   16.0156 C.3       1 GLC5        0.0000 
     42 CA        -15.4247    8.5266   19.9169 C.3       1 GLC5        0.0000 
     43 CA        -14.8950    7.3870   18.1010 C.3       3 GLL5        0.0000 
     44 CA        -15.1680    9.0430   21.7260 C.3       2 GLP5        0.0000 
@<TRIPOS>BOND
@<TRIPOS>SUBSTRUCTURE
     1 GLC5        1 GROUP        1 X    GLC  0     ROOT GLC X 6
     2 GLP5        3 GROUP        1 Y    GLP  0     ROOT GLP Y 13
     3 GLL5        2 GROUP        1 Z    GLL  0     ROOT GLL Z 20
@<TRIPOS>SET

