#    Name: 1eup_ASD_2_ligand
#    Modification time : Tue Mar 25 00:17:05 2014

@<TRIPOS>MOLECULE
1eup_ASD_2_ligand
   47    50     1     0     0
SMALL
NO_CHARGES


@<TRIPOS>ATOM
      1 C1        -10.1840    6.0260   16.6180 C.3       1 ASD452      0.0000 
      2 C10       -11.7010    5.6920   16.6020 C.3       1 ASD452      0.0000 
      3 C11       -12.3070    8.1620   16.8900 C.3       1 ASD452      0.0000 
      4 C12       -13.1510    9.1300   17.6810 C.3       1 ASD452      0.0000 
      5 C13       -14.6390    8.7320   17.5200 C.3       1 ASD452      0.0000 
      6 C14       -14.8950    7.3870   18.1010 C.3       1 ASD452      0.0000 
      7 C15       -16.4200    7.2540   18.1380 C.3       1 ASD452      0.0000 
      8 C16       -16.7720    8.6680   18.6720 C.3       1 ASD452      0.0000 
      9 C17       -15.5990    9.5940   18.2680 C.2       1 ASD452      0.0000 
     10 C18       -15.0930    8.7710   16.0870 C.3       1 ASD452      0.0000 
     11 C19       -12.1740    5.5960   15.1440 C.3       1 ASD452      0.0000 
     12 C2         -9.2970    5.2780   17.6410 C.3       1 ASD452      0.0000 
     13 C3         -9.8130    3.9780   18.2040 C.2       1 ASD452      0.0000 
     14 C4        -11.1940    3.6270   17.9590 C.2       1 ASD452      0.0000 
     15 C5        -12.0240    4.3700   17.2610 C.2       1 ASD452      0.0000 
     16 C6        -13.4530    3.9540   17.1000 C.3       1 ASD452      0.0000 
     17 C7        -14.2970    4.9370   17.8450 C.3       1 ASD452      0.0000 
     18 C8        -14.0700    6.3660   17.3340 C.3       1 ASD452      0.0000 
     19 C9        -12.5300    6.7360   17.3960 C.3       1 ASD452      0.0000 
     20 O1         -9.1020    3.2400   18.8650 O.2       1 ASD452      0.0000 
     21 O2        -15.4810   10.7980   18.4970 O.2       1 ASD452      0.0000 
     22 H         -10.0709    7.1212   16.7880 H         1 ASD452      0.0000 
     23 H          -9.7767    5.8420   15.5976 H         1 ASD452      0.0000 
     24 H         -11.2550    8.4155   16.9987 H         1 ASD452      0.0000 
     25 H         -12.5780    8.2105   15.8379 H         1 ASD452      0.0000 
     26 H         -13.0197   10.1335   17.3064 H         1 ASD452      0.0000 
     27 H         -12.8924    9.0830   18.7277 H         1 ASD452      0.0000 
     28 H         -14.5366    7.4299   19.1414 H         1 ASD452      0.0000 
     29 H         -16.7024    6.5400   18.8382 H         1 ASD452      0.0000 
     30 H         -16.7955    7.1448   17.1752 H         1 ASD452      0.0000 
     31 H         -16.8499    8.6351   19.7344 H         1 ASD452      0.0000 
     32 H         -17.6695    9.0075   18.2081 H         1 ASD452      0.0000 
     33 H          -9.0814    5.9840   18.4839 H         1 ASD452      0.0000 
     34 H          -8.3002    5.1010   17.1610 H         1 ASD452      0.0000 
     35 H         -11.5030    2.7090   18.3888 H         1 ASD452      0.0000 
     36 H         -13.5943    2.9621   17.5100 H         1 ASD452      0.0000 
     37 H         -13.7204    3.9597   16.0510 H         1 ASD452      0.0000 
     38 H         -14.0565    4.9071   18.9115 H         1 ASD452      0.0000 
     39 H         -15.3558    4.6897   17.7264 H         1 ASD452      0.0000 
     40 H         -14.3536    6.4034   16.2814 H         1 ASD452      0.0000 
     41 H         -12.2374    6.6806   18.4400 H         1 ASD452      0.0000 
     42 H         -14.9947    9.6840   15.6910 H         1 ASD452      0.0000 
     43 H         -14.5657    8.1443   15.5132 H         1 ASD452      0.0000 
     44 H         -16.0549    8.5136   15.9950 H         1 ASD452      0.0000 
     45 H         -12.0273    6.4523   14.6488 H         1 ASD452      0.0000 
     46 H         -11.6881    4.8804   14.6423 H         1 ASD452      0.0000 
     47 H         -13.1497    5.3857   15.0832 H         1 ASD452      0.0000 
@<TRIPOS>BOND
     1    2    1 1    
     2   12    1 1    
     3   22    1 1    
     4   23    1 1    
     5   11    2 1    
     6   15    2 1    
     7   19    2 1    
     8    4    3 1    
     9   19    3 1    
    10   24    3 1    
    11   25    3 1    
    12    5    4 1    
    13   26    4 1    
    14   27    4 1    
    15    6    5 1    
    16    9    5 1    
    17   10    5 1    
    18    7    6 1    
    19   18    6 1    
    20   28    6 1    
    21    8    7 1    
    22   29    7 1    
    23   30    7 1    
    24    9    8 1    
    25   31    8 1    
    26   32    8 1    
    27   21    9 2    
    28   42   10 1    
    29   43   10 1    
    30   44   10 1    
    31   45   11 1    
    32   46   11 1    
    33   47   11 1    
    34   13   12 1    
    35   33   12 1    
    36   34   12 1    
    37   14   13 1    
    38   20   13 2    
    39   15   14 2    
    40   35   14 1    
    41   16   15 1    
    42   17   16 1    
    43   36   16 1    
    44   37   16 1    
    45   18   17 1    
    46   38   17 1    
    47   39   17 1    
    48   19   18 1    
    49   40   18 1    
    50   41   19 1    
@<TRIPOS>SUBSTRUCTURE
     1 ASD452      1 GROUP   
@<TRIPOS>SET

