#    Name: 4gav_FAD_1_INTS_M
#    Modification time : Mon Mar 24 21:37:17 2014

@<TRIPOS>MOLECULE
4gav_FAD_1_INTS_M
  107     0     9     0     0
SMALL
NO_CHARGES


@<TRIPOS>ATOM
      1 N         -13.1230  -25.5850   63.8005 N.am      2 SEC2        0.0000 
      2 N         -14.2600  -24.4300   63.7640 N.am      8 SEL2        0.0000 
      3 N         -11.9860  -26.7400   63.8370 N.am      5 SEP2        0.0000 
      4 CA        -18.2890  -25.5040   65.3435 C.3       3 GLC5        0.0000 
      5 CA        -17.5440  -26.3720   63.5440 C.3       9 GLL5        0.0000 
      6 CA        -19.0340  -24.6360   67.1430 C.3       6 GLP5        0.0000 
      7 CA        -17.8915  -29.5040   63.1055 C.3       3 GLC5        0.0000 
      8 CA        -17.7870  -27.6070   62.7090 C.3       9 GLL5        0.0000 
      9 CA        -17.9960  -31.4010   63.5020 C.3       6 GLP5        0.0000 
     10 N         -16.7595  -29.4765   61.1310 N.am      2 SEC2        0.0000 
     11 N         -17.1150  -28.1810   60.4730 N.am      8 SEL2        0.0000 
     12 N         -16.4040  -30.7720   61.7890 N.am      5 SEP2        0.0000 
     13 N         -16.7945  -29.3140   59.7225 N.am      2 SEC2        0.0000 
     14 N         -16.4740  -30.4470   58.9720 N.am      5 SEP2        0.0000 
     15 CA        -18.9095  -29.9305   62.7330 C.3       3 GLC5        0.0000 
     16 CA        -19.8230  -28.4600   61.9640 C.3       9 GLL5        0.0000 
     17 CA        -21.1025  -29.7240   60.7245 C.3       3 GLC5        0.0000 
     18 CA        -22.3820  -30.9880   59.4850 C.3       6 GLP5        0.0000 
     19 CA        -19.9685  -28.3420   64.1960 C.3       3 GLC5        0.0000 
     20 CA        -20.1140  -28.2240   66.4280 C.3       6 GLP5        0.0000 
     21 CA        -25.4455  -30.8370   61.8610 C.3       3 GLC5        0.0000 
     22 CA        -24.3250  -30.0650   63.3330 C.3       9 GLL5        0.0000 
     23 CA        -26.5660  -31.6090   60.3890 C.3       6 GLP5        0.0000 
     24 CA        -24.9195  -31.9430   64.3575 C.3       3 GLC5        0.0000 
     25 CA        -25.5140  -33.8210   65.3820 C.3       6 GLP5        0.0000 
     26 O         -26.6220  -30.7665   64.0825 O.2       1 ALC1        0.0000 
     27 O         -25.5910  -29.7190   63.6790 O.2       7 ALL1        0.0000 
     28 O         -27.6530  -31.8140   64.4860 O.2       4 ALP1        0.0000 
     29 N         -24.9380  -32.3915   63.1475 N.am      2 SEC2        0.0000 
     30 N         -23.9390  -31.3640   63.2860 N.am      8 SEL2        0.0000 
     31 N         -25.9370  -33.4190   63.0090 N.am      5 SEP2        0.0000 
     32 CA        -21.6505  -32.5090   61.5245 C.3       3 GLC5        0.0000 
     33 CA        -22.6850  -31.7280   62.9470 C.3       9 GLL5        0.0000 
     34 CA        -20.6160  -33.2900   60.1020 C.3       6 GLP5        0.0000 
     35 CA        -22.5335  -31.3580   61.2160 C.3       3 GLC5        0.0000 
     36 CA        -24.2775  -32.3410   61.7925 C.3       3 GLC5        0.0000 
     37 CA        -25.8700  -32.9540   60.6380 C.3       6 GLP5        0.0000 
     38 CA        -24.0995  -32.7745   64.1645 C.3       3 GLC5        0.0000 
     39 CA        -22.3520  -30.8065   64.6515 C.3       3 GLC5        0.0000 
     40 CA        -22.0190  -29.8850   66.3560 C.3       6 GLP5        0.0000 
     41 N          -9.7765  -18.7575   66.6345 N.am      2 SEC2        0.0000 
     42 N          -9.8360  -17.6550   65.6040 N.am      8 SEL2        0.0000 
     43 N          -9.7170  -19.8600   67.6650 N.am      5 SEP2        0.0000 
     44 N          -8.8570  -18.8465   67.2865 N.am      2 SEC2        0.0000 
     45 N          -7.9970  -17.8330   66.9080 N.am      8 SEL2        0.0000 
     46 N          -7.6355  -19.2560   67.7815 N.am      2 SEC2        0.0000 
     47 N          -7.2740  -20.6790   68.6550 N.am      5 SEP2        0.0000 
     48 CA        -12.9040  -13.5645   61.2150 C.3       3 GLC5        0.0000 
     49 CA        -12.0050  -15.5480   60.9340 C.3       9 GLL5        0.0000 
     50 CA        -13.8030  -11.5810   61.4960 C.3       6 GLP5        0.0000 
     51 CA        -14.4860  -16.4045   57.7945 C.3       3 GLC5        0.0000 
     52 CA        -13.8890  -15.1870   59.2930 C.3       9 GLL5        0.0000 
     53 CA        -15.0830  -17.6220   56.2960 C.3       6 GLP5        0.0000 
     54 CA        -12.5870  -14.0610   58.1840 C.3       3 GLC5        0.0000 
     55 CA        -11.2850  -12.9350   57.0750 C.3       6 GLP5        0.0000 
     56 CA        -15.1560  -14.1710   57.8545 C.3       3 GLC5        0.0000 
     57 CA        -16.4230  -13.1550   56.4160 C.3       6 GLP5        0.0000 
     58 CA        -17.1410  -17.2970   59.7040 C.3       3 GLC5        0.0000 
     59 CA        -15.6150  -16.8360   61.0490 C.3       9 GLL5        0.0000 
     60 CA        -18.6670  -17.7580   58.3590 C.3       6 GLP5        0.0000 
     61 CA        -11.7500  -18.3900   67.2075 C.3       3 GLC5        0.0000 
     62 CA        -12.5430  -18.2770   65.1590 C.3       9 GLL5        0.0000 
     63 CA        -10.9570  -18.5030   69.2560 C.3       6 GLP5        0.0000 
     64 CA        -11.4900  -21.5800   64.0685 C.3       3 GLC5        0.0000 
     65 CA        -12.4950  -19.7630   64.8380 C.3       9 GLL5        0.0000 
     66 CA        -10.4850  -23.3970   63.2990 C.3       6 GLP5        0.0000 
     67 CA        -10.5495  -20.3050   65.2750 C.3       3 GLC5        0.0000 
     68 CA         -8.6040  -20.8470   65.7120 C.3       6 GLP5        0.0000 
     69 N         -11.9440  -20.0345   62.4300 N.am      2 SEC2        0.0000 
     70 N         -12.8250  -19.9860   63.4540 N.am      8 SEL2        0.0000 
     71 N         -11.0630  -20.0830   61.4060 N.am      5 SEP2        0.0000 
     72 O         -14.1705  -20.4140   68.3375 O.2       1 ALC1        0.0000 
     73 O         -13.3070  -20.0620   67.1070 O.2       7 ALL1        0.0000 
     74 O         -15.0340  -20.7660   69.5680 O.2       4 ALP1        0.0000 
     75 O         -14.7090  -20.2535   67.3905 O.2       1 ALC1        0.0000 
     76 O         -16.1110  -20.4450   67.6740 O.2       4 ALP1        0.0000 
     77 CA        -11.8995  -22.6995   64.4945 C.3       3 GLC5        0.0000 
     78 CA        -13.3140  -22.0020   65.6900 C.3       9 GLL5        0.0000 
     79 CA        -15.6355  -22.2315   68.0845 C.3       3 GLC5        0.0000 
     80 CA        -14.0450  -22.7440   66.8010 C.3       9 GLL5        0.0000 
     81 CA        -17.2260  -21.7190   69.3680 C.3       6 GLP5        0.0000 
     82 CA        -12.4060  -23.7430   67.8790 C.3       3 GLC5        0.0000 
     83 CA        -10.7670  -24.7420   68.9570 C.3       6 GLP5        0.0000 
     84 N         -12.9760  -27.1890   66.3285 N.am      2 SEC2        0.0000 
     85 N         -14.3110  -26.5380   66.2010 N.am      8 SEL2        0.0000 
     86 N         -11.6410  -27.8400   66.4560 N.am      5 SEP2        0.0000 
     87 N         -15.7490  -24.2610   69.2375 N.am      2 SEC2        0.0000 
     88 N         -15.5950  -25.0310   67.9890 N.am      8 SEL2        0.0000 
     89 N         -15.9030  -23.4910   70.4860 N.am      5 SEP2        0.0000 
     90 CA        -18.8897  -27.6068   64.7772 C.3       3 GLC5        0.0000 
     91 CA        -15.7026  -27.3804   62.2364 C.3       3 GLC5        0.0000 
     92 CA        -13.6160  -27.6320   62.2910 C.3       6 GLP5        0.0000 
     93 CA        -22.6418  -30.2565   61.1899 C.3       3 GLC5        0.0000 
     94 CA        -23.3190  -29.0310   62.9900 C.3       9 GLL5        0.0000 
     95 CA        -22.4602  -29.7050   64.6254 C.3       3 GLC5        0.0000 
     96 CA        -21.9810  -29.5020   62.6280 C.3       9 GLL5        0.0000 
     97 CA        -11.8205  -17.7900   60.8995 C.3       3 GLC5        0.0000 
     98 CA        -11.4990  -16.0920   62.1080 C.3       9 GLL5        0.0000 
     99 CA        -11.8890  -19.7600   60.2780 C.3       6 GLP5        0.0000 
    100 CA        -10.0200  -16.4405   60.5010 C.3       3 GLC5        0.0000 
    101 CA         -8.2880  -17.0610   59.4810 C.3       6 GLP5        0.0000 
    102 CA        -12.8235  -17.9725   60.6402 C.3       3 GLC5        0.0000 
    103 CA        -13.3280  -15.7740   60.5640 C.3       9 GLL5        0.0000 
    104 CA        -14.0728  -13.7407   60.0802 C.3       3 GLC5        0.0000 
    105 CA        -14.5370  -12.0010   60.2320 C.3       6 GLP5        0.0000 
    106 CA        -12.4548  -18.3960   61.5443 C.3       3 GLC5        0.0000 
    107 CA        -13.6840  -17.1400   62.6180 C.3       9 GLL5        0.0000 
@<TRIPOS>BOND
@<TRIPOS>SUBSTRUCTURE
     1 ALC1       26 GROUP        1 X    ALC  0     ROOT ALC X 1
     2 SEC2        1 GROUP        1 X    SEC  0     **** SEC X 2
     3 GLC5        4 GROUP        1 X    GLC  0     **** GLC X 6
     4 ALP1       28 GROUP        1 Y    ALP  0     ROOT ALP Y 8
     5 SEP2        3 GROUP        1 Y    SEP  0     **** SEP Y 9
     6 GLP5        6 GROUP        1 Y    GLP  0     **** GLP Y 13
     7 ALL1       27 GROUP        1 Z    ALL  0     ROOT ALL Z 15
     8 SEL2        2 GROUP        1 Z    SEL  0     **** SEL Z 16
     9 GLL5        5 GROUP        1 Z    GLL  0     **** GLL Z 20
@<TRIPOS>SET

