#    Name: 4gav_FAD_1_ligand
#    Modification time : Mon Mar 24 21:37:17 2014

@<TRIPOS>MOLECULE
4gav_FAD_1_ligand
   84    89     1     0     0
SMALL
NO_CHARGES


@<TRIPOS>ATOM
      1 PA        -15.7460  -24.5830   63.9790 P.3       1 FAD601      0.0000 
      2 O1A       -14.2600  -24.4300   63.7640 O.co2     1 FAD601      0.0000 
      3 O2A       -16.6920  -23.5140   63.4990 O.co2     1 FAD601      0.0000 
      4 O5B       -16.2160  -25.9540   63.3090 O.3       1 FAD601      0.0000 
      5 C5B       -17.5440  -26.3720   63.5440 C.3       1 FAD601      0.0000 
      6 C4B       -17.7870  -27.6070   62.7090 C.3       1 FAD601      0.0000 
      7 O4B       -19.0090  -28.2140   63.1100 O.3       1 FAD601      0.0000 
      8 C3B       -17.9130  -27.2680   61.2370 C.3       1 FAD601      0.0000 
      9 O3B       -17.1150  -28.1810   60.4730 O.3       1 FAD601      0.0000 
     10 C2B       -19.3830  -27.4400   60.9240 C.3       1 FAD601      0.0000 
     11 O2B       -19.5710  -27.9190   59.5860 O.3       1 FAD601      0.0000 
     12 C1B       -19.8230  -28.4600   61.9640 C.3       1 FAD601      0.0000 
     13 N9A       -21.2580  -28.4140   62.3600 N.pl3     1 FAD601      0.0000 
     14 C8A       -22.0290  -27.3240   62.5380 C.2       1 FAD601      0.0000 
     15 N7A       -23.2830  -27.6900   62.9130 N.2       1 FAD601      0.0000 
     16 C5A       -23.3190  -29.0310   62.9900 C.ar      1 FAD601      0.0000 
     17 C6A       -24.3250  -30.0650   63.3330 C.ar      1 FAD601      0.0000 
     18 N6A       -25.5910  -29.7190   63.6790 N.pl3     1 FAD601      0.0000 
     19 N1A       -23.9390  -31.3640   63.2860 N.ar      1 FAD601      0.0000 
     20 C2A       -22.6850  -31.7280   62.9470 C.ar      1 FAD601      0.0000 
     21 N3A       -21.7320  -30.8340   62.6270 N.ar      1 FAD601      0.0000 
     22 C4A       -21.9810  -29.5020   62.6280 C.ar      1 FAD601      0.0000 
     23 N1         -9.8360  -17.6550   65.6040 N.2       1 FAD601      0.0000 
     24 C2         -8.5250  -17.3710   65.8660 C.2       1 FAD601      0.0000 
     25 O2         -7.9970  -17.8330   66.9080 O.2       1 FAD601      0.0000 
     26 N3         -7.7760  -16.6170   65.0370 N.am      1 FAD601      0.0000 
     27 C4         -8.2690  -16.0950   63.9050 C.2       1 FAD601      0.0000 
     28 O4         -7.5690  -15.4000   63.1500 O.2       1 FAD601      0.0000 
     29 C4X        -9.6750  -16.3500   63.5540 C.2       1 FAD601      0.0000 
     30 N5        -10.2160  -15.8500   62.4270 N.2       1 FAD601      0.0000 
     31 C5X       -11.4990  -16.0920   62.1080 C.ar      1 FAD601      0.0000 
     32 C6        -12.0050  -15.5480   60.9340 C.ar      1 FAD601      0.0000 
     33 C7        -13.3280  -15.7740   60.5640 C.ar      1 FAD601      0.0000 
     34 C7M       -13.8890  -15.1870   59.2930 C.3       1 FAD601      0.0000 
     35 C8        -14.1880  -16.5960   61.4410 C.ar      1 FAD601      0.0000 
     36 C8M       -15.6150  -16.8360   61.0490 C.3       1 FAD601      0.0000 
     37 C9        -13.6840  -17.1400   62.6180 C.ar      1 FAD601      0.0000 
     38 C9A       -12.3570  -16.9240   63.0030 C.ar      1 FAD601      0.0000 
     39 N10       -11.7950  -17.4640   64.1990 N.pl3     1 FAD601      0.0000 
     40 C10       -10.4530  -17.1840   64.4930 C.2       1 FAD601      0.0000 
     41 C1'       -12.5430  -18.2770   65.1590 C.3       1 FAD601      0.0000 
     42 C2'       -12.4950  -19.7630   64.8380 C.3       1 FAD601      0.0000 
     43 O2'       -12.8250  -19.9860   63.4540 O.3       1 FAD601      0.0000 
     44 C3'       -13.4820  -20.4920   65.7590 C.3       1 FAD601      0.0000 
     45 O3'       -13.3070  -20.0620   67.1070 O.3       1 FAD601      0.0000 
     46 C4'       -13.3140  -22.0020   65.6900 C.3       1 FAD601      0.0000 
     47 O4'       -13.8290  -22.4410   64.4260 O.3       1 FAD601      0.0000 
     48 C5'       -14.0450  -22.7440   66.8010 C.3       1 FAD601      0.0000 
     49 O5'       -13.7300  -24.1190   66.6730 O.3       1 FAD601      0.0000 
     50 P         -14.9020  -25.2020   66.6520 P.3       1 FAD601      0.0000 
     51 O1P       -14.3110  -26.5380   66.2010 O.co2     1 FAD601      0.0000 
     52 O2P       -15.5950  -25.0310   67.9890 O.co2     1 FAD601      0.0000 
     53 O3P       -16.0200  -24.7620   65.5640 O.3       1 FAD601      0.0000 
     54 H         -18.2718  -25.6145   63.2494 H         1 FAD601      0.0000 
     55 H         -17.7147  -26.6305   64.5901 H         1 FAD601      0.0000 
     56 H         -16.9626  -28.2856   62.8333 H         1 FAD601      0.0000 
     57 H         -17.6421  -26.2568   61.0972 H         1 FAD601      0.0000 
     58 H         -19.8765  -26.5238   61.1255 H         1 FAD601      0.0000 
     59 H         -19.5838  -29.4526   61.5727 H         1 FAD601      0.0000 
     60 H         -21.7356  -26.4008   62.4168 H         1 FAD601      0.0000 
     61 H         -25.8077  -28.7437   63.6369 H         1 FAD601      0.0000 
     62 H         -26.1952  -30.4700   63.9454 H         1 FAD601      0.0000 
     63 H         -22.4424  -32.7604   62.9327 H         1 FAD601      0.0000 
     64 H          -6.7649  -16.4327   65.2912 H         1 FAD601      0.0000 
     65 H         -11.3972  -14.9724   60.3313 H         1 FAD601      0.0000 
     66 H         -14.2983  -17.7142   63.2206 H         1 FAD601      0.0000 
     67 H         -13.6030  -17.9645   65.1865 H         1 FAD601      0.0000 
     68 H         -12.1455  -18.1321   66.1803 H         1 FAD601      0.0000 
     69 H         -11.5027  -20.1227   65.0677 H         1 FAD601      0.0000 
     70 H         -14.4905  -20.2540   65.4153 H         1 FAD601      0.0000 
     71 H         -12.2580  -22.2320   65.7572 H         1 FAD601      0.0000 
     72 H         -15.1109  -22.5530   66.6860 H         1 FAD601      0.0000 
     73 H         -13.7134  -22.3322   67.7530 H         1 FAD601      0.0000 
     74 H         -13.8391  -14.1882   59.2915 H         1 FAD601      0.0000 
     75 H         -13.3928  -15.5065   58.4857 H         1 FAD601      0.0000 
     76 H         -14.8496  -15.4326   59.1628 H         1 FAD601      0.0000 
     77 H         -15.6846  -17.2997   60.1658 H         1 FAD601      0.0000 
     78 H         -16.0930  -17.4056   61.7176 H         1 FAD601      0.0000 
     79 H         -16.1279  -15.9810   60.9723 H         1 FAD601      0.0000 
     80 H         -16.1753  -28.0166   60.7728 H         1 FAD601      0.0000 
     81 H         -18.6569  -27.9194   59.1805 H         1 FAD601      0.0000 
     82 H         -13.2141  -20.9068   63.4260 H         1 FAD601      0.0000 
     83 H         -14.2171  -20.1202   67.5173 H         1 FAD601      0.0000 
     84 H         -14.8226  -22.4444   64.5387 H         1 FAD601      0.0000 
@<TRIPOS>BOND
     1    2    1 ar   
     2    3    1 ar   
     3    4    1 1    
     4   53    1 1    
     5    5    4 1    
     6    6    5 1    
     7   54    5 1    
     8   55    5 1    
     9    7    6 1    
    10    8    6 1    
    11   56    6 1    
    12   12    7 1    
    13    9    8 1    
    14   10    8 1    
    15   57    8 1    
    16   80    9 1    
    17   11   10 1    
    18   12   10 1    
    19   58   10 1    
    20   81   11 1    
    21   13   12 1    
    22   59   12 1    
    23   14   13 1    
    24   22   13 1    
    25   15   14 2    
    26   60   14 1    
    27   16   15 1    
    28   17   16 ar   
    29   22   16 ar   
    30   18   17 1    
    31   19   17 ar   
    32   61   18 1    
    33   62   18 1    
    34   20   19 ar   
    35   21   20 ar   
    36   63   20 1    
    37   22   21 ar   
    38   24   23 1    
    39   40   23 2    
    40   25   24 2    
    41   26   24 am   
    42   27   26 am   
    43   64   26 1    
    44   28   27 2    
    45   29   27 1    
    46   30   29 2    
    47   40   29 1    
    48   31   30 1    
    49   32   31 ar   
    50   38   31 ar   
    51   33   32 ar   
    52   65   32 1    
    53   34   33 1    
    54   35   33 ar   
    55   74   34 1    
    56   75   34 1    
    57   76   34 1    
    58   36   35 1    
    59   37   35 ar   
    60   77   36 1    
    61   78   36 1    
    62   79   36 1    
    63   38   37 ar   
    64   66   37 1    
    65   39   38 1    
    66   40   39 1    
    67   41   39 1    
    68   42   41 1    
    69   67   41 1    
    70   68   41 1    
    71   43   42 1    
    72   44   42 1    
    73   69   42 1    
    74   82   43 1    
    75   45   44 1    
    76   46   44 1    
    77   70   44 1    
    78   83   45 1    
    79   47   46 1    
    80   48   46 1    
    81   71   46 1    
    82   84   47 1    
    83   49   48 1    
    84   72   48 1    
    85   73   48 1    
    86   50   49 1    
    87   51   50 ar   
    88   52   50 ar   
    89   53   50 1    
@<TRIPOS>SUBSTRUCTURE
     1 FAD601      1 GROUP   
@<TRIPOS>SET

