#    Name: 1HFS_1_CAVITY_N1_6.mol2
#    Modification time : Tue Mar 11 05:08:51 2014

@<TRIPOS>MOLECULE
1HFS_1_CAVITY_N1_6.mol2
   35     0     3     0     0
SMALL
NO_CHARGES


@<TRIPOS>ATOM
      1 O          40.1751   33.0226   32.2442 O.2       1 ALA2        0.0000 
      2 O          40.5529   31.9922   30.4288 O.2       1 ALA2        0.0000 
      3 O          39.5496   33.0116   30.8809 O.2       1 ALA2        0.0000 
      4 O          39.9274   31.9812   29.0655 O.2       1 ALA2        0.0000 
      5 CA         38.9241   33.0006   29.5175 C.3       3 GLY6        0.0000 
      6 N          37.9209   34.0199   29.9696 N.2       1 ALA2        0.0000 
      7 CA         38.2986   32.9895   28.1542 C.3       3 GLY6        0.0000 
      8 N          37.2954   34.0089   28.6063 N.2       1 ALA2        0.0000 
      9 CA         37.6731   32.9785   26.7909 C.3       3 GLY6        0.0000 
     10 CA         36.6699   33.9979   27.2430 C.3       3 GLY6        0.0000 
     11 N          40.8808   30.9139   33.5879 N.2       1 ALA2        0.0000 
     12 CA         41.2585   29.8835   31.7725 C.3       3 GLY6        0.0000 
     13 N          40.2553   30.9029   32.2246 N.2       1 ALA2        0.0000 
     14 N          39.2520   31.9223   32.6766 N.2       1 ALA2        0.0000 
     15 N          40.6330   29.8725   30.4092 N.2       1 ALA2        0.0000 
     16 N          39.6298   30.8919   30.8612 N.2       1 ALA2        0.0000 
     17 N          38.6265   31.9112   31.3133 N.2       1 ALA2        0.0000 
     18 N          40.0075   29.8615   29.0459 N.2       1 ALA2        0.0000 
     19 CZ         39.0042   30.8808   29.4979 C.ar      2 PHE5        0.0000 
     20 N          38.0010   31.9002   29.9500 N.2       1 ALA2        0.0000 
     21 N          36.9977   32.9196   30.4021 N.2       1 ALA2        0.0000 
     22 CZ         37.3755   31.8892   28.5867 C.ar      2 PHE5        0.0000 
     23 O          36.3722   32.9085   29.0387 O.2       1 ALA2        0.0000 
     24 CZ         36.7500   31.8781   27.2234 C.ar      2 PHE5        0.0000 
     25 CA         35.7467   32.8975   27.6754 C.3       3 GLY6        0.0000 
     26 CA         40.3354   28.7832   32.2049 C.3       3 GLY6        0.0000 
     27 CZ         39.3321   29.8025   32.6570 C.ar      2 PHE5        0.0000 
     28 CA         38.3288   30.8219   33.1091 C.3       3 GLY6        0.0000 
     29 CA         39.7099   28.7722   30.8416 C.3       3 GLY6        0.0000 
     30 CA         38.7066   29.7915   31.2937 C.3       3 GLY6        0.0000 
     31 CA         37.7033   30.8109   31.7458 C.3       3 GLY6        0.0000 
     32 CA         38.0811   29.7805   29.9304 C.3       3 GLY6        0.0000 
     33 CA         37.0778   30.7998   30.3824 C.3       3 GLY6        0.0000 
     34 CA         37.4556   29.7695   28.5671 C.3       3 GLY6        0.0000 
     35 CA         35.8268   30.7778   27.6558 C.3       3 GLY6        0.0000 
@<TRIPOS>BOND
@<TRIPOS>SUBSTRUCTURE
     1 ALA2        1 GROUP   
     2 PHE5       19 GROUP   
     3 GLY6        5 GROUP   
@<TRIPOS>SET

