#    Name: 1hfs_L04_1_INTS_M
#    Modification time : Tue Mar 25 05:29:39 2014

@<TRIPOS>MOLECULE
1hfs_L04_1_INTS_M
   94     0    12     0     0
SMALL
NO_CHARGES


@<TRIPOS>ATOM
      1 CA         32.8655   37.0930   21.0130 C.3       4 GLC5        0.0000 
      2 CA         32.9150   37.5740   23.1970 C.3      12 GLL5        0.0000 
      3 CA         32.8160   36.6120   18.8290 C.3       8 GLP5        0.0000 
      4 CA         36.9620   31.0475   31.5285 C.3       4 GLC5        0.0000 
      5 CA         38.6070   31.8190   30.3870 C.3      12 GLL5        0.0000 
      6 CA         35.3170   30.2760   32.6700 C.3       8 GLP5        0.0000 
      7 CA         37.0400   33.5790   23.7140 C.3       4 GLC5        0.0000 
      8 CA         35.9020   34.7400   25.1640 C.3      12 GLL5        0.0000 
      9 CA         38.1780   32.4180   22.2640 C.3       8 GLP5        0.0000 
     10 CA         37.8190   34.0345   25.2785 C.3       4 GLC5        0.0000 
     11 CA         39.7360   33.3290   25.3930 C.3       8 GLP5        0.0000 
     12 CA         33.8285   34.2440   27.4520 C.3       4 GLC5        0.0000 
     13 CA         35.2310   34.3540   26.4550 C.3      12 GLL5        0.0000 
     14 CA         32.4260   34.1340   28.4490 C.3       8 GLP5        0.0000 
     15 CA         38.2310   36.1285   27.7645 C.3       4 GLC5        0.0000 
     16 CA         36.8920   34.4630   28.3310 C.3      12 GLL5        0.0000 
     17 CA         39.5700   37.7940   27.1980 C.3       8 GLP5        0.0000 
     18 CA         35.1325   39.3610   19.8970 C.3       4 GLC5        0.0000 
     19 CA         36.2920   39.9630   21.4590 C.3      12 GLL5        0.0000 
     20 CA         33.9730   38.7590   18.3350 C.3       8 GLP5        0.0000 
     21 CA         39.1785   34.2245   21.1810 C.3       4 GLC5        0.0000 
     22 CA         40.7960   35.4580   21.3600 C.3      12 GLL5        0.0000 
     23 CA         37.5610   32.9910   21.0020 C.3       8 GLP5        0.0000 
     24 CA         39.9820   36.2895   18.7080 C.3       4 GLC5        0.0000 
     25 CA         41.0970   35.0520   20.0610 C.3      12 GLL5        0.0000 
     26 CA         38.8670   37.5270   17.3550 C.3       8 GLP5        0.0000 
     27 CA         39.9100   33.7410   22.3300 C.3       4 GLC5        0.0000 
     28 CA         41.6420   35.0640   22.3960 C.3      12 GLL5        0.0000 
     29 CA         40.6890   34.1965   23.8945 C.3       4 GLC5        0.0000 
     30 CA         26.6150   37.0055   19.8550 C.3       4 GLC5        0.0000 
     31 CA         25.6260   38.5430   20.2680 C.3      12 GLL5        0.0000 
     32 CA         27.6040   35.4680   19.4420 C.3       8 GLP5        0.0000 
     33 CA         40.3205   28.4105   30.1895 C.3       4 GLC5        0.0000 
     34 CA         40.3030   30.2010   30.9610 C.3      12 GLL5        0.0000 
     35 CA         40.3380   26.6200   29.4180 C.3       8 GLP5        0.0000 
     36 CA         42.3140   31.1765   30.9930 C.3       4 GLC5        0.0000 
     37 CA         44.3250   32.1520   31.0250 C.3       8 GLP5        0.0000 
     38 CA         38.7135   28.9630   29.4770 C.3       4 GLC5        0.0000 
     39 CA         39.5070   30.8280   30.0120 C.3      12 GLL5        0.0000 
     40 CA         37.9200   27.0980   28.9420 C.3       8 GLP5        0.0000 
     41 O          36.9440   37.6935   25.1240 O.2       1 ALC1        0.0000 
     42 O          37.0020   37.1270   23.5410 O.2       9 ALL1        0.0000 
     43 O          36.8860   38.2600   26.7070 O.2       5 ALP1        0.0000 
     44 O          38.8310   36.2740   20.3775 O.2       1 ALC1        0.0000 
     45 O          39.6720   36.2400   21.5430 O.2       9 ALL1        0.0000 
     46 O          37.9900   36.3080   19.2120 O.2       5 ALP1        0.0000 
     47 Zn         31.6205   36.3055   26.7625 Zn        3 ZIC7        0.0000 
     48 Zn         31.2640   35.6240   25.7050 Zn       11 ZIL7        0.0000 
     49 Zn         31.9770   36.9870   27.8200 Zn        7 ZIP7        0.0000 
     50 N          31.4330   34.3035   25.5055 N.am      2 SEC2        0.0000 
     51 N          31.2640   35.6240   25.7050 N.am     10 SEL2        0.0000 
     52 N          31.6020   32.9830   25.3060 N.am      6 SEP2        0.0000 
     53 Zn         32.3010   37.1120   26.9675 Zn        3 ZIC7        0.0000 
     54 Zn         32.6250   37.2370   26.1150 Zn       11 ZIL7        0.0000 
     55 N          35.5865   35.1510   20.8435 N.am      2 SEC2        0.0000 
     56 N          35.8610   35.8530   22.0720 N.am     10 SEL2        0.0000 
     57 N          35.3120   34.4490   19.6150 N.am      6 SEP2        0.0000 
     58 N          39.8205   36.0565   25.1285 N.am      2 SEC2        0.0000 
     59 N          39.7240   36.5970   23.7790 N.am     10 SEL2        0.0000 
     60 N          39.9170   35.5160   26.4780 N.am      6 SEP2        0.0000 
     61 CA         39.7285   28.5830   34.0665 C.3       4 GLC5        0.0000 
     62 CA         40.9820   29.9220   33.2160 C.3      12 GLL5        0.0000 
     63 CA         38.4750   27.2440   34.9170 C.3       8 GLP5        0.0000 
     64 CA         37.4997   32.2550   33.3358 C.3       4 GLC5        0.0000 
     65 CA         38.5270   32.1740   31.7300 C.3      12 GLL5        0.0000 
     66 CA         36.0710   32.6480   34.4670 C.3       8 GLP5        0.0000 
     67 CA         34.8385   33.7065   28.5757 C.3       4 GLC5        0.0000 
     68 CA         33.1670   33.3330   29.2570 C.3       8 GLP5        0.0000 
     69 CA         35.6220   30.4062   27.2662 C.3       4 GLC5        0.0000 
     70 CA         36.1910   32.3140   27.5530 C.3      12 GLL5        0.0000 
     71 CA         34.6510   28.8000   26.5050 C.3       8 GLP5        0.0000 
     72 CA         34.8925   31.9247   28.7067 C.3       4 GLC5        0.0000 
     73 CA         33.1920   31.8370   29.3860 C.3       8 GLP5        0.0000 
     74 CA         38.1566   32.8436   26.6984 C.3       4 GLC5        0.0000 
     75 CA         36.9950   31.7110   28.5020 C.3      12 GLL5        0.0000 
     76 CA         38.7846   33.9626   27.7194 C.3       4 GLC5        0.0000 
     77 CA         37.7580   32.4750   29.3800 C.3      12 GLL5        0.0000 
     78 CA         40.2590   34.1100   26.6070 C.3       8 GLP5        0.0000 
     79 CA         38.8944   40.2186   24.2399 C.3       4 GLC5        0.0000 
     80 CA         38.2620   39.0930   22.7670 C.3      12 GLL5        0.0000 
     81 CA         39.9580   40.4920   25.6940 C.3       8 GLP5        0.0000 
     82 CA         41.0588   34.5078   17.9407 C.3       4 GLC5        0.0000 
     83 CA         40.4600   34.3540   15.9530 C.3       8 GLP5        0.0000 
     84 CA         40.0093   33.6197   19.8547 C.3       4 GLC5        0.0000 
     85 CA         38.3610   32.5780   19.7810 C.3       8 GLP5        0.0000 
     86 CA         26.1820   38.9992   18.0628 C.3       4 GLC5        0.0000 
     87 CA         26.7980   39.1400   19.8130 C.3      12 GLL5        0.0000 
     88 CA         26.1520   39.1570   16.0850 C.3       8 GLP5        0.0000 
     89 CA         27.9405   37.6783   20.4860 C.3       4 GLC5        0.0000 
     90 CA         28.2600   35.8430   20.7430 C.3       8 GLP5        0.0000 
     91 CA         27.2118   37.2831   21.3627 C.3       4 GLC5        0.0000 
     92 CA         27.5230   39.3830   22.1270 C.3      12 GLL5        0.0000 
     93 CA         42.2793   29.4349   32.6898 C.3       4 GLC5        0.0000 
     94 CA         43.9380   28.7210   32.9560 C.3       8 GLP5        0.0000 
@<TRIPOS>BOND
@<TRIPOS>SUBSTRUCTURE
     1 ALC1       41 GROUP        1 X    ALC  0     ROOT ALC X 1
     2 SEC2       50 GROUP        1 X    SEC  0     **** SEC X 2
     3 ZIC7       47 GROUP        1 X    ZIC  0     **** ZIC X 5
     4 GLC5        1 GROUP        1 X    GLC  0     **** GLC X 6
     5 ALP1       43 GROUP        1 Y    ALP  0     ROOT ALP Y 8
     6 SEP2       52 GROUP        1 Y    SEP  0     **** SEP Y 9
     7 ZIP7       49 GROUP        1 Y    ZIP  0     **** ZIP Y 12
     8 GLP5        3 GROUP        1 Y    GLP  0     **** GLP Y 13
     9 ALL1       42 GROUP        1 Z    ALL  0     ROOT ALL Z 15
    10 SEL2       51 GROUP        1 Z    SEL  0     **** SEL Z 16
    11 ZIL7       48 GROUP        1 Z    ZIL  0     **** ZIL Z 19
    12 GLL5        2 GROUP        1 Z    GLL  0     **** GLL Z 20
@<TRIPOS>SET

