#    Name: 1hfs_L04_1_ligand
#    Modification time : Tue Mar 25 05:29:39 2014

@<TRIPOS>MOLECULE
1hfs_L04_1_ligand
   99   103     1     0     0
SMALL
NO_CHARGES


@<TRIPOS>ATOM
      1 C1         32.9150   37.5740   23.1970 C.3       1 L04256      0.0000 
      2 C2         32.6320   36.2230   23.8700 C.3       1 L04256      0.0000 
      3 C3         32.1460   36.3930   25.3140 C.2       1 L04256      0.0000 
      4 C4         37.6910   41.4960   22.8650 C.3       1 L04256      0.0000 
      5 C5         38.6070   31.8190   30.3870 C.ar      1 L04256      0.0000 
      6 C6         38.5270   32.1740   31.7300 C.ar      1 L04256      0.0000 
      7 C7         35.1500   35.8090   24.3660 C.3       1 L04256      0.0000 
      8 C8         35.9020   34.7400   25.1640 C.3       1 L04256      0.0000 
      9 C9         35.2310   34.3540   26.4550 C.3       1 L04256      0.0000 
     10 C10        36.1280   33.6970   27.4580 C.ar      1 L04256      0.0000 
     11 C11        36.1910   32.3140   27.5530 C.ar      1 L04256      0.0000 
     12 C12        36.9950   31.7110   28.5020 C.ar      1 L04256      0.0000 
     13 C13        37.7580   32.4750   29.3800 C.ar      1 L04256      0.0000 
     14 C14        37.6990   33.8600   29.2850 C.ar      1 L04256      0.0000 
     15 C15        36.8920   34.4630   28.3310 C.ar      1 L04256      0.0000 
     16 C16        36.0400   36.2680   23.2200 C.2       1 L04256      0.0000 
     17 C17        39.3300   31.5500   32.6790 C.ar      1 L04256      0.0000 
     18 C18        33.8250   35.2660   23.8320 C.3       1 L04256      0.0000 
     19 C19        37.9420   37.6140   22.5420 C.3       1 L04256      0.0000 
     20 C20        38.2620   39.0930   22.7670 C.3       1 L04256      0.0000 
     21 C21        37.1080   40.0990   22.7440 C.3       1 L04256      0.0000 
     22 C22        36.2920   39.9630   21.4590 C.3       1 L04256      0.0000 
     23 C23        31.7010   38.4800   23.0780 C.3       1 L04256      0.0000 
     24 C24        32.0250   39.7350   22.2790 C.3       1 L04256      0.0000 
     25 C25        30.9230   40.7780   22.3960 C.3       1 L04256      0.0000 
     26 C26        28.7070   39.8810   22.8380 C.2       1 L04256      0.0000 
     27 C27        39.2150   36.7850   22.6710 C.2       1 L04256      0.0000 
     28 C28        29.1300   40.2090   20.5500 C.3       1 L04256      0.0000 
     29 C29        27.5230   39.3830   22.1270 C.ar      1 L04256      0.0000 
     30 C30        40.7960   35.4580   21.3600 C.ar      1 L04256      0.0000 
     31 C31        41.0970   35.0520   20.0610 C.ar      1 L04256      0.0000 
     32 C32        42.2180   34.2710   19.7960 C.ar      1 L04256      0.0000 
     33 C33        43.0540   33.8830   20.8370 C.ar      1 L04256      0.0000 
     34 C34        42.7660   34.2820   22.1420 C.ar      1 L04256      0.0000 
     35 C35        41.6420   35.0640   22.3960 C.ar      1 L04256      0.0000 
     36 C36        27.7580   39.5650   20.7400 C.ar      1 L04256      0.0000 
     37 C37        26.3330   38.7800   22.5590 C.ar      1 L04256      0.0000 
     38 C38        26.7980   39.1400   19.8130 C.ar      1 L04256      0.0000 
     39 C39        25.6260   38.5430   20.2680 C.ar      1 L04256      0.0000 
     40 C40        25.3990   38.3650   21.6220 C.ar      1 L04256      0.0000 
     41 C41        40.2150   30.5500   32.3010 C.ar      1 L04256      0.0000 
     42 C42        40.3030   30.2010   30.9610 C.ar      1 L04256      0.0000 
     43 C43        39.5070   30.8280   30.0120 C.ar      1 L04256      0.0000 
     44 N1         29.6230   40.2980   21.9300 N.am      1 L04256      0.0000 
     45 N18        37.0020   37.1270   23.5410 N.am      1 L04256      0.0000 
     46 N29        39.6720   36.2400   21.5430 N.am      1 L04256      0.0000 
     47 O1         28.8620   39.8810   24.0620 O.2       1 L04256      0.0000 
     48 O4         31.2640   35.6240   25.7050 O.co2     1 L04256      0.0000 
     49 O5         32.6250   37.2370   26.1150 O.co2     1 L04256      0.0000 
     50 O17        35.8610   35.8530   22.0720 O.2       1 L04256      0.0000 
     51 O28        39.7240   36.5970   23.7790 O.2       1 L04256      0.0000 
     52 F1         40.9820   29.9220   33.2160 F         1 L04256      0.0000 
     53 H          33.3274   37.3856   22.1904 H         1 L04256      0.0000 
     54 H          33.7015   38.0945   23.7708 H         1 L04256      0.0000 
     55 H          31.8068   35.7384   23.3117 H         1 L04256      0.0000 
     56 H          37.8639   32.9091   32.0254 H         1 L04256      0.0000 
     57 H          34.9571   36.6469   25.0113 H         1 L04256      0.0000 
     58 H          36.9204   35.1126   25.3749 H         1 L04256      0.0000 
     59 H          36.0181   33.8450   24.5270 H         1 L04256      0.0000 
     60 H          34.3793   33.6761   26.2282 H         1 L04256      0.0000 
     61 H          34.7786   35.2622   26.9100 H         1 L04256      0.0000 
     62 H          35.6310   31.7319   26.9075 H         1 L04256      0.0000 
     63 H          37.0329   30.6782   28.5638 H         1 L04256      0.0000 
     64 H          38.2581   34.4418   29.9272 H         1 L04256      0.0000 
     65 H          36.8576   35.4949   28.2676 H         1 L04256      0.0000 
     66 H          39.2664   31.8330   33.6686 H         1 L04256      0.0000 
     67 H          33.9761   34.9295   22.7817 H         1 L04256      0.0000 
     68 H          33.5610   34.3477   24.4032 H         1 L04256      0.0000 
     69 H          37.5527   37.4843   21.5545 H         1 L04256      0.0000 
     70 H          39.0208   39.4101   22.0038 H         1 L04256      0.0000 
     71 H          38.7969   39.1932   23.7481 H         1 L04256      0.0000 
     72 H          36.4734   39.9116   23.5905 H         1 L04256      0.0000 
     73 H          31.3645   38.7667   24.0766 H         1 L04256      0.0000 
     74 H          30.8923   37.9379   22.5832 H         1 L04256      0.0000 
     75 H          32.1573   39.4672   21.2267 H         1 L04256      0.0000 
     76 H          32.9643   40.1610   22.6435 H         1 L04256      0.0000 
     77 H          31.2338   41.6721   21.8215 H         1 L04256      0.0000 
     78 H          30.8612   41.0952   23.4550 H         1 L04256      0.0000 
     79 H          29.0034   41.1711   20.1206 H         1 L04256      0.0000 
     80 H          29.7354   39.5651   19.9626 H         1 L04256      0.0000 
     81 H          40.4773   35.3359   19.2829 H         1 L04256      0.0000 
     82 H          42.4270   33.9819   18.8325 H         1 L04256      0.0000 
     83 H          43.8805   33.3051   20.6478 H         1 L04256      0.0000 
     84 H          43.3817   33.9994   22.9129 H         1 L04256      0.0000 
     85 H          41.4316   35.3564   23.3645 H         1 L04256      0.0000 
     86 H          26.1618   38.6504   23.5596 H         1 L04256      0.0000 
     87 H          26.9604   39.2689   18.8120 H         1 L04256      0.0000 
     88 H          24.9167   38.2291   19.5825 H         1 L04256      0.0000 
     89 H          24.5213   37.9166   21.9398 H         1 L04256      0.0000 
     90 H          40.9681   29.4665   30.6658 H         1 L04256      0.0000 
     91 H          39.5835   30.5564   29.0185 H         1 L04256      0.0000 
     92 H          37.1311   37.4894   24.5047 H         1 L04256      0.0000 
     93 H          39.0906   36.4273   20.6298 H         1 L04256      0.0000 
     94 H          38.2065   41.6110   23.7141 H         1 L04256      0.0000 
     95 H          38.3157   41.7042   22.1124 H         1 L04256      0.0000 
     96 H          36.9786   42.1977   22.8572 H         1 L04256      0.0000 
     97 H          36.8501   40.1267   20.6456 H         1 L04256      0.0000 
     98 H          35.8973   39.0490   21.3646 H         1 L04256      0.0000 
     99 H          35.5336   40.6142   21.4300 H         1 L04256      0.0000 
@<TRIPOS>BOND
     1    2    1 1    
     2   23    1 1    
     3   53    1 1    
     4   54    1 1    
     5    3    2 1    
     6   18    2 1    
     7   55    2 1    
     8   48    3 ar   
     9   49    3 ar   
    10   21    4 1    
    11   94    4 1    
    12   95    4 1    
    13   96    4 1    
    14    6    5 ar   
    15   13    5 1    
    16   43    5 ar   
    17   17    6 ar   
    18   56    6 1    
    19    8    7 1    
    20   16    7 1    
    21   18    7 1    
    22   57    7 1    
    23    9    8 1    
    24   58    8 1    
    25   59    8 1    
    26   10    9 1    
    27   60    9 1    
    28   61    9 1    
    29   11   10 ar   
    30   15   10 ar   
    31   12   11 ar   
    32   62   11 1    
    33   13   12 ar   
    34   63   12 1    
    35   14   13 ar   
    36   15   14 ar   
    37   64   14 1    
    38   65   15 1    
    39   45   16 am   
    40   50   16 2    
    41   41   17 ar   
    42   66   17 1    
    43   67   18 1    
    44   68   18 1    
    45   20   19 1    
    46   27   19 1    
    47   45   19 1    
    48   69   19 1    
    49   21   20 1    
    50   70   20 1    
    51   71   20 1    
    52   22   21 1    
    53   72   21 1    
    54   97   22 1    
    55   98   22 1    
    56   99   22 1    
    57   24   23 1    
    58   73   23 1    
    59   74   23 1    
    60   25   24 1    
    61   75   24 1    
    62   76   24 1    
    63   44   25 1    
    64   77   25 1    
    65   78   25 1    
    66   29   26 1    
    67   44   26 am   
    68   47   26 2    
    69   46   27 am   
    70   51   27 2    
    71   36   28 1    
    72   44   28 1    
    73   79   28 1    
    74   80   28 1    
    75   36   29 ar   
    76   37   29 ar   
    77   31   30 ar   
    78   35   30 ar   
    79   46   30 1    
    80   32   31 ar   
    81   81   31 1    
    82   33   32 ar   
    83   82   32 1    
    84   34   33 ar   
    85   83   33 1    
    86   35   34 ar   
    87   84   34 1    
    88   85   35 1    
    89   38   36 ar   
    90   40   37 ar   
    91   86   37 1    
    92   39   38 ar   
    93   87   38 1    
    94   40   39 ar   
    95   88   39 1    
    96   89   40 1    
    97   42   41 ar   
    98   52   41 1    
    99   43   42 ar   
   100   90   42 1    
   101   91   43 1    
   102   92   45 1    
   103   93   46 1    
@<TRIPOS>SUBSTRUCTURE
     1 L04256      1 GROUP   
@<TRIPOS>SET

