#    Name: 2i3g_NAP_1_INTS_M
#    Modification time : Tue Mar 25 17:23:14 2014

@<TRIPOS>MOLECULE
2i3g_NAP_1_INTS_M
   90     0     9     0     0
SMALL
NO_CHARGES


@<TRIPOS>ATOM
      1 N          -9.8180   32.3250   -7.6930 N.am      2 SEC2        0.0000 
      2 N          -8.5970   31.5930   -7.8320 N.am      8 SEL2        0.0000 
      3 N         -11.0390   33.0570   -7.5540 N.am      5 SEP2        0.0000 
      4 N          -7.2545   31.6965   -7.2325 N.am      2 SEC2        0.0000 
      5 N          -5.9120   31.8000   -6.6330 N.am      5 SEP2        0.0000 
      6 N          -6.5465   30.5795   -7.2840 N.am      2 SEC2        0.0000 
      7 N          -7.1810   29.3590   -7.9350 N.am      8 SEL2        0.0000 
      8 N          -5.9800   29.4735   -6.7015 N.am      2 SEC2        0.0000 
      9 N          -4.7790   29.5880   -5.4680 N.am      5 SEP2        0.0000 
     10 N         -14.0155   27.8710   -6.5820 N.am      2 SEC2        0.0000 
     11 N         -12.7710   26.9710   -7.2770 N.am      8 SEL2        0.0000 
     12 N         -15.2600   28.7710   -5.8870 N.am      5 SEP2        0.0000 
     13 O         -13.1130   26.9765   -5.9990 O.2       1 ALC1        0.0000 
     14 O         -12.7710   26.9710   -7.2770 O.2       7 ALL1        0.0000 
     15 O         -13.4550   26.9820   -4.7210 O.2       4 ALP1        0.0000 
     16 N         -12.5505   23.2090   -6.3470 N.am      2 SEC2        0.0000 
     17 N         -11.6600   24.7030   -6.4040 N.am      8 SEL2        0.0000 
     18 N         -13.4410   21.7150   -6.2900 N.am      5 SEP2        0.0000 
     19 CA        -13.0035   25.9135   -9.2570 C.3       3 GLC5        0.0000 
     20 CA        -11.3010   25.0270   -8.7510 C.3       9 GLL5        0.0000 
     21 CA        -14.7060   26.8000   -9.7630 C.3       6 GLP5        0.0000 
     22 CA        -12.5055   24.6575  -10.5405 C.3       3 GLC5        0.0000 
     23 CA        -13.7100   24.2880  -12.3300 C.3       6 GLP5        0.0000 
     24 CA         -9.9345   25.3000  -10.4145 C.3       3 GLC5        0.0000 
     25 CA         -8.5680   25.5730  -12.0780 C.3       6 GLP5        0.0000 
     26 CA        -12.1685   20.8450   -8.4920 C.3       3 GLC5        0.0000 
     27 CA        -12.9660   21.2660  -10.3210 C.3       9 GLL5        0.0000 
     28 CA        -11.3710   20.4240   -6.6630 C.3       6 GLP5        0.0000 
     29 CA        -14.6355   20.8055  -10.3855 C.3       3 GLC5        0.0000 
     30 CA        -16.3050   20.3450  -10.4500 C.3       6 GLP5        0.0000 
     31 CA        -13.3380   22.7770  -11.3255 C.3       3 GLC5        0.0000 
     32 CA        -12.4900   23.5035  -10.9860 C.3       3 GLC5        0.0000 
     33 CA        -11.2700   22.7190   -9.6420 C.3       9 GLL5        0.0000 
     34 N         -10.9660   33.1445  -10.3165 N.am      2 SEC2        0.0000 
     35 N         -10.0580   32.0580  -10.5540 N.am      8 SEL2        0.0000 
     36 N         -11.8740   34.2310  -10.0790 N.am      5 SEP2        0.0000 
     37 N         -11.2240   31.3985  -10.2590 N.am      2 SEC2        0.0000 
     38 N         -12.3900   30.7390   -9.9640 N.am      5 SEP2        0.0000 
     39 CA        -11.5530   29.6925  -14.0460 C.3       3 GLC5        0.0000 
     40 CA         -9.4090   30.1500  -14.2950 C.3       9 GLL5        0.0000 
     41 CA        -13.6970   29.2350  -13.7970 C.3       6 GLP5        0.0000 
     42 CA         -7.7310   27.9050  -14.5375 C.3       3 GLC5        0.0000 
     43 CA         -8.0310   29.8380  -14.8910 C.3       9 GLL5        0.0000 
     44 CA         -7.4310   25.9720  -14.1840 C.3       6 GLP5        0.0000 
     45 CA         -8.7695   29.5710  -16.9915 C.3       3 GLC5        0.0000 
     46 CA         -9.5080   29.3040  -19.0920 C.3       6 GLP5        0.0000 
     47 O          -8.9325   28.0895  -15.6005 O.2       1 ALC1        0.0000 
     48 O          -8.1360   28.9860  -16.0340 O.2       7 ALL1        0.0000 
     49 O          -9.7290   27.1930  -15.1670 O.2       4 ALP1        0.0000 
     50 CA        -10.7505   31.8585  -16.2465 C.3       3 GLC5        0.0000 
     51 CA         -8.7700   31.9810  -15.5970 C.3       9 GLL5        0.0000 
     52 CA        -12.7310   31.7360  -16.8960 C.3       6 GLP5        0.0000 
     53 CA         -9.1390   30.6425  -17.3445 C.3       3 GLC5        0.0000 
     54 CA        -10.2615   33.8145  -13.3960 C.3       3 GLC5        0.0000 
     55 CA         -8.3250   34.0330  -14.3140 C.3       9 GLL5        0.0000 
     56 CA        -12.1980   33.5960  -12.4780 C.3       6 GLP5        0.0000 
     57 N          -7.1635   38.7915  -12.3645 N.am      2 SEC2        0.0000 
     58 N          -7.4590   37.4060  -12.9750 N.am      8 SEL2        0.0000 
     59 N          -6.8680   40.1770  -11.7540 N.am      5 SEP2        0.0000 
     60 O          -7.0340   36.0370  -10.6600 O.2       1 ALC1        0.0000 
     61 O          -8.0300   35.5300  -11.8080 O.2       7 ALL1        0.0000 
     62 O          -6.0380   36.5440   -9.5120 O.2       4 ALP1        0.0000 
     63 CA         -7.4730   35.8410  -18.7790 C.3       3 GLC5        0.0000 
     64 CA         -8.1690   35.4780  -16.6870 C.3       9 GLL5        0.0000 
     65 CA         -6.7770   36.2040  -20.8710 C.3       6 GLP5        0.0000 
     66 N         -12.6505   22.4320   -5.3580 N.am      2 SEC2        0.0000 
     67 N         -11.8600   23.1490   -4.4260 N.am      8 SEL2        0.0000 
     68 N         -12.3615   22.5990   -3.2430 N.am      2 SEC2        0.0000 
     69 N         -12.8630   22.0490   -2.0600 N.am      5 SEP2        0.0000 
     70 N         -12.4220   26.2920   -4.3960 N.am      2 SEC2        0.0000 
     71 N         -11.3890   25.6020   -4.0710 N.am      8 SEL2        0.0000 
     72 N         -13.4550   26.9820   -4.7210 N.am      5 SEP2        0.0000 
     73 N         -11.9595   25.2925   -2.9875 N.am      2 SEC2        0.0000 
     74 N         -12.5300   24.9830   -1.9040 N.am      5 SEP2        0.0000 
     75 CA         -9.4563   26.6290  -10.5337 C.3       3 GLC5        0.0000 
     76 CA        -11.0250   27.3450   -8.9100 C.3       9 GLL5        0.0000 
     77 CA        -12.9475   26.9705   -8.9743 C.3       3 GLC5        0.0000 
     78 CA        -11.2884   29.0670   -7.5381 C.3       3 GLC5        0.0000 
     79 CA        -11.7280   30.8230   -6.8510 C.3       6 GLP5        0.0000 
     80 CA        -11.1303   21.1816   -8.2981 C.3       3 GLC5        0.0000 
     81 CA        -10.3000   21.7710   -9.9720 C.3       9 GLL5        0.0000 
     82 CA        -10.2628   28.2628  -13.4447 C.3       3 GLC5        0.0000 
     83 CA         -9.3660   30.0230  -12.7700 C.3       9 GLL5        0.0000 
     84 CA        -11.1380   26.4390  -13.3570 C.3       6 GLP5        0.0000 
     85 CA         -9.9153   35.3145  -14.8717 C.3       3 GLC5        0.0000 
     86 CA        -11.6330   35.9100  -15.4620 C.3       6 GLP5        0.0000 
     87 CA         -7.1818   37.6160  -16.6565 C.3       3 GLC5        0.0000 
     88 CA         -7.9800   36.1180  -15.4510 C.3       9 GLL5        0.0000 
     89 CA         -6.2890   39.4340  -17.2440 C.3       6 GLP5        0.0000 
     90 CA         -9.9414   35.4305  -15.9167 C.3       3 GLC5        0.0000 
@<TRIPOS>BOND
@<TRIPOS>SUBSTRUCTURE
     1 ALC1       13 GROUP        1 X    ALC  0     ROOT ALC X 1
     2 SEC2        1 GROUP        1 X    SEC  0     **** SEC X 2
     3 GLC5       19 GROUP        1 X    GLC  0     **** GLC X 6
     4 ALP1       15 GROUP        1 Y    ALP  0     ROOT ALP Y 8
     5 SEP2        3 GROUP        1 Y    SEP  0     **** SEP Y 9
     6 GLP5       21 GROUP        1 Y    GLP  0     **** GLP Y 13
     7 ALL1       14 GROUP        1 Z    ALL  0     ROOT ALL Z 15
     8 SEL2        2 GROUP        1 Z    SEL  0     **** SEL Z 16
     9 GLL5       20 GROUP        1 Z    GLL  0     **** GLL Z 20
@<TRIPOS>SET

