#    Name: 2i3g_NAP_1_ligand
#    Modification time : Tue Mar 25 17:23:14 2014

@<TRIPOS>MOLECULE
2i3g_NAP_1_ligand
   73    77     1     0     0
SMALL
NO_CHARGES


@<TRIPOS>ATOM
      1 PA         -8.3170   30.2380   -8.4340 P.3       1 NAP500      0.0000 
      2 O1A        -8.5970   31.5930   -7.8320 O.co2     1 NAP500      0.0000 
      3 O2A        -7.1810   29.3590   -7.9350 O.co2     1 NAP500      0.0000 
      4 O5B        -9.6290   29.2790   -8.3910 O.3       1 NAP500      0.0000 
      5 C5B        -9.6640   28.0250   -9.0690 C.3       1 NAP500      0.0000 
      6 C4B       -11.0250   27.3450   -8.9100 C.3       1 NAP500      0.0000 
      7 O4B       -10.9690   26.1190   -9.6370 O.3       1 NAP500      0.0000 
      8 C3B       -11.3530   26.9370   -7.4610 C.3       1 NAP500      0.0000 
      9 O3B       -12.7710   26.9710   -7.2770 O.3       1 NAP500      0.0000 
     10 C2B       -10.9270   25.4820   -7.3550 C.3       1 NAP500      0.0000 
     11 O2B       -11.6600   24.7030   -6.4040 O.3       1 NAP500      0.0000 
     12 C1B       -11.3010   25.0270   -8.7510 C.3       1 NAP500      0.0000 
     13 N9A       -10.6140   23.7900   -9.1700 N.pl3     1 NAP500      0.0000 
     14 C8A        -9.2890   23.5540   -9.1950 C.2       1 NAP500      0.0000 
     15 N7A        -9.0860   22.3080   -9.6890 N.2       1 NAP500      0.0000 
     16 C5A       -10.3000   21.7710   -9.9720 C.ar      1 NAP500      0.0000 
     17 C6A       -10.7180   20.5480  -10.4770 C.ar      1 NAP500      0.0000 
     18 N6A        -9.8150   19.5790  -10.8000 N.pl3     1 NAP500      0.0000 
     19 N1A       -12.0460   20.3310  -10.6380 N.ar      1 NAP500      0.0000 
     20 C2A       -12.9660   21.2660  -10.3210 C.ar      1 NAP500      0.0000 
     21 N3A       -12.6080   22.4580   -9.8220 N.ar      1 NAP500      0.0000 
     22 C4A       -11.2700   22.7190   -9.6420 C.ar      1 NAP500      0.0000 
     23 O3         -8.0640   30.4570  -10.0070 O.3       1 NAP500      0.0000 
     24 PN         -8.6010   31.7460  -10.8180 P.3       1 NAP500      0.0000 
     25 O1N        -7.6100   32.8860  -10.8100 O.co2     1 NAP500      0.0000 
     26 O2N       -10.0580   32.0580  -10.5540 O.co2     1 NAP500      0.0000 
     27 O5D        -8.4600   31.0040  -12.2610 O.3       1 NAP500      0.0000 
     28 C5D        -9.3660   30.0230  -12.7700 C.3       1 NAP500      0.0000 
     29 C4D        -9.4090   30.1500  -14.2950 C.3       1 NAP500      0.0000 
     30 O4D        -9.7390   31.5040  -14.6530 O.3       1 NAP500      0.0000 
     31 C3D        -8.0310   29.8380  -14.8910 C.3       1 NAP500      0.0000 
     32 O3D        -8.1360   28.9860  -16.0340 O.3       1 NAP500      0.0000 
     33 C2D        -7.5050   31.1740  -15.3440 C.3       1 NAP500      0.0000 
     34 O2D        -6.7120   31.0740  -16.5330 O.3       1 NAP500      0.0000 
     35 C1D        -8.7700   31.9810  -15.5970 C.3       1 NAP500      0.0000 
     36 N1N        -8.4990   33.4170  -15.5100 N.pl3     1 NAP500      0.0000 
     37 C2N        -8.3250   34.0330  -14.3140 C.ar      1 NAP500      0.0000 
     38 C3N        -8.0700   35.4050  -14.2490 C.ar      1 NAP500      0.0000 
     39 C7N        -7.8620   36.1240  -12.9330 C.2       1 NAP500      0.0000 
     40 O7N        -7.4590   37.4060  -12.9750 O.2       1 NAP500      0.0000 
     41 N7N        -8.0300   35.5300  -11.8080 N.am      1 NAP500      0.0000 
     42 C4N        -7.9800   36.1180  -15.4510 C.ar      1 NAP500      0.0000 
     43 C5N        -8.1690   35.4780  -16.6870 C.ar      1 NAP500      0.0000 
     44 C6N        -8.4250   34.1040  -16.6740 C.ar      1 NAP500      0.0000 
     45 P2B       -11.1110   24.3600   -4.9060 P.3       1 NAP500      0.0000 
     46 O1X       -11.8600   23.1490   -4.4260 O.co2     1 NAP500      0.0000 
     47 O2X        -9.6500   24.0420   -5.1580 O.co2     1 NAP500      0.0000 
     48 O3X       -11.3890   25.6020   -4.0710 O.co2     1 NAP500      0.0000 
     49 H          -8.8992   27.3313   -8.6819 H         1 NAP500      0.0000 
     50 H          -9.4751   28.1407  -10.1492 H         1 NAP500      0.0000 
     51 H         -11.7930   27.9727   -9.2790 H         1 NAP500      0.0000 
     52 H         -10.8172   27.5161   -6.7985 H         1 NAP500      0.0000 
     53 H          -9.8847   25.4329   -7.2713 H         1 NAP500      0.0000 
     54 H         -12.3803   24.8750   -8.7675 H         1 NAP500      0.0000 
     55 H          -8.5973   24.1639   -8.9110 H         1 NAP500      0.0000 
     56 H         -10.1959   18.7131  -11.1242 H         1 NAP500      0.0000 
     57 H          -8.8513   19.8194  -10.6843 H         1 NAP500      0.0000 
     58 H         -13.9861   21.0513  -10.4701 H         1 NAP500      0.0000 
     59 H         -10.3788   30.1697  -12.3942 H         1 NAP500      0.0000 
     60 H          -9.0466   29.0090  -12.5284 H         1 NAP500      0.0000 
     61 H         -10.1153   29.4577  -14.6863 H         1 NAP500      0.0000 
     62 H          -7.4067   29.4599  -14.1344 H         1 NAP500      0.0000 
     63 H          -6.9876   31.6291  -14.5287 H         1 NAP500      0.0000 
     64 H          -9.0933   31.7239  -16.6134 H         1 NAP500      0.0000 
     65 H          -8.3785   33.4952  -13.4280 H         1 NAP500      0.0000 
     66 H          -8.3364   34.5792  -11.8539 H         1 NAP500      0.0000 
     67 H          -7.8389   36.0734  -10.9906 H         1 NAP500      0.0000 
     68 H          -7.7720   37.1278  -15.4303 H         1 NAP500      0.0000 
     69 H          -8.1210   35.9946  -17.5517 H         1 NAP500      0.0000 
     70 H          -8.5582   33.6182  -17.5853 H         1 NAP500      0.0000 
     71 H         -12.9029   26.9872   -6.2859 H         1 NAP500      0.0000 
     72 H          -8.2844   28.0701  -15.6611 H         1 NAP500      0.0000 
     73 H          -6.7744   30.1139  -16.8056 H         1 NAP500      0.0000 
@<TRIPOS>BOND
     1    2    1 ar   
     2    3    1 ar   
     3    4    1 1    
     4   23    1 1    
     5    5    4 1    
     6    6    5 1    
     7   49    5 1    
     8   50    5 1    
     9    7    6 1    
    10    8    6 1    
    11   51    6 1    
    12   12    7 1    
    13    9    8 1    
    14   10    8 1    
    15   52    8 1    
    16   71    9 1    
    17   11   10 1    
    18   12   10 1    
    19   53   10 1    
    20   45   11 1    
    21   13   12 1    
    22   54   12 1    
    23   14   13 1    
    24   22   13 1    
    25   15   14 2    
    26   55   14 1    
    27   16   15 1    
    28   17   16 ar   
    29   22   16 ar   
    30   18   17 1    
    31   19   17 ar   
    32   56   18 1    
    33   57   18 1    
    34   20   19 ar   
    35   21   20 ar   
    36   58   20 1    
    37   22   21 ar   
    38   24   23 1    
    39   25   24 ar   
    40   26   24 ar   
    41   27   24 1    
    42   28   27 1    
    43   29   28 1    
    44   59   28 1    
    45   60   28 1    
    46   30   29 1    
    47   31   29 1    
    48   61   29 1    
    49   35   30 1    
    50   32   31 1    
    51   33   31 1    
    52   62   31 1    
    53   72   32 1    
    54   34   33 1    
    55   35   33 1    
    56   63   33 1    
    57   73   34 1    
    58   36   35 1    
    59   64   35 1    
    60   37   36 ar   
    61   44   36 ar   
    62   38   37 ar   
    63   65   37 1    
    64   39   38 1    
    65   42   38 ar   
    66   40   39 2    
    67   41   39 am   
    68   66   41 1    
    69   67   41 1    
    70   43   42 ar   
    71   68   42 1    
    72   44   43 ar   
    73   69   43 1    
    74   70   44 1    
    75   46   45 ar   
    76   47   45 ar   
    77   48   45 ar   
@<TRIPOS>SUBSTRUCTURE
     1 NAP500      1 GROUP   
@<TRIPOS>SET

