#    Name: 3jun_AJD_1_INTS_M
#    Modification time : Tue Mar 25 17:57:10 2014

@<TRIPOS>MOLECULE
3jun_AJD_1_INTS_M
   46     0    12     0     0
SMALL
NO_CHARGES


@<TRIPOS>ATOM
      1 NZ         45.4295   -5.7135   93.9425 N.4       3 LYC4        0.0000 
      2 NZ         46.0290   -4.4840   93.4950 N.4      11 LYL4        0.0000 
      3 NZ         43.8060   -6.8670   95.2260 N.4       7 LYP4        0.0000 
      4 N          45.4295   -5.7135   93.9425 N.am      1 SEC2        0.0000 
      5 N          46.0290   -4.4840   93.4950 N.am      9 SEL2        0.0000 
      6 N          44.8300   -6.9430   94.3900 N.am      5 SEP2        0.0000 
      7 NZ         43.9655   -5.5100   93.8275 N.4       3 LYC4        0.0000 
      8 NZ         44.1250   -4.1530   92.4290 N.4      11 LYL4        0.0000 
      9 CA         47.7615    2.5305   94.2175 C.3       4 GLC5        0.0000 
     10 CA         48.0330    0.4770   94.4030 C.3      12 GLL5        0.0000 
     11 CA         47.4900    4.5840   94.0320 C.3       8 GLP5        0.0000 
     12 CA         48.4975    1.5190   95.8740 C.3       4 GLC5        0.0000 
     13 CA         48.9620    2.5610   97.3450 C.3       8 GLP5        0.0000 
     14 CA         38.5715   -1.0475   94.4620 C.3       4 GLC5        0.0000 
     15 CA         38.8700   -1.6750   92.6750 C.3      12 GLL5        0.0000 
     16 CA         38.2730   -0.4200   96.2490 C.3       8 GLP5        0.0000 
     17 CA         39.6440   -1.5355   89.7065 C.3       4 GLC5        0.0000 
     18 CA         38.9590   -0.8130   91.4330 C.3      12 GLL5        0.0000 
     19 CA         40.3290   -2.2580   87.9800 C.3       8 GLP5        0.0000 
     20 CA         37.8270   -0.4180   89.8775 C.3       4 GLC5        0.0000 
     21 CA         36.6950   -0.0230   88.3220 C.3       8 GLP5        0.0000 
     22 CA         39.2595   -3.8140   92.5585 C.3       4 GLC5        0.0000 
     23 CA         40.1930   -2.2940   93.0130 C.3      12 GLL5        0.0000 
     24 CA         38.3260   -5.3340   92.1040 C.3       8 GLP5        0.0000 
     25 CA         40.8385   -1.4075   89.8905 C.3       4 GLC5        0.0000 
     26 CA         41.3480   -0.5570   91.8010 C.3      12 GLL5        0.0000 
     27 OD1        40.4215    0.6635   90.3025 O.co2     2 ASC3        0.0000 
     28 OD1        40.0760    0.0860   91.5450 O.co2    10 ASL3        0.0000 
     29 OD1        40.7670    1.2410   89.0600 O.co2     6 ASP3        0.0000 
     30 OD1        39.4320    1.1145   90.4530 O.co2     2 ASC3        0.0000 
     31 OD1        38.7880    2.1430   89.3610 O.co2     6 ASP3        0.0000 
     32 CA         44.4522   -0.6975   95.6202 C.3       4 GLC5        0.0000 
     33 CA         45.1850    0.4250   94.1670 C.3      12 GLL5        0.0000 
     34 CA         44.3490   -1.5230   97.1930 C.3       8 GLP5        0.0000 
     35 CA         47.8148   -1.4389   95.5305 C.3       4 GLC5        0.0000 
     36 CA         46.3290   -0.3460   94.1150 C.3      12 GLL5        0.0000 
     37 CA         48.9010   -2.0850   97.0380 C.3       8 GLP5        0.0000 
     38 CA         45.3257   -1.2607   95.5720 C.3       4 GLC5        0.0000 
     39 CA         38.0657   -2.5785   91.2565 C.3       4 GLC5        0.0000 
     40 CA         37.2170   -3.9130   90.4590 C.3       8 GLP5        0.0000 
     41 CA         36.9283   -0.8840   92.4055 C.3       4 GLC5        0.0000 
     42 CA         34.9420   -0.5240   92.7570 C.3       8 GLP5        0.0000 
     43 CA         40.4405   -1.8382   94.8363 C.3       4 GLC5        0.0000 
     44 CA         40.0990   -1.8980   96.6010 C.3       8 GLP5        0.0000 
     45 CA         44.3833   -1.6960   95.3610 C.3       4 GLC5        0.0000 
     46 CA         43.8140   -1.4780   93.5550 C.3      12 GLL5        0.0000 
@<TRIPOS>BOND
@<TRIPOS>SUBSTRUCTURE
     1 SEC2        4 GROUP        1 X    SEC  0     ROOT SEC X 2
     2 ASC3       27 GROUP        1 X    ASC  0     **** ASC X 3
     3 LYC4        1 GROUP        1 X    LYC  0     **** LYC X 4
     4 GLC5        9 GROUP        1 X    GLC  0     **** GLC X 6
     5 SEP2        6 GROUP        1 Y    SEP  0     ROOT SEP Y 9
     6 ASP3       29 GROUP        1 Y    ASP  0     **** ASP Y 10
     7 LYP4        3 GROUP        1 Y    LYP  0     **** LYP Y 11
     8 GLP5       11 GROUP        1 Y    GLP  0     **** GLP Y 13
     9 SEL2        5 GROUP        1 Z    SEL  0     ROOT SEL Z 16
    10 ASL3       28 GROUP        1 Z    ASL  0     **** ASL Z 17
    11 LYL4        2 GROUP        1 Z    LYL  0     **** LYL Z 18
    12 GLL5       10 GROUP        1 Z    GLL  0     **** GLL Z 20
@<TRIPOS>SET

