#    Name: 3jun_AJD_1_ligand
#    Modification time : Tue Mar 25 17:57:10 2014

@<TRIPOS>MOLECULE
3jun_AJD_1_ligand
   30    31     1     0     0
SMALL
NO_CHARGES


@<TRIPOS>ATOM
      1 OAA        46.0290   -4.4840   93.4950 O.co2     1 AJD500      0.0000 
      2 OAB        44.1250   -4.1530   92.4290 O.co2     1 AJD500      0.0000 
      3 BRAC       48.0330    0.4770   94.4030 Br        1 AJD500      0.0000 
      4 CAD        45.1850    0.4250   94.1670 C.ar      1 AJD500      0.0000 
      5 CAE        43.9260   -0.1690   93.9280 C.ar      1 AJD500      0.0000 
      6 CAF        46.2760   -1.6510   93.7870 C.ar      1 AJD500      0.0000 
      7 CAG        38.8700   -1.6750   92.6750 C.3       1 AJD500      0.0000 
      8 CAH        38.9590   -0.8130   91.4330 C.3       1 AJD500      0.0000 
      9 CAI        40.1930   -2.2940   93.0130 C.3       1 AJD500      0.0000 
     10 CAJ        41.3480   -0.5570   91.8010 C.3       1 AJD500      0.0000 
     11 NAK        40.0760    0.0860   91.5450 N.4       1 AJD500      0.0000 
     12 NAL        42.5960   -2.0610   93.2900 N.pl3     1 AJD500      0.0000 
     13 CAM        45.0520   -3.7230   93.1400 C.2       1 AJD500      0.0000 
     14 CAN        46.3290   -0.3460   94.1150 C.ar      1 AJD500      0.0000 
     15 CAO        43.8140   -1.4780   93.5550 C.ar      1 AJD500      0.0000 
     16 CAP        45.0210   -2.2600   93.5030 C.ar      1 AJD500      0.0000 
     17 CAQ        41.3710   -1.2630   93.1300 C.3       1 AJD500      0.0000 
     18 H          45.2341    1.4272   94.3774 H         1 AJD500      0.0000 
     19 H          43.0776    0.4203   94.0440 H         1 AJD500      0.0000 
     20 H          47.1213   -2.2364   93.7324 H         1 AJD500      0.0000 
     21 H          38.1253   -2.4631   92.5109 H         1 AJD500      0.0000 
     22 H          38.5261   -1.0587   93.5144 H         1 AJD500      0.0000 
     23 H          38.0156   -0.2652   91.3271 H         1 AJD500      0.0000 
     24 H          39.0640   -1.4728   90.5641 H         1 AJD500      0.0000 
     25 H          40.4753   -3.0330   92.2461 H         1 AJD500      0.0000 
     26 H          40.1282   -2.8323   93.9721 H         1 AJD500      0.0000 
     27 H          42.1694    0.1838   91.7857 H         1 AJD500      0.0000 
     28 H          41.5777   -1.2955   91.0101 H         1 AJD500      0.0000 
     29 H          42.4975   -3.0835   93.1935 H         1 AJD500      0.0000 
     30 H          41.1732   -0.6288   93.9100 H         1 AJD500      0.0000 
@<TRIPOS>BOND
     1   13    1 ar   
     2   13    2 ar   
     3   14    3 1    
     4    5    4 ar   
     5   14    4 ar   
     6   18    4 1    
     7   15    5 ar   
     8   19    5 1    
     9   14    6 ar   
    10   16    6 ar   
    11   20    6 1    
    12    8    7 1    
    13    9    7 1    
    14   21    7 1    
    15   22    7 1    
    16   11    8 1    
    17   23    8 1    
    18   24    8 1    
    19   17    9 1    
    20   25    9 1    
    21   26    9 1    
    22   11   10 1    
    23   17   10 1    
    24   27   10 1    
    25   28   10 1    
    26   15   12 1    
    27   17   12 1    
    28   29   12 1    
    29   16   13 1    
    30   16   15 ar   
    31   30   17 1    
@<TRIPOS>SUBSTRUCTURE
     1 AJD500      1 GROUP   
@<TRIPOS>SET

