#    Name: 3dxk_N23_1_INTS_M
#    Modification time : Tue Mar 25 00:35:33 2014

@<TRIPOS>MOLECULE
3dxk_N23_1_INTS_M
   63     0     9     0     0
SMALL
NO_CHARGES


@<TRIPOS>ATOM
      1 CA          3.8295   16.0395   38.5325 C.3       3 GLC5        0.0000 
      2 CA          2.0170   15.5410   38.1230 C.3       9 GLL5        0.0000 
      3 CA          5.6420   16.5380   38.9420 C.3       6 GLP5        0.0000 
      4 CA          3.2080   17.0025   36.9185 C.3       3 GLC5        0.0000 
      5 CA          4.3990   18.4640   35.7140 C.3       6 GLP5        0.0000 
      6 O           0.6750   13.3475   36.2370 O.2       1 ALC1        0.0000 
      7 O           0.2830   14.7030   36.4600 O.2       7 ALL1        0.0000 
      8 O           1.0670   11.9920   36.0140 O.2       4 ALP1        0.0000 
      9 CA         -3.9185   16.0595   36.4695 C.3       3 GLC5        0.0000 
     10 CA         -2.8180   16.6590   34.6550 C.3       9 GLL5        0.0000 
     11 CA         -5.0190   15.4600   38.2840 C.3       6 GLP5        0.0000 
     12 CA          2.4525   18.3690   36.5830 C.3       3 GLC5        0.0000 
     13 CA          0.5060   18.2740   37.4520 C.3       9 GLL5        0.0000 
     14 CA         -1.2445   19.4700   37.0945 C.3       3 GLC5        0.0000 
     15 CA         -2.9950   20.6660   36.7370 C.3       6 GLP5        0.0000 
     16 CA         -0.6530   19.9750   40.4000 C.3       3 GLC5        0.0000 
     17 CA         -0.2480   18.5770   38.7470 C.3       9 GLL5        0.0000 
     18 CA         -1.0580   21.3730   42.0530 C.3       6 GLP5        0.0000 
     19 CA         -1.9310   19.0690   38.0280 C.3       3 GLC5        0.0000 
     20 CA         -3.6140   19.5610   37.3090 C.3       6 GLP5        0.0000 
     21 CA         -1.4465   16.8530   38.7985 C.3       3 GLC5        0.0000 
     22 CA         -2.6450   15.1290   38.8500 C.3       6 GLP5        0.0000 
     23 N           1.6360   20.2000   40.5085 N.am      2 SEC2        0.0000 
     24 N           1.5260   18.8720   40.8850 N.am      8 SEL2        0.0000 
     25 N           1.7460   21.5280   40.1320 N.am      5 SEP2        0.0000 
     26 CA         -1.0590   15.2920   40.2125 C.3       3 GLC5        0.0000 
     27 CA          0.5270   15.4550   41.5750 C.3       9 GLL5        0.0000 
     28 CA          2.3305   14.9830   45.5345 C.3       3 GLC5        0.0000 
     29 CA          1.7040   14.9660   43.4650 C.3       9 GLL5        0.0000 
     30 CA          2.9570   15.0000   47.6040 C.3       6 GLP5        0.0000 
     31 CA          4.1790   16.6940   42.4700 C.3       3 GLC5        0.0000 
     32 CA          2.2280   16.5250   43.0090 C.3       9 GLL5        0.0000 
     33 CA          6.1300   16.8630   41.9310 C.3       6 GLP5        0.0000 
     34 CA          1.7005   13.8523   38.4430 C.3       3 GLC5        0.0000 
     35 CA          1.9690   12.0860   39.2490 C.3       6 GLP5        0.0000 
     36 CA          1.3302   16.3255   35.2682 C.3       3 GLC5        0.0000 
     37 CA          0.8470   15.6960   37.1510 C.3       9 GLL5        0.0000 
     38 CA          2.1640   16.3650   33.4890 C.3       6 GLP5        0.0000 
     39 CA         -1.0743   15.7075   37.9488 C.3       3 GLC5        0.0000 
     40 CA         -0.2072   15.8317   34.1505 C.3       3 GLC5        0.0000 
     41 CA         -0.7580   15.1930   35.7940 C.3       9 GLL5        0.0000 
     42 CA          0.7960   16.7830   32.9340 C.3       6 GLP5        0.0000 
     43 CA         -3.0700   14.0745   36.3062 C.3       3 GLC5        0.0000 
     44 CA         -1.6630   14.5680   34.9400 C.3       9 GLL5        0.0000 
     45 CA         -3.9650   13.2140   37.9640 C.3       6 GLP5        0.0000 
     46 CA         -0.9783   16.3818   33.7200 C.3       3 GLC5        0.0000 
     47 CA         -2.6870   15.3020   34.3570 C.3       9 GLL5        0.0000 
     48 CA         -4.6627   16.2852   34.6980 C.3       3 GLC5        0.0000 
     49 CA         -6.5730   16.5900   34.8900 C.3       6 GLP5        0.0000 
     50 CA         -2.8105   18.6875   34.0915 C.3       3 GLC5        0.0000 
     51 CA         -3.2480   20.4010   33.0990 C.3       6 GLP5        0.0000 
     52 CA         -3.8232   14.3690   34.8099 C.3       3 GLC5        0.0000 
     53 CA         -5.1500   12.9410   34.9680 C.3       6 GLP5        0.0000 
     54 CA         -0.3057   16.8518   34.3633 C.3       3 GLC5        0.0000 
     55 CA         -1.9280   17.2890   35.5130 C.3       9 GLL5        0.0000 
     56 CA         -2.0101   15.8549   37.2865 C.3       3 GLC5        0.0000 
     57 CA          1.2240   20.1767   38.4733 C.3       3 GLC5        0.0000 
     58 CA          2.3190   21.9280   38.8470 C.3       6 GLP5        0.0000 
     59 CA          0.3995   13.2862   41.4812 C.3       3 GLC5        0.0000 
     60 CA          0.1370   11.5490   40.8940 C.3       6 GLP5        0.0000 
     61 CA         -1.2750   15.6083   42.3352 C.3       3 GLC5        0.0000 
     62 CA          0.7970   14.5920   42.5620 C.3       9 GLL5        0.0000 
     63 CA         -3.2120   16.1930   42.6020 C.3       6 GLP5        0.0000 
@<TRIPOS>BOND
@<TRIPOS>SUBSTRUCTURE
     1 ALC1        6 GROUP        1 X    ALC  0     ROOT ALC X 1
     2 SEC2       23 GROUP        1 X    SEC  0     **** SEC X 2
     3 GLC5        1 GROUP        1 X    GLC  0     **** GLC X 6
     4 ALP1        8 GROUP        1 Y    ALP  0     ROOT ALP Y 8
     5 SEP2       25 GROUP        1 Y    SEP  0     **** SEP Y 9
     6 GLP5        3 GROUP        1 Y    GLP  0     **** GLP Y 13
     7 ALL1        7 GROUP        1 Z    ALL  0     ROOT ALL Z 15
     8 SEL2       24 GROUP        1 Z    SEL  0     **** SEL Z 16
     9 GLL5        2 GROUP        1 Z    GLL  0     **** GLL Z 20
@<TRIPOS>SET

