#    Name: 3dxk_N23_1_ligand
#    Modification time : Tue Mar 25 00:35:33 2014

@<TRIPOS>MOLECULE
3dxk_N23_1_ligand
   36    38     1     0     0
SMALL
NO_CHARGES


@<TRIPOS>ATOM
      1 CAO         2.0170   15.5410   38.1230 C.3       1 N23395      0.0000 
      2 CAB         0.8470   15.6960   37.1510 C.2       1 N23395      0.0000 
      3 NAA         0.2830   14.7030   36.4600 N.pl3     1 N23395      0.0000 
      4 CAE        -0.7580   15.1930   35.7940 C.ar      1 N23395      0.0000 
      5 CAR        -1.6630   14.5680   34.9400 C.ar      1 N23395      0.0000 
      6 CAT        -2.6870   15.3020   34.3570 C.ar      1 N23395      0.0000 
      7 CAS        -2.8180   16.6590   34.6550 C.ar      1 N23395      0.0000 
      8 CAQ        -1.9280   17.2890   35.5130 C.ar      1 N23395      0.0000 
      9 CAD        -0.8870   16.5520   36.0720 C.ar      1 N23395      0.0000 
     10 CAC         0.1460   16.8760   36.9440 C.2       1 N23395      0.0000 
     11 CAN         0.5060   18.2740   37.4520 C.3       1 N23395      0.0000 
     12 CAP        -0.2480   18.5770   38.7470 C.3       1 N23395      0.0000 
     13 NAM         0.0990   17.5440   39.7360 N.am      1 N23395      0.0000 
     14 CAG         0.9630   17.7870   40.7100 C.2       1 N23395      0.0000 
     15 OAK         1.5260   18.8720   40.8850 O.2       1 N23395      0.0000 
     16 CAF         1.2040   16.5970   41.6400 C.2       1 N23395      0.0000 
     17 CAI         0.5270   15.4550   41.5750 C.2       1 N23395      0.0000 
     18 CAL         0.7970   14.5920   42.5620 C.2       1 N23395      0.0000 
     19 CAJ         1.7040   14.9660   43.4650 C.2       1 N23395      0.0000 
     20 SAH         2.2280   16.5250   43.0090 S.3       1 N23395      0.0000 
     21 H           0.5849   13.7786   36.4478 H         1 N23395      0.0000 
     22 H          -1.5713   13.5631   34.7425 H         1 N23395      0.0000 
     23 H          -3.3444   14.8531   33.7113 H         1 N23395      0.0000 
     24 H          -3.5900   17.1993   34.2288 H         1 N23395      0.0000 
     25 H          -2.0332   18.2820   35.7336 H         1 N23395      0.0000 
     26 H           0.2374   19.0091   36.6992 H         1 N23395      0.0000 
     27 H           1.5747   18.3235   37.6382 H         1 N23395      0.0000 
     28 H          -1.3121   18.5695   38.5371 H         1 N23395      0.0000 
     29 H           0.0462   19.5609   39.0960 H         1 N23395      0.0000 
     30 H          -0.3756   16.6303   39.6135 H         1 N23395      0.0000 
     31 H          -0.1385   15.2503   40.8421 H         1 N23395      0.0000 
     32 H           0.3246   13.6817   42.6191 H         1 N23395      0.0000 
     33 H           2.0954   14.6393   44.2100 H         1 N23395      0.0000 
     34 H           2.8284   15.1699   37.6714 H         1 N23395      0.0000 
     35 H           2.2816   16.4161   38.5282 H         1 N23395      0.0000 
     36 H           1.7936   14.9241   38.8777 H         1 N23395      0.0000 
@<TRIPOS>BOND
     1    2    1 1    
     2   34    1 1    
     3   35    1 1    
     4   36    1 1    
     5    3    2 1    
     6   10    2 2    
     7    4    3 1    
     8   21    3 1    
     9    5    4 ar   
    10    9    4 ar   
    11    6    5 ar   
    12   22    5 1    
    13    7    6 ar   
    14   23    6 1    
    15    8    7 ar   
    16   24    7 1    
    17    9    8 ar   
    18   25    8 1    
    19   10    9 1    
    20   11   10 1    
    21   12   11 1    
    22   26   11 1    
    23   27   11 1    
    24   13   12 1    
    25   28   12 1    
    26   29   12 1    
    27   14   13 am   
    28   30   13 1    
    29   15   14 2    
    30   16   14 1    
    31   17   16 2    
    32   20   16 1    
    33   18   17 1    
    34   31   17 1    
    35   19   18 2    
    36   32   18 1    
    37   20   19 1    
    38   33   19 1    
@<TRIPOS>SUBSTRUCTURE
     1 N23395      1 GROUP   
@<TRIPOS>SET

