#    Name: 1i3l_GDU_1_INTS_M
#    Modification time : Tue Mar 25 06:37:58 2014

@<TRIPOS>MOLECULE
1i3l_GDU_1_INTS_M
   58     0    12     0     0
SMALL
NO_CHARGES


@<TRIPOS>ATOM
      1 O          26.9185   15.1715   55.2875 O.2       1 ALC1        0.0000 
      2 O          26.1850   15.5600   54.0760 O.2       9 ALL1        0.0000 
      3 O          27.6520   14.7830   56.4990 O.2       5 ALP1        0.0000 
      4 CA         23.9785   14.0845   50.4195 C.3       4 GLC5        0.0000 
      5 CA         25.1480   15.0570   52.0190 C.3      12 GLL5        0.0000 
      6 CA         22.8090   13.1120   48.8200 C.3       8 GLP5        0.0000 
      7 CA         23.3695   14.6210   52.1220 C.3       4 GLC5        0.0000 
      8 CA         21.5910   14.1850   52.2250 C.3       8 GLP5        0.0000 
      9 CA         22.9480   15.9680   52.2505 C.3       4 GLC5        0.0000 
     10 CA         24.7740   16.3130   51.9420 C.3      12 GLL5        0.0000 
     11 CA         21.1220   15.6230   52.5590 C.3       8 GLP5        0.0000 
     12 N          27.3845   17.9215   55.4580 N.am      2 SEC2        0.0000 
     13 N          26.1450   17.6010   54.9860 N.am     10 SEL2        0.0000 
     14 N          28.6240   18.2420   55.9300 N.am      6 SEP2        0.0000 
     15 CA         23.3620   17.1400   53.8170 C.3       4 GLC5        0.0000 
     16 CA         24.6360   18.6170   52.7450 C.3      12 GLL5        0.0000 
     17 CA         22.0880   15.6630   54.8890 C.3       8 GLP5        0.0000 
     18 CA         23.8450   19.5355   54.2040 C.3       4 GLC5        0.0000 
     19 CA         23.0540   20.4540   55.6630 C.3       8 GLP5        0.0000 
     20 O          27.3115   20.4350   51.1205 O.2       1 ALC1        0.0000 
     21 O          26.4410   20.0080   51.9240 O.2       9 ALL1        0.0000 
     22 O          28.1820   20.8620   50.3170 O.2       5 ALP1        0.0000 
     23 CA         21.5770   18.4470   52.9380 C.3       4 GLC5        0.0000 
     24 CA         22.8640   19.6350   51.6300 C.3      12 GLL5        0.0000 
     25 CA         20.2900   17.2590   54.2460 C.3       8 GLP5        0.0000 
     26 CA         22.9590   20.0445   53.6465 C.3       4 GLC5        0.0000 
     27 CA         21.6400   17.3065   51.5065 C.3       4 GLC5        0.0000 
     28 CA         22.1580   18.9900   50.4540 C.3      12 GLL5        0.0000 
     29 N          24.6550   18.1500   49.1075 N.am      2 SEC2        0.0000 
     30 N          23.1750   18.2630   49.7350 N.am     10 SEL2        0.0000 
     31 N          26.1350   18.0370   48.4800 N.am      6 SEP2        0.0000 
     32 N          21.7820   15.2210   49.9290 N.am      2 SEC2        0.0000 
     33 N          21.6140   16.3400   49.0340 N.am     10 SEL2        0.0000 
     34 N          21.9500   14.1020   50.8240 N.am      6 SEP2        0.0000 
     35 NZ         25.4665   16.2455   48.3610 N.4       3 LYC4        0.0000 
     36 NZ         23.9370   16.5400   48.1250 N.4      11 LYL4        0.0000 
     37 NZ         27.2040   17.2550   48.5250 N.4       7 LYP4        0.0000 
     38 N          25.4665   16.2455   48.3610 N.am      2 SEC2        0.0000 
     39 N          23.9370   16.5400   48.1250 N.am     10 SEL2        0.0000 
     40 N          26.9960   15.9510   48.5970 N.am      6 SEP2        0.0000 
     41 N          25.0360   17.2885   48.3025 N.am      2 SEC2        0.0000 
     42 NZ         23.9860   21.7810   48.2765 N.4       3 LYC4        0.0000 
     43 NZ         23.6410   20.3170   47.5910 N.4      11 LYL4        0.0000 
     44 NZ         23.0680   23.5780   49.1750 N.4       7 LYP4        0.0000 
     45 N          22.8745   21.5560   48.1400 N.am      2 SEC2        0.0000 
     46 N          23.6410   20.3170   47.5910 N.am     10 SEL2        0.0000 
     47 N          22.1080   22.7950   48.6890 N.am      6 SEP2        0.0000 
     48 N          23.9860   21.7810   48.2765 N.am      2 SEC2        0.0000 
     49 N          24.3310   23.2450   48.9620 N.am      6 SEP2        0.0000 
     50 N          20.3650   19.8920   46.8275 N.am      2 SEC2        0.0000 
     51 N          21.5410   20.2120   46.2860 N.am     10 SEL2        0.0000 
     52 N          19.1890   19.5720   47.3690 N.am      6 SEP2        0.0000 
     53 CA         26.6885   15.6735   51.8173 C.3       4 GLC5        0.0000 
     54 CA         28.4160   15.6620   51.6540 C.3       8 GLP5        0.0000 
     55 CA         26.7328   17.9868   52.1003 C.3       4 GLC5        0.0000 
     56 CA         28.5410   16.9930   52.0580 C.3       8 GLP5        0.0000 
     57 CA         21.2975   20.8077   50.5340 C.3       4 GLC5        0.0000 
     58 CA         20.0840   22.3030   50.0260 C.3       8 GLP5        0.0000 
@<TRIPOS>BOND
@<TRIPOS>SUBSTRUCTURE
     1 ALC1        1 GROUP        1 X    ALC  0     ROOT ALC X 1
     2 SEC2       12 GROUP        1 X    SEC  0     **** SEC X 2
     3 LYC4       35 GROUP        1 X    LYC  0     **** LYC X 4
     4 GLC5        4 GROUP        1 X    GLC  0     **** GLC X 6
     5 ALP1        3 GROUP        1 Y    ALP  0     ROOT ALP Y 8
     6 SEP2       14 GROUP        1 Y    SEP  0     **** SEP Y 9
     7 LYP4       37 GROUP        1 Y    LYP  0     **** LYP Y 11
     8 GLP5        6 GROUP        1 Y    GLP  0     **** GLP Y 13
     9 ALL1        2 GROUP        1 Z    ALL  0     ROOT ALL Z 15
    10 SEL2       13 GROUP        1 Z    SEL  0     **** SEL Z 16
    11 LYL4       36 GROUP        1 Z    LYL  0     **** LYL Z 18
    12 GLL5        5 GROUP        1 Z    GLL  0     **** GLL Z 20
@<TRIPOS>SET

