#    Name: 1i3l_GDU_1_ligand
#    Modification time : Tue Mar 25 06:37:58 2014

@<TRIPOS>MOLECULE
1i3l_GDU_1_ligand
   58    60     1     0     0
SMALL
NO_CHARGES


@<TRIPOS>ATOM
      1 N1         25.1020   17.2370   52.9240 N.am      1 GDU401      0.0000 
      2 C2         25.8280   16.8720   54.0540 C.2       1 GDU401      0.0000 
      3 N3         26.1850   15.5600   54.0760 N.am      1 GDU401      0.0000 
      4 C4         25.8770   14.5830   53.1360 C.2       1 GDU401      0.0000 
      5 C5         25.1480   15.0570   52.0190 C.2       1 GDU401      0.0000 
      6 C6         24.7740   16.3130   51.9420 C.2       1 GDU401      0.0000 
      7 O2         26.1450   17.6010   54.9860 O.2       1 GDU401      0.0000 
      8 O4         26.2530   13.4530   53.3450 O.2       1 GDU401      0.0000 
      9 C1D        24.6360   18.6170   52.7450 C.3       1 GDU401      0.0000 
     10 C2D        25.2130   19.3440   51.5400 C.3       1 GDU401      0.0000 
     11 O2D        26.4410   20.0080   51.9240 O.3       1 GDU401      0.0000 
     12 C3D        24.1170   20.3920   51.2450 C.3       1 GDU401      0.0000 
     13 C4D        22.8640   19.6350   51.6300 C.3       1 GDU401      0.0000 
     14 O4D        23.2650   18.5990   52.5820 O.3       1 GDU401      0.0000 
     15 O3D        24.2230   21.5770   52.0450 O.3       1 GDU401      0.0000 
     16 C5D        22.1580   18.9900   50.4540 C.3       1 GDU401      0.0000 
     17 O5D        23.1750   18.2630   49.7350 O.3       1 GDU401      0.0000 
     18 PA         22.7210   17.2140   48.6110 P.3       1 GDU401      0.0000 
     19 O1A        21.6140   16.3400   49.0340 O.co2     1 GDU401      0.0000 
     20 O2A        23.9370   16.5400   48.1250 O.co2     1 GDU401      0.0000 
     21 O3A        22.1420   18.2420   47.4330 O.3       1 GDU401      0.0000 
     22 PB         22.7670   19.4900   46.6990 P.3       1 GDU401      0.0000 
     23 O1B        23.6410   20.3170   47.5910 O.co2     1 GDU401      0.0000 
     24 O2B        21.5410   20.2120   46.2860 O.co2     1 GDU401      0.0000 
     25 O3B        23.6350   19.1480   45.3790 O.3       1 GDU401      0.0000 
     26 C1'        25.0030   19.0860   45.6240 C.3       1 GDU401      0.0000 
     27 C2'        25.7780   19.6340   44.4330 C.3       1 GDU401      0.0000 
     28 C3'        25.5800   18.7990   43.1760 C.3       1 GDU401      0.0000 
     29 C4'        25.6360   17.3200   43.5060 C.3       1 GDU401      0.0000 
     30 C5'        24.6460   17.0720   44.6110 C.3       1 GDU401      0.0000 
     31 C6'        24.4680   15.6170   44.9640 C.3       1 GDU401      0.0000 
     32 O2'        25.4640   21.0030   44.1510 O.3       1 GDU401      0.0000 
     33 O3'        26.6730   19.0350   42.2930 O.3       1 GDU401      0.0000 
     34 O4'        26.9280   16.9870   44.0100 O.3       1 GDU401      0.0000 
     35 O5'        25.2360   17.6920   45.7500 O.3       1 GDU401      0.0000 
     36 O6'        25.0280   15.4030   46.2440 O.3       1 GDU401      0.0000 
     37 H          26.7799   15.2254   54.9213 H         1 GDU401      0.0000 
     38 H          24.9271   14.3632   51.2705 H         1 GDU401      0.0000 
     39 H          24.2071   16.6617   51.1232 H         1 GDU401      0.0000 
     40 H          24.8963   19.2049   53.6326 H         1 GDU401      0.0000 
     41 H          25.2935   18.6974   50.7418 H         1 GDU401      0.0000 
     42 H          24.0927   20.5636   50.2060 H         1 GDU401      0.0000 
     43 H          22.1842   20.3198   52.1202 H         1 GDU401      0.0000 
     44 H          21.7193   19.7673   49.8463 H         1 GDU401      0.0000 
     45 H          21.3897   18.3318   50.8315 H         1 GDU401      0.0000 
     46 H          25.2802   19.6035   46.4999 H         1 GDU401      0.0000 
     47 H          26.8599   19.5585   44.6876 H         1 GDU401      0.0000 
     48 H          24.6531   19.0260   42.7299 H         1 GDU401      0.0000 
     49 H          25.3675   16.7555   42.6593 H         1 GDU401      0.0000 
     50 H          23.7188   17.5183   44.3794 H         1 GDU401      0.0000 
     51 H          24.9623   15.0168   44.1952 H         1 GDU401      0.0000 
     52 H          23.3988   15.3891   44.9414 H         1 GDU401      0.0000 
     53 H          26.9242   20.1754   51.0646 H         1 GDU401      0.0000 
     54 H          25.0791   21.4718   52.5511 H         1 GDU401      0.0000 
     55 H          25.5945   21.4824   45.0188 H         1 GDU401      0.0000 
     56 H          27.3135   18.2874   42.4687 H         1 GDU401      0.0000 
     57 H          26.9621   17.3935   44.9229 H         1 GDU401      0.0000 
     58 H          24.2594   15.4806   46.8790 H         1 GDU401      0.0000 
@<TRIPOS>BOND
     1    2    1 1    
     2    6    1 1    
     3    9    1 1    
     4    3    2 1    
     5    7    2 2    
     6    4    3 1    
     7   37    3 1    
     8    5    4 1    
     9    8    4 2    
    10    6    5 2    
    11   38    5 1    
    12   39    6 1    
    13   10    9 1    
    14   14    9 1    
    15   40    9 1    
    16   11   10 1    
    17   12   10 1    
    18   41   10 1    
    19   53   11 1    
    20   13   12 1    
    21   15   12 1    
    22   42   12 1    
    23   14   13 1    
    24   16   13 1    
    25   43   13 1    
    26   54   15 1    
    27   17   16 1    
    28   44   16 1    
    29   45   16 1    
    30   18   17 1    
    31   19   18 ar   
    32   20   18 ar   
    33   21   18 1    
    34   22   21 1    
    35   23   22 ar   
    36   24   22 ar   
    37   25   22 1    
    38   26   25 1    
    39   27   26 1    
    40   35   26 1    
    41   46   26 1    
    42   28   27 1    
    43   32   27 1    
    44   47   27 1    
    45   29   28 1    
    46   33   28 1    
    47   48   28 1    
    48   30   29 1    
    49   34   29 1    
    50   49   29 1    
    51   31   30 1    
    52   35   30 1    
    53   50   30 1    
    54   36   31 1    
    55   51   31 1    
    56   52   31 1    
    57   55   32 1    
    58   56   33 1    
    59   57   34 1    
    60   58   36 1    
@<TRIPOS>SUBSTRUCTURE
     1 GDU401      1 GROUP   
@<TRIPOS>SET

