#    Name: 1WOP_1_CAVITY_N1_6.mol2
#    Modification time : Mon Mar 10 16:39:22 2014

@<TRIPOS>MOLECULE
1WOP_1_CAVITY_N1_6.mol2
  136     0     6     0     0
SMALL
NO_CHARGES


@<TRIPOS>ATOM
      1 O          -6.9059   33.8709   13.2695 O.2       2 ALA2        0.0000 
      2 CZ         -4.4296   36.4505   16.7284 C.ar      4 PHE5        0.0000 
      3 O          -5.2478   36.4228   17.9853 O.2       2 ALA2        0.0000 
      4 CZ         -4.3772   35.2999   14.9470 C.ar      4 PHE5        0.0000 
      5 DU         -5.1954   35.2721   16.2039 H         6 CUB7        0.0000 
      6 O          -5.1430   34.1215   14.4225 O.2       2 ALA2        0.0000 
      7 CZ         -5.9612   34.0938   15.6794 C.ar      4 PHE5        0.0000 
      8 O          -5.0906   32.9709   12.6412 O.2       2 ALA2        0.0000 
      9 CZ         -5.9088   32.9431   13.8981 C.ar      4 PHE5        0.0000 
     10 OG         -3.4326   35.5228   17.3569 O.2       1 SER1        0.0000 
     11 OG         -3.3802   34.3721   15.5756 O.2       1 SER1        0.0000 
     12 OG         -4.1983   34.3444   16.8325 O.2       1 SER1        0.0000 
     13 O          -5.0165   34.3167   18.0894 O.2       2 ALA2        0.0000 
     14 O          -5.8347   34.2890   19.3463 O.2       2 ALA2        0.0000 
     15 CZ         -3.3278   33.2215   13.7942 C.ar      4 PHE5        0.0000 
     16 CZ         -4.1459   33.1938   15.0511 C.ar      4 PHE5        0.0000 
     17 CZ         -4.9641   33.1660   16.3080 C.ar      4 PHE5        0.0000 
     18 CZ         -5.7823   33.1383   17.5649 C.ar      4 PHE5        0.0000 
     19 CA         -4.0935   32.0431   13.2697 C.3       5 GLY6        0.0000 
     20 OG         -2.4355   34.5950   17.9855 O.2       1 SER1        0.0000 
     21 O          -3.2536   34.5673   19.2424 O.2       2 ALA2        0.0000 
     22 O          -4.0718   34.5396   20.4993 O.2       2 ALA2        0.0000 
     23 OG         -2.3831   33.4444   16.2042 O.2       1 SER1        0.0000 
     24 OG         -3.2012   33.4167   17.4611 O.2       1 SER1        0.0000 
     25 CZ         -4.0194   33.3889   18.7180 C.ar      4 PHE5        0.0000 
     26 O          -4.8376   33.3612   19.9749 O.2       2 ALA2        0.0000 
     27 DU         -5.6558   33.3335   21.2318 H         6 CUB7        0.0000 
     28 CZ         -3.1488   32.2660   15.6797 C.ar      4 PHE5        0.0000 
     29 CZ         -3.9670   32.2383   16.9366 C.ar      4 PHE5        0.0000 
     30 CZ         -4.7852   32.2106   18.1935 C.ar      4 PHE5        0.0000 
     31 CZ         -5.6034   32.1829   19.4504 C.ar      4 PHE5        0.0000 
     32 DU         -6.4216   32.1551   20.7073 H         6 CUB7        0.0000 
     33 DU         -7.2397   32.1274   21.9642 H         6 CUB7        0.0000 
     34 OG         -3.0965   31.1154   13.8983 O.2       1 SER1        0.0000 
     35 CZ         -3.9146   31.0877   15.1552 C.ar      4 PHE5        0.0000 
     36 CZ         -6.3692   31.0045   18.9260 C.ar      4 PHE5        0.0000 
     37 O          -7.1873   30.9768   20.1829 O.2       2 ALA2        0.0000 
     38 O          -8.0055   30.9491   21.4398 O.2       2 ALA2        0.0000 
     39 OG         -0.5678   32.5443   15.5758 O.2       1 SER1        0.0000 
     40 OG         -1.3860   32.5166   16.8327 O.2       1 SER1        0.0000 
     41 CZ         -2.2042   32.4889   18.0897 C.ar      4 PHE5        0.0000 
     42 CZ         -3.0223   32.4612   19.3466 C.ar      4 PHE5        0.0000 
     43 CZ         -3.8405   32.4335   20.6035 C.ar      4 PHE5        0.0000 
     44 DU         -4.6587   32.4058   21.8604 H         6 CUB7        0.0000 
     45 CA         -5.4769   32.3780   23.1173 C.3       5 GLY6        0.0000 
     46 OG         -1.3336   31.3660   15.0514 O.2       1 SER1        0.0000 
     47 OG         -2.1518   31.3383   16.3083 O.2       1 SER1        0.0000 
     48 CZ         -2.9699   31.3106   17.5652 C.ar      4 PHE5        0.0000 
     49 CZ         -3.7881   31.2828   18.8221 C.ar      4 PHE5        0.0000 
     50 DU         -4.6063   31.2551   20.0790 H         6 CUB7        0.0000 
     51 DU         -5.4245   31.2274   21.3359 H         6 CUB7        0.0000 
     52 DU         -6.2426   31.1997   22.5928 H         6 CUB7        0.0000 
     53 CZ         -2.9175   30.1599   15.7838 C.ar      4 PHE5        0.0000 
     54 CZ         -3.7357   30.1322   17.0407 C.ar      4 PHE5        0.0000 
     55 CZ         -4.5539   30.1045   18.2976 C.ar      4 PHE5        0.0000 
     56 CZ         -5.3721   30.0768   19.5545 C.ar      4 PHE5        0.0000 
     57 O          -6.1902   30.0490   20.8115 O.2       2 ALA2        0.0000 
     58 DU         -7.0084   30.0213   22.0684 H         6 CUB7        0.0000 
     59 O          -6.9560   28.8707   20.2870 O.2       2 ALA2        0.0000 
     60 N          -7.7742   28.8430   21.5439 N.2       2 ALA2        0.0000 
     61 N           0.4293   31.6166   16.2044 N.2       2 ALA2        0.0000 
     62 N          -3.6616   31.4780   22.4890 N.2       2 ALA2        0.0000 
     63 OG         -0.3365   30.4382   15.6800 O.2       1 SER1        0.0000 
     64 CZ         -1.1547   30.4105   16.9369 C.ar      4 PHE5        0.0000 
     65 CZ         -1.9729   30.3828   18.1938 C.ar      4 PHE5        0.0000 
     66 CZ         -3.6092   30.3274   20.7076 C.ar      4 PHE5        0.0000 
     67 N          -4.4274   30.2997   21.9645 N.2       2 ALA2        0.0000 
     68 N          -5.2456   30.2719   23.2214 N.2       2 ALA2        0.0000 
     69 OG         -1.1023   29.2599   15.1555 O.2       1 SER1        0.0000 
     70 CZ         -1.9205   29.2322   16.4124 C.ar      4 PHE5        0.0000 
     71 CZ         -2.7386   29.2045   17.6693 C.ar      4 PHE5        0.0000 
     72 CZ         -3.5568   29.1767   18.9262 C.ar      4 PHE5        0.0000 
     73 N          -4.3750   29.1490   20.1831 N.2       2 ALA2        0.0000 
     74 N          -5.1932   29.1213   21.4400 N.2       2 ALA2        0.0000 
     75 N          -6.0113   29.0936   22.6970 N.2       2 ALA2        0.0000 
     76 CZ         -4.3226   27.9984   18.4018 C.ar      4 PHE5        0.0000 
     77 CA         -5.1408   27.9707   19.6587 C.3       5 GLY6        0.0000 
     78 CA         -5.9589   27.9429   20.9156 C.3       5 GLY6        0.0000 
     79 N          -6.7771   27.9152   22.1725 N.2       2 ALA2        0.0000 
     80 N           3.1151   29.5936   12.5378 N.2       2 ALA2        0.0000 
     81 N           2.2969   29.5659   13.7947 N.2       2 ALA2        0.0000 
     82 N           1.4787   29.5382   15.0516 N.2       2 ALA2        0.0000 
     83 N           0.6606   29.5105   16.3085 N.2       2 ALA2        0.0000 
     84 CZ         -0.1576   29.4828   17.5655 C.ar      4 PHE5        0.0000 
     85 CA          1.5311   28.3876   13.2703 C.3       5 GLY6        0.0000 
     86 OG          0.7130   28.3599   14.5272 O.2       1 SER1        0.0000 
     87 CZ         -0.1052   28.3321   15.7841 C.ar      4 PHE5        0.0000 
     88 CZ         -0.9234   28.3044   17.0410 C.ar      4 PHE5        0.0000 
     89 CA         -1.7416   28.2767   18.2979 C.3       5 GLY6        0.0000 
     90 CA         -2.5597   28.2490   19.5548 C.3       5 GLY6        0.0000 
     91 N          -3.3779   28.2213   20.8117 N.2       2 ALA2        0.0000 
     92 CZ         -0.0528   27.1815   14.0027 C.ar      4 PHE5        0.0000 
     93 OG         -2.5073   27.0984   17.7734 O.2       1 SER1        0.0000 
     94 OG         -3.3255   27.0706   19.0304 O.2       1 SER1        0.0000 
     95 CA         -4.1437   27.0429   20.2873 C.3       5 GLY6        0.0000 
     96 CA         -4.9619   27.0152   21.5442 C.3       5 GLY6        0.0000 
     97 NZ          4.1122   28.6659   13.1664 N.2       3 LYS4        0.0000 
     98 N           3.2940   28.6382   14.4233 N.2       2 ALA2        0.0000 
     99 CZ          2.4758   28.6105   15.6802 C.ar      4 PHE5        0.0000 
    100 NZ          4.1646   27.5153   11.3850 N.2       3 LYS4        0.0000 
    101 CA          3.3464   27.4875   12.6419 C.3       5 GLY6        0.0000 
    102 CA          2.5282   27.4598   13.8989 C.3       5 GLY6        0.0000 
    103 CZ          1.7101   27.4321   15.1558 C.ar      4 PHE5        0.0000 
    104 CZ          0.8919   27.4044   16.4127 C.ar      4 PHE5        0.0000 
    105 CA          0.0737   27.3767   17.6696 C.3       5 GLY6        0.0000 
    106 CA          3.3988   26.3369   10.8606 C.3       5 GLY6        0.0000 
    107 CA          2.5806   26.3092   12.1175 C.3       5 GLY6        0.0000 
    108 CA          1.7625   26.2815   13.3744 C.3       5 GLY6        0.0000 
    109 CZ          0.9443   26.2538   14.6313 C.ar      4 PHE5        0.0000 
    110 CZ          0.1261   26.2260   15.8882 C.ar      4 PHE5        0.0000 
    111 OG         -0.6921   26.1983   17.1451 O.2       1 SER1        0.0000 
    112 CA          1.8148   25.1308   11.5930 C.3       5 GLY6        0.0000 
    113 CA          0.9967   25.1031   12.8499 C.3       5 GLY6        0.0000 
    114 CZ          0.1785   25.0754   14.1068 C.ar      4 PHE5        0.0000 
    115 NZ          5.1093   27.7382   13.7950 N.2       3 LYS4        0.0000 
    116 CA          5.1617   26.5875   12.0136 C.3       5 GLY6        0.0000 
    117 CA          4.3435   26.5598   13.2705 C.3       5 GLY6        0.0000 
    118 CZ          3.5253   26.5321   14.5274 C.ar      4 PHE5        0.0000 
    119 CZ          2.7071   26.5044   15.7843 C.ar      4 PHE5        0.0000 
    120 CA          4.3959   25.4092   11.4892 C.3       5 GLY6        0.0000 
    121 CA          3.5777   25.3814   12.7461 C.3       5 GLY6        0.0000 
    122 DU          2.7595   25.3537   14.0030 H         6 CUB7        0.0000 
    123 CZ          1.9414   25.3260   15.2599 C.ar      4 PHE5        0.0000 
    124 NZ          1.1232   25.2983   16.5168 N.2       3 LYS4        0.0000 
    125 N           3.6301   24.2308   10.9647 N.2       2 ALA2        0.0000 
    126 N           2.8119   24.2031   12.2216 N.2       2 ALA2        0.0000 
    127 NZ          1.9938   24.1754   13.4785 N.2       3 LYS4        0.0000 
    128 NZ          1.1756   24.1477   14.7354 N.2       3 LYS4        0.0000 
    129 CA          5.3406   25.6321   13.8991 C.3       5 GLY6        0.0000 
    130 O           4.5224   25.6043   15.1560 O.2       2 ALA2        0.0000 
    131 N           3.7566   24.4260   14.6316 N.2       2 ALA2        0.0000 
    132 CZ          2.9384   24.3983   15.8885 C.ar      4 PHE5        0.0000 
    133 CA          3.8090   23.2753   12.8502 C.3       5 GLY6        0.0000 
    134 N           2.9908   23.2476   14.1071 N.2       2 ALA2        0.0000 
    135 NZ          2.1727   23.2199   15.3640 N.2       3 LYS4        0.0000 
    136 N           3.9355   23.4705   16.5171 N.2       2 ALA2        0.0000 
@<TRIPOS>BOND
@<TRIPOS>SUBSTRUCTURE
     1 SER1       10 GROUP   
     2 ALA2        1 GROUP   
     3 LYS4       97 GROUP   
     4 PHE5        2 GROUP   
     5 GLY6       19 GROUP   
     6 CUB7        5 GROUP   
@<TRIPOS>SET

