#    Name: 1wop_FFO_1_INTS_M
#    Modification time : Tue Mar 25 09:13:19 2014

@<TRIPOS>MOLECULE
1wop_FFO_1_INTS_M
   52     0    12     0     0
SMALL
NO_CHARGES


@<TRIPOS>ATOM
      1 O           5.0575   29.3505    9.8655 O.2       1 ALC1        0.0000 
      2 O           4.4310   28.1560    9.5480 O.2       9 ALL1        0.0000 
      3 O           5.6840   30.5450   10.1830 O.2       5 ALP1        0.0000 
      4 N           5.9505   28.7155   11.7750 N.am      2 SEC2        0.0000 
      5 N           4.8970   27.8340   11.9020 N.am     10 SEL2        0.0000 
      6 N           7.0040   29.5970   11.6480 N.am      6 SEP2        0.0000 
      7 N           6.5415   26.6720   14.8755 N.am      2 SEC2        0.0000 
      8 N           5.3120   27.4760   14.1440 N.am     10 SEL2        0.0000 
      9 N           7.7710   25.8680   15.6070 N.am      6 SEP2        0.0000 
     10 CA          4.5900   23.6060   13.2860 C.3       4 GLC5        0.0000 
     11 CA          2.6540   23.8030   14.0620 C.3      12 GLL5        0.0000 
     12 CA          6.5260   23.4090   12.5100 C.3       8 GLP5        0.0000 
     13 CA          2.0290   26.5795   11.1275 C.3       4 GLC5        0.0000 
     14 CA          3.4730   25.4260   11.6840 C.3      12 GLL5        0.0000 
     15 CA          0.5850   27.7330   10.5710 C.3       8 GLP5        0.0000 
     16 CA          4.4285   25.0965   10.0070 C.3       4 GLC5        0.0000 
     17 CA          5.3840   24.7670    8.3300 C.3       8 GLP5        0.0000 
     18 CA         -0.5315   25.2060   14.4010 C.3       4 GLC5        0.0000 
     19 CA          1.3050   24.4850   14.3540 C.3      12 GLL5        0.0000 
     20 CA         -2.3680   25.9270   14.4480 C.3       8 GLP5        0.0000 
     21 CA         -0.5555   23.2555   14.5585 C.3       4 GLC5        0.0000 
     22 CA         -2.4160   22.0260   14.7630 C.3       8 GLP5        0.0000 
     23 CA          0.2615   23.8940   12.5190 C.3       4 GLC5        0.0000 
     24 CA         -0.7820   23.3030   10.6840 C.3       8 GLP5        0.0000 
     25 CA          0.9210   27.5590   12.7080 C.3       4 GLC5        0.0000 
     26 CA          1.2570   27.3850   14.8450 C.3      12 GLL5        0.0000 
     27 N          -0.2870   31.1415   14.0805 N.am      2 SEC2        0.0000 
     28 N           0.0540   31.4260   15.4560 N.am     10 SEL2        0.0000 
     29 N          -0.6280   30.8570   12.7050 N.am      6 SEP2        0.0000 
     30 CA         -1.4570   32.0335   18.3355 C.3       4 GLC5        0.0000 
     31 CA         -2.3320   32.1150   16.6940 C.3      12 GLL5        0.0000 
     32 CA         -0.5820   31.9520   19.9770 C.3       8 GLP5        0.0000 
     33 CA         -3.4040   30.5450   13.8930 C.3       4 GLC5        0.0000 
     34 CA         -3.0750   32.2190   15.3550 C.3      12 GLL5        0.0000 
     35 CA         -3.7330   28.8710   12.4310 C.3       8 GLP5        0.0000 
     36 CA         -2.8335   35.1665   14.5985 C.3       4 GLC5        0.0000 
     37 CA         -3.7530   33.5580   15.1330 C.3      12 GLL5        0.0000 
     38 CA         -1.9140   36.7750   14.0640 C.3       8 GLP5        0.0000 
     39 NZ         -5.2785   35.0565   12.4485 N.4       3 LYC4        0.0000 
     40 NZ         -5.0780   34.6970   13.5400 N.4      11 LYL4        0.0000 
     41 NZ         -5.4470   36.5320   10.6460 N.4       7 LYP4        0.0000 
     42 N          -5.2785   35.0565   12.4485 N.am      2 SEC2        0.0000 
     43 N          -5.0780   34.6970   13.5400 N.am     10 SEL2        0.0000 
     44 N          -5.4790   35.4160   11.3570 N.am      6 SEP2        0.0000 
     45 CA          5.1387   24.5027   12.4295 C.3       4 GLC5        0.0000 
     46 CA          0.1455   27.8962   18.6895 C.3       4 GLC5        0.0000 
     47 CA         -0.0800   26.7620   16.8280 C.3      12 GLL5        0.0000 
     48 CA          0.6050   28.3540   20.4930 C.3       8 GLP5        0.0000 
     49 CA         -2.1900   33.0457   13.7930 C.3       4 GLC5        0.0000 
     50 CA         -0.9660   33.2030   12.3420 C.3       8 GLP5        0.0000 
     51 CA         -5.0855   31.8068   15.2660 C.3       4 GLC5        0.0000 
     52 CA         -6.7570   30.7250   15.2880 C.3       8 GLP5        0.0000 
@<TRIPOS>BOND
@<TRIPOS>SUBSTRUCTURE
     1 ALC1        1 GROUP        1 X    ALC  0     ROOT ALC X 1
     2 SEC2        4 GROUP        1 X    SEC  0     **** SEC X 2
     3 LYC4       39 GROUP        1 X    LYC  0     **** LYC X 4
     4 GLC5       10 GROUP        1 X    GLC  0     **** GLC X 6
     5 ALP1        3 GROUP        1 Y    ALP  0     ROOT ALP Y 8
     6 SEP2        6 GROUP        1 Y    SEP  0     **** SEP Y 9
     7 LYP4       41 GROUP        1 Y    LYP  0     **** LYP Y 11
     8 GLP5       12 GROUP        1 Y    GLP  0     **** GLP Y 13
     9 ALL1        2 GROUP        1 Z    ALL  0     ROOT ALL Z 15
    10 SEL2        5 GROUP        1 Z    SEL  0     **** SEL Z 16
    11 LYL4       40 GROUP        1 Z    LYL  0     **** LYL Z 18
    12 GLL5       11 GROUP        1 Z    GLL  0     **** GLL Z 20
@<TRIPOS>SET

