#    Name: 1wop_FFO_1_ligand
#    Modification time : Tue Mar 25 09:13:19 2014

@<TRIPOS>MOLECULE
1wop_FFO_1_ligand
   53    55     1     0     0
SMALL
NO_CHARGES


@<TRIPOS>ATOM
      1 N1          3.6470   26.2540   10.6130 N.pl3     1 FFO2887     0.0000 
      2 C2          4.3320   27.4160   10.7100 C.2       1 FFO2887     0.0000 
      3 NA2         4.4310   28.1560    9.5480 N.pl3     1 FFO2887     0.0000 
      4 N3          4.8970   27.8340   11.9020 N.2       1 FFO2887     0.0000 
      5 C4          4.7910   27.0870   13.0570 C.2       1 FFO2887     0.0000 
      6 O4          5.3120   27.4760   14.1440 O.2       1 FFO2887     0.0000 
      7 C4A         4.0300   25.7670   13.0140 C.2       1 FFO2887     0.0000 
      8 N5          3.7770   24.7990   14.1020 N.am      1 FFO2887     0.0000 
      9 C6          2.6540   23.8030   14.0620 C.3       1 FFO2887     0.0000 
     10 C7          2.6020   23.2090   12.6230 C.2       1 FFO2887     0.0000 
     11 N8          2.7750   24.2430   11.5940 N.2       1 FFO2887     0.0000 
     12 C8A         3.4730   25.4260   11.6840 C.2       1 FFO2887     0.0000 
     13 C9          1.3050   24.4850   14.3540 C.3       1 FFO2887     0.0000 
     14 N10         1.2370   25.1130   15.6590 N.pl3     1 FFO2887     0.0000 
     15 C11        -0.1070   29.0790   16.0000 C.ar      1 FFO2887     0.0000 
     16 C12        -0.5480   28.1150   16.9440 C.ar      1 FFO2887     0.0000 
     17 C13        -0.0800   26.7620   16.8280 C.ar      1 FFO2887     0.0000 
     18 C14         0.8210   26.3960   15.7720 C.ar      1 FFO2887     0.0000 
     19 C15         1.2570   27.3850   14.8450 C.ar      1 FFO2887     0.0000 
     20 C16         0.7940   28.7030   14.9630 C.ar      1 FFO2887     0.0000 
     21 C          -0.5720   30.5210   16.0170 C.2       1 FFO2887     0.0000 
     22 O           0.0540   31.4260   15.4560 O.2       1 FFO2887     0.0000 
     23 N          -1.7430   30.7860   16.6420 N.am      1 FFO2887     0.0000 
     24 CA         -2.3320   32.1150   16.6940 C.3       1 FFO2887     0.0000 
     25 CB         -3.0750   32.2190   15.3550 C.3       1 FFO2887     0.0000 
     26 CG         -3.7530   33.5580   15.1330 C.3       1 FFO2887     0.0000 
     27 CD         -4.5080   33.6420   13.8080 C.2       1 FFO2887     0.0000 
     28 OE1        -5.0780   34.6970   13.5400 O.co2     1 FFO2887     0.0000 
     29 OE2        -4.5680   32.6250   12.9390 O.co2     1 FFO2887     0.0000 
     30 CT         -3.2680   32.1280   17.8820 C.2       1 FFO2887     0.0000 
     31 O1         -3.5970   33.1590   18.4490 O.co2     1 FFO2887     0.0000 
     32 O2         -3.7540   30.9710   18.3250 O.co2     1 FFO2887     0.0000 
     33 C5A         4.5530   24.8060   15.1380 C.2       1 FFO2887     0.0000 
     34 O5B         4.4820   24.0740   16.1280 O.2       1 FFO2887     0.0000 
     35 H           3.2336   25.9750    9.6862 H         1 FFO2887     0.0000 
     36 H           4.5384   29.1435    9.6630 H         1 FFO2887     0.0000 
     37 H           4.3866   27.6400    8.6926 H         1 FFO2887     0.0000 
     38 H           2.8180   23.0169   14.7444 H         1 FFO2887     0.0000 
     39 H           2.4744   22.3004   12.4800 H         1 FFO2887     0.0000 
     40 H           0.5134   23.7156   14.2425 H         1 FFO2887     0.0000 
     41 H           1.1266   25.2259   13.5476 H         1 FFO2887     0.0000 
     42 H           1.5132   24.5492   16.4699 H         1 FFO2887     0.0000 
     43 H          -1.1804   28.3686   17.6878 H         1 FFO2887     0.0000 
     44 H          -0.3878   26.0620   17.4956 H         1 FFO2887     0.0000 
     45 H           1.9041   27.1256   14.1011 H         1 FFO2887     0.0000 
     46 H           1.1054   29.4194   14.2924 H         1 FFO2887     0.0000 
     47 H          -2.2815   30.0280   17.1225 H         1 FFO2887     0.0000 
     48 H          -1.6034   32.8493   16.7608 H         1 FFO2887     0.0000 
     49 H          -3.8292   31.4167   15.3082 H         1 FFO2887     0.0000 
     50 H          -2.3571   32.0346   14.5394 H         1 FFO2887     0.0000 
     51 H          -2.9961   34.3569   15.1619 H         1 FFO2887     0.0000 
     52 H          -4.4584   33.7482   15.9565 H         1 FFO2887     0.0000 
     53 H           5.3701   25.5679   15.1097 H         1 FFO2887     0.0000 
@<TRIPOS>BOND
     1    2    1 1    
     2   12    1 1    
     3   35    1 1    
     4    3    2 1    
     5    4    2 2    
     6   36    3 1    
     7   37    3 1    
     8    5    4 1    
     9    6    5 2    
    10    7    5 1    
    11    8    7 1    
    12   12    7 2    
    13    9    8 1    
    14   33    8 am   
    15   10    9 1    
    16   13    9 1    
    17   38    9 1    
    18   11   10 2    
    19   39   10 1    
    20   12   11 1    
    21   14   13 1    
    22   40   13 1    
    23   41   13 1    
    24   18   14 1    
    25   42   14 1    
    26   16   15 ar   
    27   20   15 ar   
    28   21   15 1    
    29   17   16 ar   
    30   43   16 1    
    31   18   17 ar   
    32   44   17 1    
    33   19   18 ar   
    34   20   19 ar   
    35   45   19 1    
    36   46   20 1    
    37   22   21 2    
    38   23   21 am   
    39   24   23 1    
    40   47   23 1    
    41   25   24 1    
    42   30   24 1    
    43   48   24 1    
    44   26   25 1    
    45   49   25 1    
    46   50   25 1    
    47   27   26 1    
    48   51   26 1    
    49   52   26 1    
    50   28   27 ar   
    51   29   27 ar   
    52   31   30 ar   
    53   32   30 ar   
    54   34   33 2    
    55   53   33 1    
@<TRIPOS>SUBSTRUCTURE
     1 FFO2887     1 GROUP   
@<TRIPOS>SET

