#    Name: 4a1z_ADP_1_INTS_M
#    Modification time : Tue Mar 25 04:50:45 2014

@<TRIPOS>MOLECULE
4a1z_ADP_1_INTS_M
   50     0    15     0     0
SMALL
NO_CHARGES


@<TRIPOS>ATOM
      1 Zn         14.2065    3.9415   34.8075 Zn        4 ZIC7        0.0000 
      2 Zn         14.8680    4.6590   34.1250 Zn       14 ZIL7        0.0000 
      3 Zn         13.5450    3.2240   35.4900 Zn        9 ZIP7        0.0000 
      4 N          15.0265    5.7700   35.0930 N.am      2 SEC2        0.0000 
      5 N          14.8680    4.6590   34.1250 N.am     12 SEL2        0.0000 
      6 N          15.1850    6.8810   36.0610 N.am      7 SEP2        0.0000 
      7 NZ         12.0375    5.5810   32.6815 N.4       3 LYC4        0.0000 
      8 NZ         13.4900    5.9620   32.4960 N.4      13 LYL4        0.0000 
      9 NZ         10.5850    5.2000   32.8670 N.4       8 LYP4        0.0000 
     10 N          13.8395    7.0985   33.1130 N.am      2 SEC2        0.0000 
     11 N          13.4900    5.9620   32.4960 N.am     12 SEL2        0.0000 
     12 N          14.1890    8.2350   33.7300 N.am      7 SEP2        0.0000 
     13 N          12.0375    5.5810   32.6815 N.am      2 SEC2        0.0000 
     14 N          10.5850    5.2000   32.8670 N.am      7 SEP2        0.0000 
     15 NZ         12.3015    4.3600   32.4380 N.4       3 LYC4        0.0000 
     16 NZ         14.0180    3.5200   32.0090 N.4      13 LYL4        0.0000 
     17 N          13.8425    3.6720   30.7390 N.am      2 SEC2        0.0000 
     18 N          14.0180    3.5200   32.0090 N.am     12 SEL2        0.0000 
     19 N          13.6670    3.8240   29.4690 N.am      7 SEP2        0.0000 
     20 N          17.5225    6.8850   34.8145 N.am      2 SEC2        0.0000 
     21 N          17.2670    6.1440   33.7230 N.am     12 SEL2        0.0000 
     22 N          17.7780    7.6260   35.9060 N.am      7 SEP2        0.0000 
     23 N          15.5990    6.6125   31.4600 N.am      2 SEC2        0.0000 
     24 N          15.7960    5.2730   31.9400 N.am     12 SEL2        0.0000 
     25 N          15.4020    7.9520   30.9800 N.am      7 SEP2        0.0000 
     26 CA         16.7805    4.3975   29.6100 C.3       5 GLC5        0.0000 
     27 CA         18.6650    4.6450   30.4390 C.3      15 GLL5        0.0000 
     28 CA         14.8960    4.1500   28.7810 C.3      10 GLP5        0.0000 
     29 CA         22.4315    3.9735   31.8705 C.3       5 GLC5        0.0000 
     30 CA         21.0410    4.9760   31.1130 C.3      15 GLL5        0.0000 
     31 CA         23.8220    2.9710   32.6280 C.3      10 GLP5        0.0000 
     32 N          23.4345    4.1965   31.1635 N.am      2 SEC2        0.0000 
     33 N          22.2390    4.4720   30.5250 N.am     12 SEL2        0.0000 
     34 N          24.6300    3.9210   31.8020 N.am      7 SEP2        0.0000 
     35 CA         21.4850    7.7770   32.7960 C.3       5 GLC5        0.0000 
     36 CA         21.2140    6.4490   31.4430 C.3      15 GLL5        0.0000 
     37 CA         21.7560    9.1050   34.1490 C.3      10 GLP5        0.0000 
     38 O          22.8700    6.2795   33.3265 O.2       1 ALC1        0.0000 
     39 O          22.4720    6.7250   32.0840 O.2      11 ALL1        0.0000 
     40 O          23.2680    5.8340   34.5690 O.2       6 ALP1        0.0000 
     41 CA         19.6525    9.6555   32.3515 C.3       5 GLC5        0.0000 
     42 CA         20.0290   10.6120   30.4120 C.3      15 GLL5        0.0000 
     43 CA         19.2760    8.6990   34.2910 C.3      10 GLP5        0.0000 
     44 CA         21.6880   12.0180   28.4245 C.3       5 GLC5        0.0000 
     45 CA         22.6200   11.3350   30.0440 C.3      15 GLL5        0.0000 
     46 CA         20.7560   12.7010   26.8050 C.3      10 GLP5        0.0000 
     47 CA         19.0433   11.3828   28.9727 C.3       5 GLC5        0.0000 
     48 CA         20.4180   12.0350   30.4290 C.3      15 GLL5        0.0000 
     49 CA         17.8630   11.4420   27.5250 C.3      10 GLP5        0.0000 
     50 CA         20.4898   12.0123   28.6127 C.3       5 GLC5        0.0000 
@<TRIPOS>BOND
@<TRIPOS>SUBSTRUCTURE
     1 ALC1       38 GROUP        1 X    ALC  0     ROOT ALC X 1
     2 SEC2        4 GROUP        1 X    SEC  0     **** SEC X 2
     3 LYC4        7 GROUP        1 X    LYC  0     **** LYC X 4
     4 ZIC7        1 GROUP        1 X    ZIC  0     **** ZIC X 5
     5 GLC5       26 GROUP        1 X    GLC  0     **** GLC X 6
     6 ALP1       40 GROUP        1 Y    ALP  0     ROOT ALP Y 8
     7 SEP2        6 GROUP        1 Y    SEP  0     **** SEP Y 9
     8 LYP4        9 GROUP        1 Y    LYP  0     **** LYP Y 11
     9 ZIP7        3 GROUP        1 Y    ZIP  0     **** ZIP Y 12
    10 GLP5       28 GROUP        1 Y    GLP  0     **** GLP Y 13
    11 ALL1       39 GROUP        1 Z    ALL  0     ROOT ALL Z 15
    12 SEL2        5 GROUP        1 Z    SEL  0     **** SEL Z 16
    13 LYL4        8 GROUP        1 Z    LYL  0     **** LYL Z 18
    14 ZIL7        2 GROUP        1 Z    ZIL  0     **** ZIL Z 19
    15 GLL5       27 GROUP        1 Z    GLL  0     **** GLL Z 20
@<TRIPOS>SET

