#    Name: 4a1z_ADP_1_ligand
#    Modification time : Tue Mar 25 04:50:45 2014

@<TRIPOS>MOLECULE
4a1z_ADP_1_ligand
   39    41     1     0     0
SMALL
NO_CHARGES


@<TRIPOS>ATOM
      1 PB         14.4310    4.8150   32.6820 P.3       1 ADP2601     0.0000 
      2 O1B        14.8680    4.6590   34.1250 O.co2     1 ADP2601     0.0000 
      3 O2B        13.4900    5.9620   32.4960 O.co2     1 ADP2601     0.0000 
      4 O3B        14.0180    3.5200   32.0090 O.co2     1 ADP2601     0.0000 
      5 PA         17.2510    5.0980   32.6310 P.3       1 ADP2601     0.0000 
      6 O1A        17.5020    3.6470   32.9450 O.co2     1 ADP2601     0.0000 
      7 O2A        17.2670    6.1440   33.7230 O.co2     1 ADP2601     0.0000 
      8 O3A        15.7960    5.2730   31.9400 O.3       1 ADP2601     0.0000 
      9 O5'        18.3140    5.5170   31.5050 O.3       1 ADP2601     0.0000 
     10 C5'        18.6650    4.6450   30.4390 C.3       1 ADP2601     0.0000 
     11 C4'        20.0700    4.9900   29.9650 C.3       1 ADP2601     0.0000 
     12 O4'        20.1570    6.3030   29.3910 O.3       1 ADP2601     0.0000 
     13 C3'        21.0410    4.9760   31.1130 C.3       1 ADP2601     0.0000 
     14 O3'        22.2390    4.4720   30.5250 O.3       1 ADP2601     0.0000 
     15 C2'        21.2140    6.4490   31.4430 C.3       1 ADP2601     0.0000 
     16 O2'        22.4720    6.7250   32.0840 O.3       1 ADP2601     0.0000 
     17 C1'        21.0880    7.1180   30.0830 C.3       1 ADP2601     0.0000 
     18 N9         20.4670    8.4230   30.2430 N.pl3     1 ADP2601     0.0000 
     19 C8         19.1590    8.6160   30.4640 C.2       1 ADP2601     0.0000 
     20 N7         18.8780    9.9440   30.5610 N.2       1 ADP2601     0.0000 
     21 C5         20.0290   10.6120   30.4120 C.ar      1 ADP2601     0.0000 
     22 C6         20.4180   12.0350   30.4290 C.ar      1 ADP2601     0.0000 
     23 N6         19.4850   12.9970   30.6340 N.pl3     1 ADP2601     0.0000 
     24 N1         21.7180   12.3240   30.2320 N.ar      1 ADP2601     0.0000 
     25 C2         22.6200   11.3350   30.0440 C.ar      1 ADP2601     0.0000 
     26 N3         22.3530   10.0070   30.0280 N.ar      1 ADP2601     0.0000 
     27 C4         21.0820    9.5950   30.2050 C.ar      1 ADP2601     0.0000 
     28 H          17.9882    4.7485   29.5861 H         1 ADP2601     0.0000 
     29 H          18.6640    3.5967   30.7508 H         1 ADP2601     0.0000 
     30 H          20.3932    4.2435   29.2504 H         1 ADP2601     0.0000 
     31 H          20.6752    4.4489   31.8919 H         1 ADP2601     0.0000 
     32 H          20.3672    6.7501   32.0315 H         1 ADP2601     0.0000 
     33 H          22.0109    7.1579   29.6207 H         1 ADP2601     0.0000 
     34 H          18.4884    7.9062   30.5462 H         1 ADP2601     0.0000 
     35 H          19.8233   13.9373   30.6707 H         1 ADP2601     0.0000 
     36 H          18.5411   12.6811   30.7303 H         1 ADP2601     0.0000 
     37 H          23.6500   11.6298   29.8923 H         1 ADP2601     0.0000 
     38 H          21.9436    3.7099   29.9488 H         1 ADP2601     0.0000 
     39 H          22.4402    6.2180   32.9454 H         1 ADP2601     0.0000 
@<TRIPOS>BOND
     1    2    1 ar   
     2    3    1 ar   
     3    4    1 ar   
     4    8    1 1    
     5    6    5 ar   
     6    7    5 ar   
     7    8    5 1    
     8    9    5 1    
     9   10    9 1    
    10   11   10 1    
    11   28   10 1    
    12   29   10 1    
    13   12   11 1    
    14   13   11 1    
    15   30   11 1    
    16   17   12 1    
    17   14   13 1    
    18   15   13 1    
    19   31   13 1    
    20   38   14 1    
    21   16   15 1    
    22   17   15 1    
    23   32   15 1    
    24   39   16 1    
    25   18   17 1    
    26   33   17 1    
    27   19   18 1    
    28   27   18 1    
    29   20   19 2    
    30   34   19 1    
    31   21   20 1    
    32   22   21 ar   
    33   27   21 ar   
    34   23   22 1    
    35   24   22 ar   
    36   35   23 1    
    37   36   23 1    
    38   25   24 ar   
    39   26   25 ar   
    40   37   25 1    
    41   27   26 ar   
@<TRIPOS>SUBSTRUCTURE
     1 ADP2601     1 GROUP   
@<TRIPOS>SET

