#    Name: 2pvn_P63_1_INTS_M
#    Modification time : Mon Mar 24 19:25:48 2014

@<TRIPOS>MOLECULE
2pvn_P63_1_INTS_M
   64     0     9     0     0
SMALL
NO_CHARGES


@<TRIPOS>ATOM
      1 N          19.0305   10.8380   20.4895 N.am      2 SEC2        0.0000 
      2 N          19.9640    9.4690   20.1230 N.am      8 SEL2        0.0000 
      3 N          18.0970   12.2070   20.8560 N.am      5 SEP2        0.0000 
      4 CA         19.6155    7.6110   18.5520 C.3       3 GLC5        0.0000 
      5 CA         21.2050    8.8890   18.3320 C.3       9 GLL5        0.0000 
      6 CA         18.0260    6.3330   18.7720 C.3       6 GLP5        0.0000 
      7 CA         20.0800    6.8815   19.9090 C.3       3 GLC5        0.0000 
      8 CA         21.5130    8.0160   19.4430 C.3       9 GLL5        0.0000 
      9 CA         18.6470    5.7470   20.3750 C.3       6 GLP5        0.0000 
     10 O          18.8835    9.2195   22.7235 O.2       1 ALC1        0.0000 
     11 O          20.0670    8.3110   22.6410 O.2       7 ALL1        0.0000 
     12 O          17.7000   10.1280   22.8060 O.2       4 ALP1        0.0000 
     13 CA         17.8510    9.8830   24.8060 C.3       3 GLC5        0.0000 
     14 CA         19.7570    8.9250   24.8880 C.3       9 GLL5        0.0000 
     15 CA         15.9450   10.8410   24.7240 C.3       6 GLP5        0.0000 
     16 CA         27.1670    2.3425   21.0075 C.3       3 GLC5        0.0000 
     17 CA         25.4490    2.7140   19.7580 C.3       9 GLL5        0.0000 
     18 CA         28.8850    1.9710   22.2570 C.3       6 GLP5        0.0000 
     19 CA         23.1390    9.7040   18.2565 C.3       3 GLC5        0.0000 
     20 CA         21.7240    8.8570   16.9970 C.3       9 GLL5        0.0000 
     21 CA         24.5540   10.5510   19.5160 C.3       6 GLP5        0.0000 
     22 CA         20.7680    9.6365   15.4660 C.3       3 GLC5        0.0000 
     23 CA         19.8120   10.4160   13.9350 C.3       6 GLP5        0.0000 
     24 CA         22.5555   10.4995   16.1980 C.3       3 GLC5        0.0000 
     25 CA         23.3870   12.1420   15.3990 C.3       6 GLP5        0.0000 
     26 CA         20.4115    7.9160   16.1680 C.3       3 GLC5        0.0000 
     27 CA         19.0990    6.9750   15.3390 C.3       6 GLP5        0.0000 
     28 O          25.2400    3.3795   15.7145 O.2       1 ALC1        0.0000 
     29 O          24.9960    4.4090   16.5910 O.2       7 ALL1        0.0000 
     30 O          25.4840    2.3500   14.8380 O.2       4 ALP1        0.0000 
     31 N          26.4565    5.3370   14.0945 N.am      2 SEC2        0.0000 
     32 N          25.2420    5.5670   14.6750 N.am      8 SEL2        0.0000 
     33 N          27.6710    5.1070   13.5140 N.am      5 SEP2        0.0000 
     34 CA         26.2310    6.3930   18.3470 C.3       3 GLC5        0.0000 
     35 CA         25.1380    6.8880   16.6530 C.3       9 GLL5        0.0000 
     36 CA         27.3240    5.8980   20.0410 C.3       6 GLP5        0.0000 
     37 CA         26.7135    6.9685   15.7675 C.3       3 GLC5        0.0000 
     38 CA         28.2890    7.0490   14.8820 C.3       6 GLP5        0.0000 
     39 CA         25.6275    8.3535   15.3755 C.3       3 GLC5        0.0000 
     40 CA         26.1170    9.8190   14.0980 C.3       6 GLP5        0.0000 
     41 CA         23.0995    5.9525   16.8295 C.3       3 GLC5        0.0000 
     42 CA         21.0610    5.0170   17.0060 C.3       6 GLP5        0.0000 
     43 CA         21.9565   10.0682   19.6597 C.3       3 GLC5        0.0000 
     44 CA         22.5540   11.6840   20.4320 C.3       6 GLP5        0.0000 
     45 CA         21.2100    6.7348   17.9468 C.3       3 GLC5        0.0000 
     46 CA         19.4500    6.5232   22.2677 C.3       3 GLC5        0.0000 
     47 CA         20.1080    7.9500   23.9510 C.3       9 GLL5        0.0000 
     48 CA         21.7160    8.2775   26.3929 C.3       3 GLC5        0.0000 
     49 CA         23.7590    8.5980   26.7110 C.3       6 GLP5        0.0000 
     50 CA         22.1400    7.1049   25.3574 C.3       3 GLC5        0.0000 
     51 CA         20.1950    6.2520   25.6930 C.3       9 GLL5        0.0000 
     52 CA         24.0560    7.4340   25.7880 C.3       6 GLP5        0.0000 
     53 CA         18.3781    7.0096   23.6759 C.3       3 GLC5        0.0000 
     54 CA         20.3980    6.6490   24.3700 C.3       9 GLL5        0.0000 
     55 CA         16.5910    6.4760   22.9570 C.3       6 GLP5        0.0000 
     56 CA         25.6893    5.3310   19.7470 C.3       3 GLC5        0.0000 
     57 CA         23.9520    4.5870   20.1190 C.3       9 GLL5        0.0000 
     58 CA         26.3248    4.7823   19.1142 C.3       3 GLC5        0.0000 
     59 CA         24.9930    4.2220   17.9350 C.3       9 GLL5        0.0000 
     60 CA         22.7924    4.7550   17.8500 C.3       3 GLC5        0.0000 
     61 CA         25.5745    3.4432   22.0973 C.3       3 GLC5        0.0000 
     62 CA         24.5930    3.4410   20.5850 C.3       9 GLL5        0.0000 
     63 CA         26.1280    3.8090   24.0230 C.3       6 GLP5        0.0000 
     64 CA         26.1725    4.4878   20.1063 C.3       3 GLC5        0.0000 
@<TRIPOS>BOND
@<TRIPOS>SUBSTRUCTURE
     1 ALC1       10 GROUP        1 X    ALC  0     ROOT ALC X 1
     2 SEC2        1 GROUP        1 X    SEC  0     **** SEC X 2
     3 GLC5        4 GROUP        1 X    GLC  0     **** GLC X 6
     4 ALP1       12 GROUP        1 Y    ALP  0     ROOT ALP Y 8
     5 SEP2        3 GROUP        1 Y    SEP  0     **** SEP Y 9
     6 GLP5        6 GROUP        1 Y    GLP  0     **** GLP Y 13
     7 ALL1       11 GROUP        1 Z    ALL  0     ROOT ALL Z 15
     8 SEL2        2 GROUP        1 Z    SEL  0     **** SEL Z 16
     9 GLL5        5 GROUP        1 Z    GLL  0     **** GLL Z 20
@<TRIPOS>SET

