#    Name: 2pvn_P63_1_ligand
#    Modification time : Mon Mar 24 19:25:48 2014

@<TRIPOS>MOLECULE
2pvn_P63_1_ligand
   45    48     1     0     0
SMALL
NO_CHARGES


@<TRIPOS>ATOM
      1 N01        19.9640    9.4690   20.1230 N.2       1 P63501      0.0000 
      2 C02        20.2290    9.7760   18.8260 C.2       1 P63501      0.0000 
      3 C03        21.2050    8.8890   18.3320 C.2       1 P63501      0.0000 
      4 C04        21.5130    8.0160   19.4430 C.2       1 P63501      0.0000 
      5 N05        20.7400    8.4130   20.4930 N.pl3     1 P63501      0.0000 
      6 N06        22.3460    6.9740   19.6120 N.2       1 P63501      0.0000 
      7 C07        22.3820    6.3670   20.7930 C.2       1 P63501      0.0000 
      8 N08        21.6300    6.7470   21.8220 N.2       1 P63501      0.0000 
      9 C09        20.8180    7.7860   21.6460 C.2       1 P63501      0.0000 
     10 N10        20.0670    8.3110   22.6410 N.pl3     1 P63501      0.0000 
     11 C11        20.1080    7.9500   23.9510 C.ar      1 P63501      0.0000 
     12 C12        19.7570    8.9250   24.8880 C.ar      1 P63501      0.0000 
     13 C13        19.5390    8.5230   26.2070 C.ar      1 P63501      0.0000 
     14 C14        19.6980    7.1900   26.6020 C.ar      1 P63501      0.0000 
     15 C15        20.1950    6.2520   25.6930 C.ar      1 P63501      0.0000 
     16 C16        20.3980    6.6490   24.3700 C.ar      1 P63501      0.0000 
     17 N17        23.2150    5.3100   21.0060 N.pl3     1 P63501      0.0000 
     18 C18        23.9520    4.5870   20.1190 C.ar      1 P63501      0.0000 
     19 C19        24.1570    4.9410   18.7870 C.ar      1 P63501      0.0000 
     20 C20        24.9930    4.2220   17.9350 C.ar      1 P63501      0.0000 
     21 C21        25.6580    3.1110   18.4400 C.ar      1 P63501      0.0000 
     22 C22        25.4490    2.7140   19.7580 C.ar      1 P63501      0.0000 
     23 C23        24.5930    3.4410   20.5850 C.ar      1 P63501      0.0000 
     24 C25        21.7240    8.8570   16.9970 C.1       1 P63501      0.0000 
     25 N26        22.1280    8.9010   15.9110 N.1       1 P63501      0.0000 
     26 N27        24.9960    4.4090   16.5910 N.am      1 P63501      0.0000 
     27 C28        25.1270    5.5610   15.8950 C.2       1 P63501      0.0000 
     28 O29        25.2420    5.5670   14.6750 O.2       1 P63501      0.0000 
     29 C30        25.1380    6.8880   16.6530 C.3       1 P63501      0.0000 
     30 H          19.8320   10.4758   18.3074 H         1 P63501      0.0000 
     31 H          19.3675    9.0913   22.3718 H         1 P63501      0.0000 
     32 H          19.6633    9.8971   24.6172 H         1 P63501      0.0000 
     33 H          19.2525    9.2276   26.9117 H         1 P63501      0.0000 
     34 H          19.4509    6.9038   27.5535 H         1 P63501      0.0000 
     35 H          20.4036    5.3030   25.9888 H         1 P63501      0.0000 
     36 H          20.7704    5.9670   23.6862 H         1 P63501      0.0000 
     37 H          23.3060    4.9907   22.0623 H         1 P63501      0.0000 
     38 H          23.6618    5.7831   18.4102 H         1 P63501      0.0000 
     39 H          26.3046    2.5815   17.8411 H         1 P63501      0.0000 
     40 H          25.9281    1.8799   20.1250 H         1 P63501      0.0000 
     41 H          24.4326    3.1252   21.5555 H         1 P63501      0.0000 
     42 H          24.8750    3.4963   15.9854 H         1 P63501      0.0000 
     43 H          25.8905    6.9342   17.3100 H         1 P63501      0.0000 
     44 H          25.2400    7.6677   16.0353 H         1 P63501      0.0000 
     45 H          24.2916    7.0295   17.1663 H         1 P63501      0.0000 
@<TRIPOS>BOND
     1    2    1 2    
     2    5    1 1    
     3    3    2 1    
     4   30    2 1    
     5    4    3 2    
     6   24    3 1    
     7    5    4 1    
     8    6    4 1    
     9    9    5 1    
    10    7    6 2    
    11    8    7 1    
    12   17    7 1    
    13    9    8 2    
    14   10    9 1    
    15   11   10 1    
    16   31   10 1    
    17   12   11 ar   
    18   16   11 ar   
    19   13   12 ar   
    20   32   12 1    
    21   14   13 ar   
    22   33   13 1    
    23   15   14 ar   
    24   34   14 1    
    25   16   15 ar   
    26   35   15 1    
    27   36   16 1    
    28   18   17 1    
    29   37   17 1    
    30   19   18 ar   
    31   23   18 ar   
    32   20   19 ar   
    33   38   19 1    
    34   21   20 ar   
    35   26   20 1    
    36   22   21 ar   
    37   39   21 1    
    38   23   22 ar   
    39   40   22 1    
    40   41   23 1    
    41   25   24 3    
    42   27   26 am   
    43   42   26 1    
    44   28   27 2    
    45   29   27 1    
    46   43   29 1    
    47   44   29 1    
    48   45   29 1    
@<TRIPOS>SUBSTRUCTURE
     1 P63501      1 GROUP   
@<TRIPOS>SET

