#    Name: 3cqu_CQU_1_INTS_M
#    Modification time : Mon Mar 24 22:12:14 2014

@<TRIPOS>MOLECULE
3cqu_CQU_1_INTS_M
   57     0     9     0     0
SMALL
NO_CHARGES


@<TRIPOS>ATOM
      1 CA          1.9010    1.2895   18.0900 C.3       3 GLC5        0.0000 
      2 CA          2.3590    2.4730   16.3870 C.3       9 GLL5        0.0000 
      3 CA          1.4430    0.1060   19.7930 C.3       6 GLP5        0.0000 
      4 CA          4.0685    7.0045   14.8985 C.3       3 GLC5        0.0000 
      5 CA          2.6400    6.5180   16.2000 C.3       9 GLL5        0.0000 
      6 CA          5.4970    7.4910   13.5970 C.3       6 GLP5        0.0000 
      7 CA          2.6070    5.2955   14.4275 C.3       3 GLC5        0.0000 
      8 CA          2.5740    4.0730   12.6550 C.3       6 GLP5        0.0000 
      9 CA          0.8375    6.7725   17.0105 C.3       3 GLC5        0.0000 
     10 CA         -0.9650    7.0270   17.8210 C.3       6 GLP5        0.0000 
     11 CA          8.4635   -0.9920   19.8775 C.3       3 GLC5        0.0000 
     12 CA          6.8740   -0.8950   20.7590 C.3       9 GLL5        0.0000 
     13 CA         10.0530   -1.0890   18.9960 C.3       6 GLP5        0.0000 
     14 CA          4.8920   -0.2125   20.5340 C.3       3 GLC5        0.0000 
     15 CA          2.9100    0.4700   20.3090 C.3       6 GLP5        0.0000 
     16 CA          5.5610   -2.1030   20.9960 C.3       3 GLC5        0.0000 
     17 CA          4.2480   -3.3110   21.2330 C.3       6 GLP5        0.0000 
     18 CA          3.1980    4.3550   14.7685 C.3       3 GLC5        0.0000 
     19 CA          3.8220    4.6370   16.8820 C.3       9 GLL5        0.0000 
     20 CA          3.6410    5.0910   18.8280 C.3       3 GLC5        0.0000 
     21 CA          3.4600    5.5450   20.7740 C.3       6 GLP5        0.0000 
     22 CA          2.2250    4.3915   18.3890 C.3       3 GLC5        0.0000 
     23 CA          2.6960    3.8720   16.4190 C.3       9 GLL5        0.0000 
     24 CA          1.7540    4.9110   20.3590 C.3       6 GLP5        0.0000 
     25 CA          0.2410    5.4545   14.4280 C.3       3 GLC5        0.0000 
     26 CA          1.5760    4.5290   15.8360 C.3       9 GLL5        0.0000 
     27 CA         -1.0940    6.3800   13.0200 C.3       6 GLP5        0.0000 
     28 CA          0.3055    5.7780   16.8285 C.3       3 GLC5        0.0000 
     29 O          -0.4980    3.6765   14.7450 O.2       1 ALC1        0.0000 
     30 O           0.6620    3.5870   15.5230 O.2       7 ALL1        0.0000 
     31 O          -1.6580    3.7660   13.9670 O.2       4 ALP1        0.0000 
     32 N           0.3320    6.4920   15.5495 N.am      2 SEC2        0.0000 
     33 N           1.5900    5.8560   15.7640 N.am      8 SEL2        0.0000 
     34 N          -0.9260    7.1280   15.3350 N.am      5 SEP2        0.0000 
     35 CA          6.9790    2.9900   16.8867 C.3       3 GLC5        0.0000 
     36 CA          6.0130    4.5650   18.1050 C.3       9 GLL5        0.0000 
     37 CA          7.5520    1.8220   15.2440 C.3       6 GLP5        0.0000 
     38 CA          4.8195    5.3887   19.4135 C.3       3 GLC5        0.0000 
     39 CA          0.0295    2.0782   17.0282 C.3       3 GLC5        0.0000 
     40 CA         -1.6850    1.7440   17.9350 C.3       6 GLP5        0.0000 
     41 CA          2.0935    0.7797   15.1913 C.3       3 GLC5        0.0000 
     42 CA          1.1290    2.3520   15.8560 C.3       9 GLL5        0.0000 
     43 CA          2.4430   -0.8530   14.2610 C.3       6 GLP5        0.0000 
     44 CA          7.2790    6.9908   16.5087 C.3       3 GLC5        0.0000 
     45 CA          6.3450    5.9000   18.0010 C.3       9 GLL5        0.0000 
     46 CA          7.6920    7.8100   14.6630 C.3       6 GLP5        0.0000 
     47 CA          7.3235    7.2513   20.5685 C.3       3 GLC5        0.0000 
     48 CA          8.1690    5.6720   19.5160 C.3       9 GLL5        0.0000 
     49 CA          6.8690    8.4450   22.0250 C.3       6 GLP5        0.0000 
     50 CA          5.6952    4.0563   20.3940 C.3       3 GLC5        0.0000 
     51 CA          7.8620    4.3360   19.6360 C.3       9 GLL5        0.0000 
     52 CA          4.0600    4.0690   21.4930 C.3       6 GLP5        0.0000 
     53 CA          9.4180    5.3999   18.0425 C.3       3 GLC5        0.0000 
     54 CA         11.0160    5.6030   16.7110 C.3       6 GLP5        0.0000 
     55 CA          4.7590    3.8887   15.3168 C.3       3 GLC5        0.0000 
     56 CA          6.2590    3.5230   13.9830 C.3       6 GLP5        0.0000 
     57 CA          2.0822    3.5872   14.3214 C.3       3 GLC5        0.0000 
@<TRIPOS>BOND
@<TRIPOS>SUBSTRUCTURE
     1 ALC1       29 GROUP        1 X    ALC  0     ROOT ALC X 1
     2 SEC2       32 GROUP        1 X    SEC  0     **** SEC X 2
     3 GLC5        1 GROUP        1 X    GLC  0     **** GLC X 6
     4 ALP1       31 GROUP        1 Y    ALP  0     ROOT ALP Y 8
     5 SEP2       34 GROUP        1 Y    SEP  0     **** SEP Y 9
     6 GLP5        3 GROUP        1 Y    GLP  0     **** GLP Y 13
     7 ALL1       30 GROUP        1 Z    ALL  0     ROOT ALL Z 15
     8 SEL2       33 GROUP        1 Z    SEL  0     **** SEL Z 16
     9 GLL5        2 GROUP        1 Z    GLL  0     **** GLL Z 20
@<TRIPOS>SET

