#    Name: 3cqu_CQU_1_ligand
#    Modification time : Mon Mar 24 22:12:14 2014

@<TRIPOS>MOLECULE
3cqu_CQU_1_ligand
   35    38     1     0     0
SMALL
NO_CHARGES


@<TRIPOS>ATOM
      1 N3          4.9390    3.9800   17.4130 N.pl3     1 CQU999      0.0000 
      2 C7          6.0130    4.5650   18.1050 C.ar      1 CQU999      0.0000 
      3 C6          2.3590    2.4730   16.3870 C.2       1 CQU999      0.0000 
      4 C13         6.3450    5.9000   18.0010 C.ar      1 CQU999      0.0000 
      5 C21         6.5670    0.2390   19.8470 C.2       1 CQU999      0.0000 
      6 C8          2.6400    6.5180   16.2000 C.ar      1 CQU999      0.0000 
      7 C16         7.3870    6.4430   18.7080 C.ar      1 CQU999      0.0000 
      8 C19         8.1690    5.6720   19.5160 C.ar      1 CQU999      0.0000 
      9 C22         6.8740   -0.8950   20.7590 C.3       1 CQU999      0.0000 
     10 N18         7.0080    1.4850   20.1000 N.pl3     1 CQU999      0.0000 
     11 N20         5.8760    0.2380   18.7270 N.2       1 CQU999      0.0000 
     12 N17         5.8840    1.4720   18.2900 N.2       1 CQU999      0.0000 
     13 C14         6.5580    2.2810   19.0950 C.2       1 CQU999      0.0000 
     14 C12         6.7990    3.7510   18.9540 C.ar      1 CQU999      0.0000 
     15 C15         7.8620    4.3360   19.6360 C.ar      1 CQU999      0.0000 
     16 C1          3.8220    4.6370   16.8820 C.ar      1 CQU999      0.0000 
     17 C2          2.6960    3.8720   16.4190 C.ar      1 CQU999      0.0000 
     18 C5          1.5760    4.5290   15.8360 C.ar      1 CQU999      0.0000 
     19 N9          0.6620    3.5870   15.5230 N.pl3     1 CQU999      0.0000 
     20 C11         1.1290    2.3520   15.8560 C.2       1 CQU999      0.0000 
     21 N10         1.5900    5.8560   15.7640 N.ar      1 CQU999      0.0000 
     22 N4          3.7020    5.9600   16.7740 N.ar      1 CQU999      0.0000 
     23 H           4.9808    2.9153   17.2778 H         1 CQU999      0.0000 
     24 H           2.9420    1.7943   16.6998 H         1 CQU999      0.0000 
     25 H           5.7843    6.5119   17.3644 H         1 CQU999      0.0000 
     26 H           2.6455    7.5945   16.0860 H         1 CQU999      0.0000 
     27 H           7.5821    7.4652   18.6237 H         1 CQU999      0.0000 
     28 H           8.9639    6.0703   20.0219 H         1 CQU999      0.0000 
     29 H           7.5387    1.7654   20.8448 H         1 CQU999      0.0000 
     30 H           8.4454    3.7318   20.2616 H         1 CQU999      0.0000 
     31 H          -0.2073    3.7584   15.1177 H         1 CQU999      0.0000 
     32 H           0.6445    1.5228   15.7270 H         1 CQU999      0.0000 
     33 H           7.8587   -1.0468   20.8444 H         1 CQU999      0.0000 
     34 H           6.5209   -0.7362   21.6810 H         1 CQU999      0.0000 
     35 H           6.4724   -1.7515   20.4348 H         1 CQU999      0.0000 
@<TRIPOS>BOND
     1    2    1 1    
     2   16    1 1    
     3   23    1 1    
     4    4    2 ar   
     5   14    2 ar   
     6   17    3 1    
     7   20    3 2    
     8   24    3 1    
     9    7    4 ar   
    10   25    4 1    
    11    9    5 1    
    12   10    5 1    
    13   11    5 2    
    14   21    6 ar   
    15   22    6 ar   
    16   26    6 1    
    17    8    7 ar   
    18   27    7 1    
    19   15    8 ar   
    20   28    8 1    
    21   33    9 1    
    22   34    9 1    
    23   35    9 1    
    24   13   10 1    
    25   29   10 1    
    26   12   11 1    
    27   13   12 2    
    28   14   13 1    
    29   15   14 ar   
    30   30   15 1    
    31   17   16 ar   
    32   22   16 ar   
    33   18   17 ar   
    34   19   18 1    
    35   21   18 ar   
    36   20   19 1    
    37   31   19 1    
    38   32   20 1    
@<TRIPOS>SUBSTRUCTURE
     1 CQU999      1 GROUP   
@<TRIPOS>SET

