#    Name: 2OS1_1_CAVITY_N1_ALL.mol2
#    Modification time : Tue Mar 11 03:47:09 2014

@<TRIPOS>MOLECULE
2OS1_1_CAVITY_N1_ALL.mol2
   79     0     6     0     0
SMALL
NO_CHARGES


@<TRIPOS>ATOM
      1 N           8.7746   53.5962   31.7553 N.2       2 ALA2        0.0000 
      2 O          10.6840   53.7616   30.8462 O.2       2 ALA2        0.0000 
      3 O          10.9577   52.3203   31.1588 O.2       2 ALA2        0.0000 
      4 O           9.3098   53.3969   30.3683 O.2       2 ALA2        0.0000 
      5 DU          9.5834   51.9556   30.6809 H         6 CUB7        0.0000 
      6 DU          9.8571   50.5143   30.9935 H         6 CUB7        0.0000 
      7 CA          8.2092   51.5910   30.2030 C.3       5 GLY6        0.0000 
      8 CA          8.4828   50.1497   30.5156 C.3       5 GLY6        0.0000 
      9 O          15.8895   51.7736   31.5181 O.2       2 ALA2        0.0000 
     10 O          14.2415   52.8503   30.7276 O.2       2 ALA2        0.0000 
     11 O          14.5152   51.4090   31.0402 O.2       2 ALA2        0.0000 
     12 N          14.7889   49.9677   31.3528 N.2       2 ALA2        0.0000 
     13 CA         12.8672   52.4857   30.2497 C.3       5 GLY6        0.0000 
     14 DU         13.1409   51.0444   30.5623 H         6 CUB7        0.0000 
     15 N          13.4146   49.6031   30.8749 N.2       2 ALA2        0.0000 
     16 N          13.6883   48.1617   31.1875 N.2       2 ALA2        0.0000 
     17 O          11.4929   52.1210   29.7718 O.2       2 ALA2        0.0000 
     18 DU         11.7666   50.6797   30.0844 H         6 CUB7        0.0000 
     19 DU         12.0403   49.2384   30.3970 H         6 CUB7        0.0000 
     20 O          10.1186   51.7564   29.2939 O.2       2 ALA2        0.0000 
     21 DU         10.3923   50.3151   29.6065 H         6 CUB7        0.0000 
     22 DU         10.6660   48.8738   29.9191 H         6 CUB7        0.0000 
     23 N           8.7444   51.3918   28.8160 N.2       2 ALA2        0.0000 
     24 CA          9.0180   49.9505   29.1286 C.3       5 GLY6        0.0000 
     25 OG          9.2917   48.5092   29.4412 O.2       1 SER1        0.0000 
     26 OG          9.5654   47.0679   29.7538 O.2       1 SER1        0.0000 
     27 CA          7.6438   49.5859   28.6507 C.3       5 GLY6        0.0000 
     28 O          16.4247   51.5744   30.1310 O.2       2 ALA2        0.0000 
     29 O          14.7767   52.6511   29.3405 O.2       2 ALA2        0.0000 
     30 N          15.0504   51.2098   29.6531 N.2       2 ALA2        0.0000 
     31 N          13.4024   52.2864   28.8626 N.2       2 ALA2        0.0000 
     32 N          13.6761   50.8451   29.1752 N.2       2 ALA2        0.0000 
     33 N          13.9498   49.4038   29.4879 N.2       2 ALA2        0.0000 
     34 N          14.2235   47.9625   29.8005 N.2       2 ALA2        0.0000 
     35 O          12.0281   51.9218   28.3847 O.2       2 ALA2        0.0000 
     36 DU         12.3018   50.4805   28.6973 H         6 CUB7        0.0000 
     37 DU         12.5755   49.0392   29.0100 H         6 CUB7        0.0000 
     38 CA         12.8492   47.5979   29.3226 C.3       5 GLY6        0.0000 
     39 O          10.6538   51.5572   27.9068 O.2       2 ALA2        0.0000 
     40 DU         10.9275   50.1159   28.2194 H         6 CUB7        0.0000 
     41 OG         11.2012   48.6746   28.5321 O.2       1 SER1        0.0000 
     42 OG         11.4749   47.2333   28.8447 O.2       1 SER1        0.0000 
     43 CA          9.2795   51.1926   27.4289 C.3       5 GLY6        0.0000 
     44 CA          9.5532   49.7513   27.7415 C.3       5 GLY6        0.0000 
     45 OG          9.8269   48.3100   28.0542 O.2       1 SER1        0.0000 
     46 CA         15.5856   51.0105   28.2661 C.3       5 GLY6        0.0000 
     47 N          15.8593   49.5692   28.5787 N.2       2 ALA2        0.0000 
     48 N          14.2113   50.6459   27.7882 N.2       2 ALA2        0.0000 
     49 CA         14.4850   49.2046   28.1008 C.3       5 GLY6        0.0000 
     50 N          12.8370   50.2813   27.3103 N.2       2 ALA2        0.0000 
     51 CA         13.1107   48.8400   27.6229 C.3       5 GLY6        0.0000 
     52 CA         13.3844   47.3987   27.9355 C.3       5 GLY6        0.0000 
     53 N          11.1890   51.3580   26.5198 N.2       2 ALA2        0.0000 
     54 DU         11.4627   49.9167   26.8324 H         6 CUB7        0.0000 
     55 CA         11.7364   48.4754   27.1450 C.3       5 GLY6        0.0000 
     56 CA          9.8147   50.9934   26.0419 C.3       5 GLY6        0.0000 
     57 CA         10.0884   49.5521   26.3545 C.3       5 GLY6        0.0000 
     58 O          16.1208   50.8113   26.8791 O.2       2 ALA2        0.0000 
     59 CA         16.3945   49.3700   27.1917 C.3       5 GLY6        0.0000 
     60 N          14.7465   50.4467   26.4012 N.2       2 ALA2        0.0000 
     61 O          15.0202   49.0054   26.7138 O.2       2 ALA2        0.0000 
     62 N          13.0985   51.5234   25.6106 N.2       2 ALA2        0.0000 
     63 N          13.3722   50.0821   25.9233 N.2       2 ALA2        0.0000 
     64 CA         13.6459   48.6408   26.2359 C.3       5 GLY6        0.0000 
     65 O          11.7242   51.1588   25.1327 O.2       2 ALA2        0.0000 
     66 CA         11.9979   49.7175   25.4454 C.3       5 GLY6        0.0000 
     67 CA         10.3499   50.7941   24.6548 C.3       5 GLY6        0.0000 
     68 CZ         10.6236   49.3528   24.9675 C.ar      4 PHE5        0.0000 
     69 CA         10.8973   47.9115   25.2801 C.3       5 GLY6        0.0000 
     70 N          16.6560   50.6121   25.4920 N.2       2 ALA2        0.0000 
     71 N          16.9296   49.1708   25.8046 N.2       2 ALA2        0.0000 
     72 NZ         15.2817   50.2475   25.0141 N.2       3 LYS4        0.0000 
     73 O          15.5554   48.8062   25.3267 O.2       2 ALA2        0.0000 
     74 NZ         13.9074   49.8829   24.5362 N.2       3 LYS4        0.0000 
     75 CA         14.1811   48.4416   24.8488 C.3       5 GLY6        0.0000 
     76 O          12.2594   50.9595   23.7457 O.2       2 ALA2        0.0000 
     77 CA         12.5331   49.5182   24.0583 C.3       5 GLY6        0.0000 
     78 O          10.8851   50.5949   23.2678 O.2       2 ALA2        0.0000 
     79 CA         11.1588   49.1536   23.5804 C.3       5 GLY6        0.0000 
@<TRIPOS>BOND
@<TRIPOS>SUBSTRUCTURE
     1 SER1       25 GROUP   
     2 ALA2        1 GROUP   
     3 LYS4       72 GROUP   
     4 PHE5       68 GROUP   
     5 GLY6        7 GROUP   
     6 CUB7        5 GROUP   
@<TRIPOS>SET

