#    Name: 2os1_BB2_1_INTS_M
#    Modification time : Mon Mar 24 17:49:34 2014

@<TRIPOS>MOLECULE
2os1_BB2_1_INTS_M
   72     0     9     0     0
SMALL
NO_CHARGES


@<TRIPOS>ATOM
      1 CA         16.6960   48.3070   27.1815 C.3       3 GLC5        0.0000 
      2 CA         16.5330   49.8700   25.7500 C.3       9 GLL5        0.0000 
      3 CA         16.8590   46.7440   28.6130 C.3       6 GLP5        0.0000 
      4 CA         18.3235   49.7265   26.5120 C.3       3 GLC5        0.0000 
      5 CA         20.1140   49.5830   27.2740 C.3       6 GLP5        0.0000 
      6 N          19.0915   52.3830   24.5290 N.am      2 SEC2        0.0000 
      7 N          17.8430   51.7940   25.3280 N.am      8 SEL2        0.0000 
      8 N          20.3400   52.9720   23.7300 N.am      5 SEP2        0.0000 
      9 N          18.1390   52.6465   26.4240 N.am      2 SEC2        0.0000 
     10 N          18.4350   53.4990   27.5200 N.am      5 SEP2        0.0000 
     11 O          16.5515   49.9560   22.5575 O.2       1 ALC1        0.0000 
     12 O          17.1160   50.6960   23.4850 O.2       7 ALL1        0.0000 
     13 O          15.9870   49.2160   21.6300 O.2       4 ALP1        0.0000 
     14 O          17.6270   50.6445   21.4815 O.2       1 ALC1        0.0000 
     15 O          17.6260   51.4390   22.6490 O.2       7 ALL1        0.0000 
     16 O          17.6280   49.8500   20.3140 O.2       4 ALP1        0.0000 
     17 CA         15.6595   52.4030   26.5085 C.3       3 GLC5        0.0000 
     18 CA         15.0390   50.3320   26.0020 C.3       9 GLL5        0.0000 
     19 CA         16.2800   54.4740   27.0150 C.3       6 GLP5        0.0000 
     20 N          14.9695   47.2240   27.2255 N.am      2 SEC2        0.0000 
     21 N          14.4590   48.6120   27.6230 N.am      8 SEL2        0.0000 
     22 N          15.4800   45.8360   26.8280 N.am      5 SEP2        0.0000 
     23 CA         14.3930   51.0520   23.2300 C.3       3 GLC5        0.0000 
     24 CA         14.2170   49.7610   24.7810 C.3       9 GLL5        0.0000 
     25 CA         14.5690   52.3430   21.6790 C.3       6 GLP5        0.0000 
     26 CA          9.5905   52.1575   24.1630 C.3       3 GLC5        0.0000 
     27 CA         10.5690   50.2510   23.5410 C.3       9 GLL5        0.0000 
     28 CA          8.6120   54.0640   24.7850 C.3       6 GLP5        0.0000 
     29 CA         11.4840   50.9260   21.9960 C.3       3 GLC5        0.0000 
     30 CA         12.3990   51.6010   20.4510 C.3       6 GLP5        0.0000 
     31 CA          8.1110   50.0380   25.1960 C.3       3 GLC5        0.0000 
     32 CA          9.5160   49.5860   24.3510 C.3       9 GLL5        0.0000 
     33 CA          6.7060   50.4900   26.0410 C.3       6 GLP5        0.0000 
     34 CA          8.7015   48.1085   24.9250 C.3       3 GLC5        0.0000 
     35 CA          7.8870   46.6310   25.4990 C.3       6 GLP5        0.0000 
     36 CA          9.9640   47.8740   23.4890 C.3       3 GLC5        0.0000 
     37 CA         10.4120   46.1620   22.6270 C.3       6 GLP5        0.0000 
     38 O          13.7715   52.2730   27.3630 O.2       1 ALC1        0.0000 
     39 O          13.8590   50.7240   28.0830 O.2       7 ALL1        0.0000 
     40 O          13.6840   53.8220   26.6430 O.2       4 ALP1        0.0000 
     41 CA         15.4240   53.3590   28.6460 C.3       3 GLC5        0.0000 
     42 CA         14.5680   52.2440   30.2770 C.3       9 GLL5        0.0000 
     43 N          11.4190   53.1925   28.1845 N.am      2 SEC2        0.0000 
     44 N          11.2700   51.7720   28.3010 N.am      8 SEL2        0.0000 
     45 N          11.5680   54.6130   28.0680 N.am      5 SEP2        0.0000 
     46 CA          6.7070   51.1710   30.3910 C.3       3 GLC5        0.0000 
     47 CA          8.4360   50.8070   29.8460 C.3       9 GLL5        0.0000 
     48 CA          4.9780   51.5350   30.9360 C.3       6 GLP5        0.0000 
     49 O           7.6710   52.8745   28.7545 O.2       1 ALC1        0.0000 
     50 O           8.4130   52.0540   29.6260 O.2       7 ALL1        0.0000 
     51 O           6.9290   53.6950   27.8830 O.2       4 ALP1        0.0000 
     52 CA         12.7825   51.1040   22.8690 C.3       3 GLC5        0.0000 
     53 CA         12.7270   50.1480   24.8690 C.3       9 GLL5        0.0000 
     54 CA         13.2320   52.3350   21.4590 C.3       6 GLP5        0.0000 
     55 CA         12.7668   47.9261   24.9105 C.3       3 GLC5        0.0000 
     56 CA         11.9390   49.5980   23.6890 C.3       9 GLL5        0.0000 
     57 CA         12.8280   46.0760   25.5640 C.3       6 GLP5        0.0000 
     58 CA         11.0310   48.7737   22.1180 C.3       3 GLC5        0.0000 
     59 CA         10.8080   47.6230   20.6210 C.3       6 GLP5        0.0000 
     60 CA          8.6657   50.0367   22.8270 C.3       3 GLC5        0.0000 
     61 CA          7.2890   50.1550   21.7080 C.3       6 GLP5        0.0000 
     62 CA         13.4322   53.4363   29.4275 C.3       3 GLC5        0.0000 
     63 CA         13.4170   51.2850   30.5190 C.3       9 GLL5        0.0000 
     64 CA         12.8720   55.1080   28.4570 C.3       6 GLP5        0.0000 
     65 CA          8.8500   46.9002   27.8210 C.3       3 GLC5        0.0000 
     66 CA          8.7200   48.4840   28.9060 C.3       9 GLL5        0.0000 
     67 CA          8.5610   45.6470   26.2080 C.3       6 GLP5        0.0000 
     68 CA          7.7897   47.6045   29.2437 C.3       3 GLC5        0.0000 
     69 CA          9.5580   47.8230   29.9620 C.3       9 GLL5        0.0000 
     70 CA          6.3160   46.6940   29.0660 C.3       6 GLP5        0.0000 
     71 CA          7.7043   50.2485   27.7022 C.3       3 GLC5        0.0000 
     72 CA          9.2180   49.9300   28.8560 C.3       9 GLL5        0.0000 
@<TRIPOS>BOND
@<TRIPOS>SUBSTRUCTURE
     1 ALC1       11 GROUP        1 X    ALC  0     ROOT ALC X 1
     2 SEC2        6 GROUP        1 X    SEC  0     **** SEC X 2
     3 GLC5        1 GROUP        1 X    GLC  0     **** GLC X 6
     4 ALP1       13 GROUP        1 Y    ALP  0     ROOT ALP Y 8
     5 SEP2        8 GROUP        1 Y    SEP  0     **** SEP Y 9
     6 GLP5        3 GROUP        1 Y    GLP  0     **** GLP Y 13
     7 ALL1       12 GROUP        1 Z    ALL  0     ROOT ALL Z 15
     8 SEL2        7 GROUP        1 Z    SEL  0     **** SEL Z 16
     9 GLL5        2 GROUP        1 Z    GLL  0     **** GLL Z 20
@<TRIPOS>SET

