#    Name: 2os1_BB2_1_ligand
#    Modification time : Mon Mar 24 17:49:34 2014

@<TRIPOS>MOLECULE
2os1_BB2_1_ligand
   62    62     1     0     0
SMALL
NO_CHARGES


@<TRIPOS>ATOM
      1 C5         16.5330   49.8700   25.7500 C.3       1 BB2400      0.0000 
      2 C3         17.2140   50.8600   24.7970 C.2       1 BB2400      0.0000 
      3 O4         17.8430   51.7940   25.3280 O.2       1 BB2400      0.0000 
      4 N1         17.1160   50.6960   23.4850 N.am      1 BB2400      0.0000 
      5 O2         17.6260   51.4390   22.6490 O.3       1 BB2400      0.0000 
      6 C6         15.0390   50.3320   26.0020 C.3       1 BB2400      0.0000 
      7 C12        14.4230   49.7990   27.3140 C.2       1 BB2400      0.0000 
      8 O13        14.4590   48.6120   27.6230 O.2       1 BB2400      0.0000 
      9 C7         14.2170   49.7610   24.7810 C.3       1 BB2400      0.0000 
     10 C8         12.7270   50.1480   24.8690 C.3       1 BB2400      0.0000 
     11 C9         11.9390   49.5980   23.6890 C.3       1 BB2400      0.0000 
     12 C10        10.5690   50.2510   23.5410 C.3       1 BB2400      0.0000 
     13 C11         9.5160   49.5860   24.3510 C.3       1 BB2400      0.0000 
     14 N14        13.8590   50.7240   28.0830 N.am      1 BB2400      0.0000 
     15 C15        13.0350   50.4600   29.2660 C.3       1 BB2400      0.0000 
     16 C16        13.4170   51.2850   30.5190 C.3       1 BB2400      0.0000 
     17 C18        14.5680   52.2440   30.2770 C.3       1 BB2400      0.0000 
     18 C17        13.7640   50.2900   31.6240 C.3       1 BB2400      0.0000 
     19 C19        11.5620   50.7200   28.8760 C.2       1 BB2400      0.0000 
     20 O20        11.2700   51.7720   28.3010 O.2       1 BB2400      0.0000 
     21 N21        10.6410   49.7800   29.1810 N.am      1 BB2400      0.0000 
     22 C22         9.2180   49.9300   28.8560 C.3       1 BB2400      0.0000 
     23 C23        10.9170   48.4760   29.8760 C.3       1 BB2400      0.0000 
     24 C24         9.5580   47.8230   29.9620 C.3       1 BB2400      0.0000 
     25 C25         8.7200   48.4840   28.9060 C.3       1 BB2400      0.0000 
     26 C26         8.4360   50.8070   29.8460 C.3       1 BB2400      0.0000 
     27 O27         8.4130   52.0540   29.6260 O.3       1 BB2400      0.0000 
     28 H          17.0433   49.8560   26.6965 H         1 BB2400      0.0000 
     29 H          16.5104   48.8886   25.3108 H         1 BB2400      0.0000 
     30 H          16.5313   49.8258   23.1633 H         1 BB2400      0.0000 
     31 H          14.9927   51.3856   25.9538 H         1 BB2400      0.0000 
     32 H          14.3142   48.6803   24.7828 H         1 BB2400      0.0000 
     33 H          14.6448   50.1612   23.8676 H         1 BB2400      0.0000 
     34 H          12.6474   51.2354   24.8864 H         1 BB2400      0.0000 
     35 H          12.3162   49.7528   25.7986 H         1 BB2400      0.0000 
     36 H          11.8078   48.5156   23.8164 H         1 BB2400      0.0000 
     37 H          12.5130   49.7571   22.7669 H         1 BB2400      0.0000 
     38 H          10.2891   50.2356   22.4736 H         1 BB2400      0.0000 
     39 H          10.6552   51.3117   23.8330 H         1 BB2400      0.0000 
     40 H          13.9846   51.7610   27.8660 H         1 BB2400      0.0000 
     41 H          13.0972   49.3982   29.5295 H         1 BB2400      0.0000 
     42 H          12.5402   51.8357   30.8331 H         1 BB2400      0.0000 
     43 H           9.0950   50.2808   27.8611 H         1 BB2400      0.0000 
     44 H          11.2957   48.6545   30.8548 H         1 BB2400      0.0000 
     45 H          11.5701   47.8767   29.2865 H         1 BB2400      0.0000 
     46 H           9.1333   47.9973   30.9318 H         1 BB2400      0.0000 
     47 H           9.6471   46.7734   29.7579 H         1 BB2400      0.0000 
     48 H           8.8828   48.0222   27.9575 H         1 BB2400      0.0000 
     49 H           7.6904   48.4754   29.1875 H         1 BB2400      0.0000 
     50 H           8.8618   50.5123   30.8733 H         1 BB2400      0.0000 
     51 H           7.3984   50.3126   29.8943 H         1 BB2400      0.0000 
     52 H           9.4021   48.6258   24.0958 H         1 BB2400      0.0000 
     53 H           9.7304   49.6063   25.3275 H         1 BB2400      0.0000 
     54 H           8.6258   50.0271   24.2371 H         1 BB2400      0.0000 
     55 H          15.3974   51.7641   29.9909 H         1 BB2400      0.0000 
     56 H          14.3530   52.9094   29.5621 H         1 BB2400      0.0000 
     57 H          14.7987   52.7626   31.1003 H         1 BB2400      0.0000 
     58 H          14.5277   49.6987   31.3649 H         1 BB2400      0.0000 
     59 H          14.0256   50.7523   32.4713 H         1 BB2400      0.0000 
     60 H          12.9920   49.6930   31.8421 H         1 BB2400      0.0000 
     61 H          17.6820   50.8901   21.8150 H         1 BB2400      0.0000 
     62 H           7.7441   52.1750   28.8926 H         1 BB2400      0.0000 
@<TRIPOS>BOND
     1    2    1 1    
     2    6    1 1    
     3   28    1 1    
     4   29    1 1    
     5    3    2 2    
     6    4    2 am   
     7    5    4 1    
     8   30    4 1    
     9   61    5 1    
    10    7    6 1    
    11    9    6 1    
    12   31    6 1    
    13    8    7 2    
    14   14    7 am   
    15   10    9 1    
    16   32    9 1    
    17   33    9 1    
    18   11   10 1    
    19   34   10 1    
    20   35   10 1    
    21   12   11 1    
    22   36   11 1    
    23   37   11 1    
    24   13   12 1    
    25   38   12 1    
    26   39   12 1    
    27   52   13 1    
    28   53   13 1    
    29   54   13 1    
    30   15   14 1    
    31   40   14 1    
    32   16   15 1    
    33   19   15 1    
    34   41   15 1    
    35   17   16 1    
    36   18   16 1    
    37   42   16 1    
    38   55   17 1    
    39   56   17 1    
    40   57   17 1    
    41   58   18 1    
    42   59   18 1    
    43   60   18 1    
    44   20   19 2    
    45   21   19 am   
    46   22   21 1    
    47   23   21 1    
    48   25   22 1    
    49   26   22 1    
    50   43   22 1    
    51   24   23 1    
    52   44   23 1    
    53   45   23 1    
    54   25   24 1    
    55   46   24 1    
    56   47   24 1    
    57   48   25 1    
    58   49   25 1    
    59   27   26 1    
    60   50   26 1    
    61   51   26 1    
    62   62   27 1    
@<TRIPOS>SUBSTRUCTURE
     1 BB2400      1 GROUP   
@<TRIPOS>SET

