#    Name: 1dzk_PRZ_1_INTS_M
#    Modification time : Mon Mar 24 22:36:12 2014

@<TRIPOS>MOLECULE
1dzk_PRZ_1_INTS_M
   27     0     3     0     0
SMALL
NO_CHARGES


@<TRIPOS>ATOM
      1 CA          0.6315   28.7760   10.8730 C.3       1 GLC5        0.0000 
      2 CA          0.5710   26.7340   11.7610 C.3       3 GLL5        0.0000 
      3 CA          0.6920   30.8180    9.9850 C.3       2 GLP5        0.0000 
      4 CA          1.3130   28.7160   12.4935 C.3       1 GLC5        0.0000 
      5 CA          2.0550   30.6980   13.2260 C.3       2 GLP5        0.0000 
      6 CA         -0.5160   23.7500    9.6355 C.3       1 GLC5        0.0000 
      7 CA          1.2920   24.3860   10.3500 C.3       3 GLL5        0.0000 
      8 CA         -2.3240   23.1140    8.9210 C.3       2 GLP5        0.0000 
      9 CA         -3.9140   26.5015   11.7625 C.3       1 GLC5        0.0000 
     10 CA         -3.2530   27.1590   13.7540 C.3       3 GLL5        0.0000 
     11 CA         -4.5750   25.8440    9.7710 C.3       2 GLP5        0.0000 
     12 CA         -4.3610   27.0355   15.4090 C.3       1 GLC5        0.0000 
     13 CA         -5.4690   26.9120   17.0640 C.3       2 GLP5        0.0000 
     14 CA         -1.6060   25.1295   16.0180 C.3       1 GLC5        0.0000 
     15 CA         -1.1970   25.8720   14.2440 C.3       3 GLL5        0.0000 
     16 CA         -2.0150   24.3870   17.7920 C.3       2 GLP5        0.0000 
     17 CA         -1.3455   23.8015   13.6250 C.3       1 GLC5        0.0000 
     18 CA         -1.4940   21.7310   13.0060 C.3       2 GLP5        0.0000 
     19 CA          0.8450   29.7965   11.3650 C.3       1 GLC5        0.0000 
     20 CA          0.9980   28.7750   12.7450 C.3       3 GLL5        0.0000 
     21 CA          1.5265   29.7365   12.9855 C.3       1 GLC5        0.0000 
     22 CA         -1.7452   24.5470   10.1570 C.3       1 GLC5        0.0000 
     23 CA         -0.4030   25.8580   11.2200 C.3       3 GLL5        0.0000 
     24 CA          3.6502   24.2227   10.3087 C.3       1 GLC5        0.0000 
     25 CA          5.5050   23.6550    9.9440 C.3       2 GLP5        0.0000 
     26 CA         -3.3093   26.0570   11.0695 C.3       1 GLC5        0.0000 
     27 CA         -1.9300   26.1020   11.5660 C.3       3 GLL5        0.0000 
@<TRIPOS>BOND
@<TRIPOS>SUBSTRUCTURE
     1 GLC5        1 GROUP        1 X    GLC  0     ROOT GLC X 6
     2 GLP5        3 GROUP        1 Y    GLP  0     ROOT GLP Y 13
     3 GLL5        2 GROUP        1 Z    GLL  0     ROOT GLL Z 20
@<TRIPOS>SET

