#    Name: 1dzk_PRZ_1_ligand
#    Modification time : Mon Mar 24 22:36:12 2014

@<TRIPOS>MOLECULE
1dzk_PRZ_1_ligand
   26    26     1     0     0
SMALL
NO_CHARGES


@<TRIPOS>ATOM
      1 N1         -0.0300   24.7570   10.5420 N.ar      1 PRZ700      0.0000 
      2 C2         -0.4030   25.8580   11.2200 C.ar      1 PRZ700      0.0000 
      3 C3          0.5710   26.7340   11.7610 C.ar      1 PRZ700      0.0000 
      4 N4          1.9330   26.4290   11.6440 N.ar      1 PRZ700      0.0000 
      5 C5          2.2990   25.1950   10.9970 C.ar      1 PRZ700      0.0000 
      6 C6          1.2920   24.3860   10.3500 C.ar      1 PRZ700      0.0000 
      7 C21        -1.9300   26.1020   11.5660 C.3       1 PRZ700      0.0000 
      8 C22        -2.1570   26.4380   13.1700 C.3       1 PRZ700      0.0000 
      9 C23        -3.2530   27.1590   13.7540 C.3       1 PRZ700      0.0000 
     10 C24        -1.1970   25.8720   14.2440 C.3       1 PRZ700      0.0000 
     11 O31         0.1150   27.8030   12.1900 O.3       1 PRZ700      0.0000 
     12 C31         0.9980   28.7750   12.7450 C.3       1 PRZ700      0.0000 
     13 H           3.2653   24.8919   10.9947 H         1 PRZ700      0.0000 
     14 H           1.5640   23.6013    9.7957 H         1 PRZ700      0.0000 
     15 H          -2.4990   25.2174   11.3459 H         1 PRZ700      0.0000 
     16 H          -2.2984   26.9460   11.0122 H         1 PRZ700      0.0000 
     17 H          -1.3581   27.6080   13.0705 H         1 PRZ700      0.0000 
     18 H          -3.1639   27.2294   14.7475 H         1 PRZ700      0.0000 
     19 H          -3.3155   28.0916   13.3985 H         1 PRZ700      0.0000 
     20 H          -4.1300   26.7154   13.5690 H         1 PRZ700      0.0000 
     21 H          -0.2558   26.1769   14.0986 H         1 PRZ700      0.0000 
     22 H          -1.4592   26.1596   15.1652 H         1 PRZ700      0.0000 
     23 H          -1.1849   24.8721   14.2414 H         1 PRZ700      0.0000 
     24 H           1.4984   28.4154   13.5326 H         1 PRZ700      0.0000 
     25 H           1.6791   29.0809   12.0797 H         1 PRZ700      0.0000 
     26 H           0.5066   29.5883   13.0564 H         1 PRZ700      0.0000 
@<TRIPOS>BOND
     1    2    1 ar   
     2    6    1 ar   
     3    3    2 ar   
     4    7    2 1    
     5    4    3 ar   
     6   11    3 1    
     7    5    4 ar   
     8    6    5 ar   
     9   13    5 1    
    10   14    6 1    
    11    8    7 1    
    12   15    7 1    
    13   16    7 1    
    14    9    8 1    
    15   10    8 1    
    16   17    8 1    
    17   18    9 1    
    18   19    9 1    
    19   20    9 1    
    20   21   10 1    
    21   22   10 1    
    22   23   10 1    
    23   12   11 1    
    24   24   12 1    
    25   25   12 1    
    26   26   12 1    
@<TRIPOS>SUBSTRUCTURE
     1 PRZ700      1 GROUP   
@<TRIPOS>SET

