#    Name: 4o0y_2OO_1_INTS_M
#    Modification time : Tue Mar 25 13:26:43 2014

@<TRIPOS>MOLECULE
4o0y_2OO_1_INTS_M
   84     0     9     0     0
SMALL
NO_CHARGES


@<TRIPOS>ATOM
      1 CA         11.4605  -36.1590   10.2425 C.3       3 GLC5        0.0000 
      2 CA         12.7220  -36.4820   11.6480 C.3       9 GLL5        0.0000 
      3 CA         10.1990  -35.8360    8.8370 C.3       6 GLP5        0.0000 
      4 CA         10.9455  -35.1695   11.8400 C.3       3 GLC5        0.0000 
      5 CA          9.1690  -33.8570   12.0320 C.3       6 GLP5        0.0000 
      6 CA         14.3190  -36.6810   14.9330 C.3       3 GLC5        0.0000 
      7 CA         13.6370  -36.3050   12.8630 C.3       9 GLL5        0.0000 
      8 CA         15.0010  -37.0570   17.0030 C.3       6 GLP5        0.0000 
      9 CA         15.6615  -36.0055   13.3220 C.3       3 GLC5        0.0000 
     10 CA         17.6860  -35.7060   13.7810 C.3       6 GLP5        0.0000 
     11 CA         12.3745  -35.4430   16.5125 C.3       3 GLC5        0.0000 
     12 CA         11.2380  -33.9540   15.7540 C.3       9 GLL5        0.0000 
     13 CA         13.5110  -36.9320   17.2710 C.3       6 GLP5        0.0000 
     14 CA         13.0225  -33.6335   16.7605 C.3       3 GLC5        0.0000 
     15 CA         14.8070  -33.3130   17.7670 C.3       6 GLP5        0.0000 
     16 CA          9.9135  -33.3155   14.9610 C.3       3 GLC5        0.0000 
     17 CA          8.5890  -32.6770   14.1680 C.3       6 GLP5        0.0000 
     18 CA         11.7425  -36.3230   16.9250 C.3       3 GLC5        0.0000 
     19 CA          9.9740  -35.7140   16.5790 C.3       9 GLL5        0.0000 
     20 CA          8.0645  -35.5555   16.4290 C.3       3 GLC5        0.0000 
     21 CA          6.1550  -35.3970   16.2790 C.3       6 GLP5        0.0000 
     22 CA          9.2815  -34.1955   15.3735 C.3       3 GLC5        0.0000 
     23 N           8.1930  -35.4530   17.9930 N.am      2 SEC2        0.0000 
     24 N           9.4060  -34.8900   17.4610 N.am      8 SEL2        0.0000 
     25 N           6.9800  -36.0160   18.5250 N.am      5 SEP2        0.0000 
     26 CA         10.6655  -33.6940   19.0385 C.3       3 GLC5        0.0000 
     27 CA          9.7680  -33.5960   17.4880 C.3       9 GLL5        0.0000 
     28 CA         11.5630  -33.7920   20.5890 C.3       6 GLP5        0.0000 
     29 CA         10.1465  -31.5860   18.2860 C.3       3 GLC5        0.0000 
     30 CA         10.5250  -29.5760   19.0840 C.3       6 GLP5        0.0000 
     31 CA          8.7430  -34.6710   19.1540 C.3       3 GLC5        0.0000 
     32 CA          7.7180  -35.7460   20.8200 C.3       6 GLP5        0.0000 
     33 CA          7.9615  -34.4965   16.8835 C.3       3 GLC5        0.0000 
     34 CA          9.1785  -33.1365   15.8280 C.3       3 GLC5        0.0000 
     35 O           8.5030  -32.8385   19.4560 O.2       1 ALC1        0.0000 
     36 O           9.2070  -32.7110   18.3740 O.2       7 ALL1        0.0000 
     37 O           7.7990  -32.9660   20.5380 O.2       4 ALP1        0.0000 
     38 CA          8.0025  -27.6350   16.7850 C.3       3 GLC5        0.0000 
     39 CA          9.7610  -26.5060   16.7360 C.3       9 GLL5        0.0000 
     40 CA          6.2440  -28.7640   16.8340 C.3       6 GLP5        0.0000 
     41 CA          8.8495  -24.9460   17.6105 C.3       3 GLC5        0.0000 
     42 CA          7.9380  -23.3860   18.4850 C.3       6 GLP5        0.0000 
     43 CA          8.9350  -25.0715   15.3995 C.3       3 GLC5        0.0000 
     44 CA          8.1090  -23.6370   14.0630 C.3       6 GLP5        0.0000 
     45 CA         13.8605  -26.4260   17.4390 C.3       3 GLC5        0.0000 
     46 CA         11.9230  -26.0740   17.9520 C.3       9 GLL5        0.0000 
     47 CA         15.7980  -26.7780   16.9260 C.3       6 GLP5        0.0000 
     48 CA         10.5550  -24.9175   18.8360 C.3       3 GLC5        0.0000 
     49 CA          9.1870  -23.7610   19.7200 C.3       6 GLP5        0.0000 
     50 CA         12.0840  -25.7995   19.8565 C.3       3 GLC5        0.0000 
     51 CA         12.2450  -25.5250   21.7610 C.3       6 GLP5        0.0000 
     52 N          11.2735  -24.5170   14.5750 N.am      2 SEC2        0.0000 
     53 N          11.4270  -25.1060   15.7760 N.am      8 SEL2        0.0000 
     54 N          11.1200  -23.9280   13.3740 N.am      5 SEP2        0.0000 
     55 O          12.6160  -24.5735   15.9155 O.2       1 ALC1        0.0000 
     56 O          11.4270  -25.1060   15.7760 O.2       7 ALL1        0.0000 
     57 O          13.8050  -24.0410   16.0550 O.2       4 ALP1        0.0000 
     58 CA         14.8770  -31.4975   14.9695 C.3       3 GLC5        0.0000 
     59 CA         14.1660  -30.8880   13.3810 C.3       9 GLL5        0.0000 
     60 CA         15.8730  -31.4940   16.3660 C.3       6 GLP5        0.0000 
     61 CA         15.7293  -29.7883   12.8687 C.3       3 GLC5        0.0000 
     62 CA         17.5080  -29.2800   12.0780 C.3       6 GLP5        0.0000 
     63 CA         14.5447  -30.6005   15.3880 C.3       3 GLC5        0.0000 
     64 CA         13.7350  -29.7050   13.9380 C.3       9 GLL5        0.0000 
     65 CA         12.7912  -28.3500   13.0950 C.3       3 GLC5        0.0000 
     66 CA         12.3660  -26.9930   11.7800 C.3       6 GLP5        0.0000 
     67 CA         12.3448  -30.1107   17.0230 C.3       3 GLC5        0.0000 
     68 CA         12.6980  -29.7090   14.8820 C.3       9 GLL5        0.0000 
     69 CA         12.2800  -29.9070   18.9700 C.3       6 GLP5        0.0000 
     70 CA         14.1073  -31.5065   15.6815 C.3       3 GLC5        0.0000 
     71 CA         12.1210  -30.9200   15.2700 C.3       9 GLL5        0.0000 
     72 CA         10.4653  -32.0980   14.5825 C.3       3 GLC5        0.0000 
     73 CA         12.5620  -32.1180   14.7240 C.3       9 GLL5        0.0000 
     74 CA         13.9153  -27.3825   16.3200 C.3       3 GLC5        0.0000 
     75 CA         12.2320  -28.4850   15.4740 C.3       9 GLL5        0.0000 
     76 CA         12.1562  -28.9470   17.3420 C.3       3 GLC5        0.0000 
     77 CA         11.8330  -27.4890   15.9540 C.3       9 GLL5        0.0000 
     78 CA         11.7637  -27.1175   14.2545 C.3       3 GLC5        0.0000 
     79 CA         11.4950  -26.2480   12.7950 C.3       6 GLP5        0.0000 
     80 CA         12.1425  -24.2003   17.1850 C.3       3 GLC5        0.0000 
     81 CA         11.2710  -26.2790   16.5880 C.3       9 GLL5        0.0000 
     82 CA         12.6880  -22.2240   17.1000 C.3       6 GLP5        0.0000 
     83 CA         11.0055  -26.3203   14.7285 C.3       3 GLC5        0.0000 
     84 CA         10.8723  -27.9046   18.1955 C.3       3 GLC5        0.0000 
@<TRIPOS>BOND
@<TRIPOS>SUBSTRUCTURE
     1 ALC1       35 GROUP        1 X    ALC  0     ROOT ALC X 1
     2 SEC2       23 GROUP        1 X    SEC  0     **** SEC X 2
     3 GLC5        1 GROUP        1 X    GLC  0     **** GLC X 6
     4 ALP1       37 GROUP        1 Y    ALP  0     ROOT ALP Y 8
     5 SEP2       25 GROUP        1 Y    SEP  0     **** SEP Y 9
     6 GLP5        3 GROUP        1 Y    GLP  0     **** GLP Y 13
     7 ALL1       36 GROUP        1 Z    ALL  0     ROOT ALL Z 15
     8 SEL2       24 GROUP        1 Z    SEL  0     **** SEL Z 16
     9 GLL5        2 GROUP        1 Z    GLL  0     **** GLL Z 20
@<TRIPOS>SET

