#    Name: 4o0y_2OO_1_ligand
#    Modification time : Tue Mar 25 13:26:43 2014

@<TRIPOS>MOLECULE
4o0y_2OO_1_ligand
   44    46     1     0     0
SMALL
NO_CHARGES


@<TRIPOS>ATOM
      1 C1         12.7220  -36.4820   11.6480 C.3       1 2OO601      0.0000 
      2 C2         13.6370  -36.3050   12.8630 C.3       1 2OO601      0.0000 
      3 N3         12.9440  -35.5820   13.9450 N.pl3     1 2OO601      0.0000 
      4 C4         13.0070  -34.2030   14.0560 C.2       1 2OO601      0.0000 
      5 N5         13.8230  -33.4120   13.4010 N.2       1 2OO601      0.0000 
      6 C6         13.5960  -32.1140   13.7650 C.ar      1 2OO601      0.0000 
      7 C7         14.1660  -30.8880   13.3810 C.ar      1 2OO601      0.0000 
      8 C8         13.7350  -29.7050   13.9380 C.ar      1 2OO601      0.0000 
      9 C9         12.6980  -29.7090   14.8820 C.ar      1 2OO601      0.0000 
     10 C10        12.1210  -30.9200   15.2700 C.ar      1 2OO601      0.0000 
     11 C11        12.5620  -32.1180   14.7240 C.ar      1 2OO601      0.0000 
     12 N12        12.2060  -33.4540   14.8880 N.pl3     1 2OO601      0.0000 
     13 C13        11.2380  -33.9540   15.7540 C.ar      1 2OO601      0.0000 
     14 N14        10.8910  -35.2480   15.7300 N.ar      1 2OO601      0.0000 
     15 C15         9.9740  -35.7140   16.5790 C.ar      1 2OO601      0.0000 
     16 N16         9.4060  -34.8900   17.4610 N.ar      1 2OO601      0.0000 
     17 C17         9.7680  -33.5960   17.4880 C.ar      1 2OO601      0.0000 
     18 N18        10.6810  -33.1350   16.6460 N.ar      1 2OO601      0.0000 
     19 N19         9.2070  -32.7110   18.3740 N.pl3     1 2OO601      0.0000 
     20 C20        12.2320  -28.4850   15.4740 C.1       1 2OO601      0.0000 
     21 C21        11.8330  -27.4890   15.9540 C.1       1 2OO601      0.0000 
     22 C22        11.2710  -26.2790   16.5880 C.3       1 2OO601      0.0000 
     23 C23         9.7610  -26.5060   16.7360 C.3       1 2OO601      0.0000 
     24 C24        11.9230  -26.0740   17.9520 C.3       1 2OO601      0.0000 
     25 O25        11.4270  -25.1060   15.7760 O.3       1 2OO601      0.0000 
     26 H          14.5300  -35.7569   12.5441 H         1 2OO601      0.0000 
     27 H          13.9525  -37.2970   13.2034 H         1 2OO601      0.0000 
     28 H          12.4101  -36.1504   14.6155 H         1 2OO601      0.0000 
     29 H          14.9172  -30.8878   12.6708 H         1 2OO601      0.0000 
     30 H          14.1671  -28.8104   13.6687 H         1 2OO601      0.0000 
     31 H          11.3616  -30.9208   15.9678 H         1 2OO601      0.0000 
     32 H           9.7007  -36.7235   16.5534 H         1 2OO601      0.0000 
     33 H           9.5176  -31.7629   18.3051 H         1 2OO601      0.0000 
     34 H           8.5367  -33.0915   19.0111 H         1 2OO601      0.0000 
     35 H          13.1801  -36.9720   10.9063 H         1 2OO601      0.0000 
     36 H          11.8976  -37.0000   11.8762 H         1 2OO601      0.0000 
     37 H          12.4225  -35.6028   11.2774 H         1 2OO601      0.0000 
     38 H           9.5593  -27.3060   17.3010 H         1 2OO601      0.0000 
     39 H           9.3079  -25.7236   17.1633 H         1 2OO601      0.0000 
     40 H           9.3191  -26.6532   15.8511 H         1 2OO601      0.0000 
     41 H          12.9130  -25.9551   17.8763 H         1 2OO601      0.0000 
     42 H          11.5652  -25.2640   18.4167 H         1 2OO601      0.0000 
     43 H          11.7669  -26.8531   18.5591 H         1 2OO601      0.0000 
     44 H          12.4042  -25.0636   15.5678 H         1 2OO601      0.0000 
@<TRIPOS>BOND
     1    2    1 1    
     2   35    1 1    
     3   36    1 1    
     4   37    1 1    
     5    3    2 1    
     6   26    2 1    
     7   27    2 1    
     8    4    3 1    
     9   28    3 1    
    10    5    4 2    
    11   12    4 1    
    12    6    5 1    
    13    7    6 ar   
    14   11    6 ar   
    15    8    7 ar   
    16   29    7 1    
    17    9    8 ar   
    18   30    8 1    
    19   10    9 ar   
    20   20    9 1    
    21   11   10 ar   
    22   31   10 1    
    23   12   11 1    
    24   13   12 1    
    25   14   13 ar   
    26   18   13 ar   
    27   15   14 ar   
    28   16   15 ar   
    29   32   15 1    
    30   17   16 ar   
    31   18   17 ar   
    32   19   17 1    
    33   33   19 1    
    34   34   19 1    
    35   21   20 3    
    36   22   21 1    
    37   23   22 1    
    38   24   22 1    
    39   25   22 1    
    40   38   23 1    
    41   39   23 1    
    42   40   23 1    
    43   41   24 1    
    44   42   24 1    
    45   43   24 1    
    46   44   25 1    
@<TRIPOS>SUBSTRUCTURE
     1 2OO601      1 GROUP   
@<TRIPOS>SET

