#    Name: 3qv2_SAH_1_INTS_M
#    Modification time : Tue Mar 25 10:10:24 2014

@<TRIPOS>MOLECULE
3qv2_SAH_1_INTS_M
   57     0     9     0     0
SMALL
NO_CHARGES


@<TRIPOS>ATOM
      1 O          12.9320  -21.8575   19.8065 O.2       1 ALC1        0.0000 
      2 O          12.9780  -20.5850   19.5840 O.2       7 ALL1        0.0000 
      3 O          12.8860  -23.1300   20.0290 O.2       4 ALP1        0.0000 
      4 CA         13.7685  -22.9575   19.2245 C.3       3 GLC5        0.0000 
      5 CA         15.4590  -21.6580   18.6950 C.3       9 GLL5        0.0000 
      6 CA         12.0780  -24.2570   19.7540 C.3       6 GLP5        0.0000 
      7 CA         16.8300  -21.0665   15.7890 C.3       3 GLC5        0.0000 
      8 CA         16.8390  -22.2110   17.6730 C.3       9 GLL5        0.0000 
      9 CA         16.8210  -19.9220   13.9050 C.3       6 GLP5        0.0000 
     10 N          15.2720  -16.7230   19.6090 N.am      2 SEC2        0.0000 
     11 N          14.5000  -17.5060   18.6990 N.am      8 SEL2        0.0000 
     12 N          16.0440  -15.9400   20.5190 N.am      5 SEP2        0.0000 
     13 N          11.9360  -17.0985   20.3815 N.am      2 SEC2        0.0000 
     14 N          12.4260  -17.9540   19.2950 N.am      8 SEL2        0.0000 
     15 N          11.4460  -16.2430   21.4680 N.am      5 SEP2        0.0000 
     16 CA         17.8550  -25.4800   17.8825 C.3       3 GLC5        0.0000 
     17 CA         17.8390  -23.3510   18.6050 C.3       9 GLL5        0.0000 
     18 CA         17.8710  -27.6090   17.1600 C.3       6 GLP5        0.0000 
     19 O          19.7925  -20.5930   20.5375 O.2       1 ALC1        0.0000 
     20 O          19.9440  -20.8380   19.0800 O.2       7 ALL1        0.0000 
     21 O          19.6410  -20.3480   21.9950 O.2       4 ALP1        0.0000 
     22 O          21.9230  -21.0910   20.9785 O.2       1 ALC1        0.0000 
     23 O          22.0150  -21.7840   19.8450 O.2       7 ALL1        0.0000 
     24 O          21.8310  -20.3980   22.1120 O.2       4 ALP1        0.0000 
     25 CA         19.6275  -24.7250   21.7270 C.3       3 GLC5        0.0000 
     26 CA         20.6530  -23.4950   20.6850 C.3       9 GLL5        0.0000 
     27 CA         18.6020  -25.9550   22.7690 C.3       6 GLP5        0.0000 
     28 CA         22.3485  -27.0690   25.1590 C.3       3 GLC5        0.0000 
     29 CA         23.2850  -26.3130   23.4810 C.3       9 GLL5        0.0000 
     30 CA         21.4120  -27.8250   26.8370 C.3       6 GLP5        0.0000 
     31 CA         22.2645  -28.2330   23.7500 C.3       3 GLC5        0.0000 
     32 CA         21.2440  -30.1530   24.0190 C.3       6 GLP5        0.0000 
     33 O          25.1640  -27.9330   24.4590 O.2       1 ALC1        0.0000 
     34 O          24.1070  -27.4970   23.5310 O.2       7 ALL1        0.0000 
     35 O          26.2210  -28.3690   25.3870 O.2       4 ALP1        0.0000 
     36 N          23.4250  -26.4560   25.9165 N.am      2 SEC2        0.0000 
     37 N          23.0640  -25.5770   24.5850 N.am      8 SEL2        0.0000 
     38 N          23.7860  -27.3350   27.2480 N.am      5 SEP2        0.0000 
     39 CA         21.9060  -22.5940   24.7725 C.3       3 GLC5        0.0000 
     40 CA         22.3050  -24.4730   24.5620 C.3       9 GLL5        0.0000 
     41 CA         21.5070  -20.7150   24.9830 C.3       6 GLP5        0.0000 
     42 CA         23.9880  -23.7620   24.6495 C.3       3 GLC5        0.0000 
     43 CA         25.6710  -23.0510   24.7370 C.3       6 GLP5        0.0000 
     44 CA         20.9420  -25.3105   25.4960 C.3       3 GLC5        0.0000 
     45 CA         19.5790  -26.1480   26.4300 C.3       6 GLP5        0.0000 
     46 CA         23.6360  -23.7575   22.2755 C.3       3 GLC5        0.0000 
     47 CA         21.9150  -24.7480   22.2830 C.3       9 GLL5        0.0000 
     48 CA         25.3570  -22.7670   22.2680 C.3       6 GLP5        0.0000 
     49 CA         15.9770  -18.9523   20.1258 C.3       3 GLC5        0.0000 
     50 CA         15.2880  -20.1700   18.8820 C.3       9 GLL5        0.0000 
     51 CA         17.2640  -17.9890   20.9730 C.3       6 GLP5        0.0000 
     52 CA         17.6273  -23.5817   20.8073 C.3       3 GLC5        0.0000 
     53 CA         18.7920  -22.7980   19.6000 C.3       9 GLL5        0.0000 
     54 CA         16.9390  -24.0890   22.5120 C.3       6 GLP5        0.0000 
     55 CA         24.5038  -25.1007   22.4178 C.3       3 GLC5        0.0000 
     56 CA         22.7000  -25.9000   22.2820 C.3       9 GLL5        0.0000 
     57 CA         26.0150  -24.0950   21.9540 C.3       6 GLP5        0.0000 
@<TRIPOS>BOND
@<TRIPOS>SUBSTRUCTURE
     1 ALC1        1 GROUP        1 X    ALC  0     ROOT ALC X 1
     2 SEC2       10 GROUP        1 X    SEC  0     **** SEC X 2
     3 GLC5        4 GROUP        1 X    GLC  0     **** GLC X 6
     4 ALP1        3 GROUP        1 Y    ALP  0     ROOT ALP Y 8
     5 SEP2       12 GROUP        1 Y    SEP  0     **** SEP Y 9
     6 GLP5        6 GROUP        1 Y    GLP  0     **** GLP Y 13
     7 ALL1        2 GROUP        1 Z    ALL  0     ROOT ALL Z 15
     8 SEL2       11 GROUP        1 Z    SEL  0     **** SEL Z 16
     9 GLL5        5 GROUP        1 Z    GLL  0     **** GLL Z 20
@<TRIPOS>SET

