#    Name: 3qv2_SAH_1_ligand
#    Modification time : Tue Mar 25 10:10:25 2014

@<TRIPOS>MOLECULE
3qv2_SAH_1_ligand
   46    48     1     0     0
SMALL
NO_CHARGES


@<TRIPOS>ATOM
      1 N          12.9780  -20.5850   19.5840 N.4       1 SAH323      0.0000 
      2 CA         14.0920  -19.6610   19.6750 C.3       1 SAH323      0.0000 
      3 CB         15.2880  -20.1700   18.8820 C.3       1 SAH323      0.0000 
      4 CG         15.4590  -21.6580   18.6950 C.3       1 SAH323      0.0000 
      5 SD         16.8390  -22.2110   17.6730 S.3       1 SAH323      0.0000 
      6 C          13.6520  -18.3010   19.1950 C.2       1 SAH323      0.0000 
      7 O          14.5000  -17.5060   18.6990 O.co2     1 SAH323      0.0000 
      8 OXT        12.4260  -17.9540   19.2950 O.co2     1 SAH323      0.0000 
      9 C5'        17.8390  -23.3510   18.6050 C.3       1 SAH323      0.0000 
     10 C4'        18.7920  -22.7980   19.6000 C.3       1 SAH323      0.0000 
     11 O4'        19.2650  -23.8390   20.3810 O.3       1 SAH323      0.0000 
     12 C3'        19.9430  -22.2140   18.9080 C.3       1 SAH323      0.0000 
     13 O3'        19.9440  -20.8380   19.0800 O.3       1 SAH323      0.0000 
     14 C2'        21.1280  -22.7870   19.4930 C.3       1 SAH323      0.0000 
     15 O2'        22.0150  -21.7840   19.8450 O.3       1 SAH323      0.0000 
     16 C1'        20.6530  -23.4950   20.6850 C.3       1 SAH323      0.0000 
     17 N9         21.4970  -24.6090   21.0110 N.pl3     1 SAH323      0.0000 
     18 C8         21.9740  -25.5930   20.2370 C.2       1 SAH323      0.0000 
     19 N7         22.7160  -26.3930   21.0200 N.2       1 SAH323      0.0000 
     20 C5         22.7000  -25.9000   22.2820 C.ar      1 SAH323      0.0000 
     21 C6         23.2850  -26.3130   23.4810 C.ar      1 SAH323      0.0000 
     22 N6         24.1070  -27.4970   23.5310 N.pl3     1 SAH323      0.0000 
     23 N1         23.0640  -25.5770   24.5850 N.ar      1 SAH323      0.0000 
     24 C2         22.3050  -24.4730   24.5620 C.ar      1 SAH323      0.0000 
     25 N3         21.7340  -24.0600   23.4250 N.ar      1 SAH323      0.0000 
     26 C4         21.9150  -24.7480   22.2830 C.ar      1 SAH323      0.0000 
     27 H          14.4005  -19.5635   20.7197 H         1 SAH323      0.0000 
     28 H          16.2236  -19.7579   19.3572 H         1 SAH323      0.0000 
     29 H          15.2684  -19.6804   17.8667 H         1 SAH323      0.0000 
     30 H          14.6036  -22.1341   18.1994 H         1 SAH323      0.0000 
     31 H          15.6417  -22.1951   19.6342 H         1 SAH323      0.0000 
     32 H          18.3311  -23.9346   17.8039 H         1 SAH323      0.0000 
     33 H          17.0755  -24.0159   19.0517 H         1 SAH323      0.0000 
     34 H          18.3017  -22.0479   20.1822 H         1 SAH323      0.0000 
     35 H          19.8904  -22.4888   17.8632 H         1 SAH323      0.0000 
     36 H          21.5520  -23.5009   18.8138 H         1 SAH323      0.0000 
     37 H          20.6449  -22.7629   21.5089 H         1 SAH323      0.0000 
     38 H          21.8156  -25.7071   19.2952 H         1 SAH323      0.0000 
     39 H          24.4619  -27.7486   24.4314 H         1 SAH323      0.0000 
     40 H          24.2537  -27.9679   22.6611 H         1 SAH323      0.0000 
     41 H          22.1574  -23.9266   25.4469 H         1 SAH323      0.0000 
     42 H          12.3830  -20.3742   18.8084 H         1 SAH323      0.0000 
     43 H          13.2869  -21.5290   19.4683 H         1 SAH323      0.0000 
     44 H          12.4082  -20.5618   20.4054 H         1 SAH323      0.0000 
     45 H          19.8639  -20.7007   20.0673 H         1 SAH323      0.0000 
     46 H          21.7125  -21.4760   20.7470 H         1 SAH323      0.0000 
@<TRIPOS>BOND
     1    2    1 1    
     2   42    1 1    
     3   43    1 1    
     4   44    1 1    
     5    3    2 1    
     6    6    2 1    
     7   27    2 1    
     8    4    3 1    
     9   28    3 1    
    10   29    3 1    
    11    5    4 1    
    12   30    4 1    
    13   31    4 1    
    14    9    5 1    
    15    7    6 ar   
    16    8    6 ar   
    17   10    9 1    
    18   32    9 1    
    19   33    9 1    
    20   11   10 1    
    21   12   10 1    
    22   34   10 1    
    23   16   11 1    
    24   13   12 1    
    25   14   12 1    
    26   35   12 1    
    27   45   13 1    
    28   15   14 1    
    29   16   14 1    
    30   36   14 1    
    31   46   15 1    
    32   17   16 1    
    33   37   16 1    
    34   18   17 1    
    35   26   17 1    
    36   19   18 2    
    37   38   18 1    
    38   20   19 1    
    39   21   20 ar   
    40   26   20 ar   
    41   22   21 1    
    42   23   21 ar   
    43   39   22 1    
    44   40   22 1    
    45   24   23 ar   
    46   25   24 ar   
    47   41   24 1    
    48   26   25 ar   
@<TRIPOS>SUBSTRUCTURE
     1 SAH323      1 GROUP   
@<TRIPOS>SET

