#    Name: 4at4_T6E_1_INTS_M
#    Modification time : Tue Mar 25 06:13:40 2014

@<TRIPOS>MOLECULE
4at4_T6E_1_INTS_M
   84     0     9     0     0
SMALL
NO_CHARGES


@<TRIPOS>ATOM
      1 CA         52.5900   29.8345   13.4310 C.3       3 GLC5        0.0000 
      2 CA         52.9060   28.6960   15.3230 C.3       9 GLL5        0.0000 
      3 CA         52.2740   30.9730   11.5390 C.3       6 GLP5        0.0000 
      4 N          52.7510   28.4920   12.6345 N.am      2 SEC2        0.0000 
      5 N          52.5210   28.3140   14.0220 N.am      8 SEL2        0.0000 
      6 N          52.9810   28.6700   11.2470 N.am      5 SEP2        0.0000 
      7 O          54.2355   30.4165   14.3600 O.2       1 ALC1        0.0000 
      8 O          54.0990   29.3550   15.4090 O.2       7 ALL1        0.0000 
      9 O          54.3720   31.4780   13.3110 O.2       4 ALP1        0.0000 
     10 CA         51.7920   29.3065   12.7260 C.3       3 GLC5        0.0000 
     11 CA         51.3100   27.6400   13.9130 C.3       9 GLL5        0.0000 
     12 CA         52.3575   27.5570   12.2185 C.3       3 GLC5        0.0000 
     13 CA         53.4050   27.4740   10.5240 C.3       6 GLP5        0.0000 
     14 CA         52.9975   26.6565   14.4300 C.3       3 GLC5        0.0000 
     15 CA         54.6850   25.6730   14.9470 C.3       6 GLP5        0.0000 
     16 CA         51.1340   30.8800   19.7230 C.3       3 GLC5        0.0000 
     17 CA         53.2260   30.5790   19.1240 C.3       9 GLL5        0.0000 
     18 CA         49.0420   31.1810   20.3220 C.3       6 GLP5        0.0000 
     19 CA         54.9725   32.4430   18.1395 C.3       3 GLC5        0.0000 
     20 CA         54.3920   31.0800   19.7780 C.3       9 GLL5        0.0000 
     21 CA         55.5530   33.8060   16.5010 C.3       6 GLP5        0.0000 
     22 CA         55.6730   27.1560   17.3060 C.3       3 GLC5        0.0000 
     23 CA         54.4370   28.4740   18.5830 C.3       9 GLL5        0.0000 
     24 CA         56.9090   25.8380   16.0290 C.3       6 GLP5        0.0000 
     25 N          58.7965   28.1150   20.5095 N.am      2 SEC2        0.0000 
     26 N          58.4690   29.3570   19.9430 N.am      8 SEL2        0.0000 
     27 N          59.1240   26.8730   21.0760 N.am      5 SEP2        0.0000 
     28 CA         60.3805   29.8905   18.8850 C.3       3 GLC5        0.0000 
     29 CA         61.1920   30.1110   20.9630 C.3       9 GLL5        0.0000 
     30 CA         59.5690   29.6700   16.8070 C.3       6 GLP5        0.0000 
     31 CA         60.6285   28.3470   19.9180 C.3       3 GLC5        0.0000 
     32 CA         60.0650   26.5830   18.8730 C.3       6 GLP5        0.0000 
     33 CA         63.3020   31.7350   20.7460 C.3       3 GLC5        0.0000 
     34 CA         64.3100   29.8940   20.0380 C.3       9 GLL5        0.0000 
     35 CA         62.2940   33.5760   21.4540 C.3       6 GLP5        0.0000 
     36 CA         66.2100   29.3970   20.0260 C.3       3 GLC5        0.0000 
     37 CA         68.1100   28.9000   20.0140 C.3       6 GLP5        0.0000 
     38 CA         63.3100   26.3090   19.1760 C.3       3 GLC5        0.0000 
     39 CA         62.9270   28.3790   19.5790 C.3       9 GLL5        0.0000 
     40 CA         63.6930   24.2390   18.7730 C.3       6 GLP5        0.0000 
     41 CA         61.4960   27.4810   19.2260 C.3       3 GLC5        0.0000 
     42 CA         65.9005   27.3390   20.8135 C.3       3 GLC5        0.0000 
     43 CA         64.2400   28.1640   21.2110 C.3       9 GLL5        0.0000 
     44 CA         67.5610   26.5140   20.4160 C.3       6 GLP5        0.0000 
     45 CA         59.9800   33.1830   23.1170 C.3       3 GLC5        0.0000 
     46 CA         59.5760   31.3910   24.0080 C.3       9 GLL5        0.0000 
     47 CA         60.3840   34.9750   22.2260 C.3       6 GLP5        0.0000 
     48 CA         50.0700   29.6770   19.4405 C.3       3 GLC5        0.0000 
     49 CA         51.0980   28.1730   18.5590 C.3       9 GLL5        0.0000 
     50 CA         53.5823   27.1100   15.4215 C.3       3 GLC5        0.0000 
     51 CA         48.7793   28.6972   16.6770 C.3       3 GLC5        0.0000 
     52 CA         50.8210   27.7030   16.1800 C.3       9 GLL5        0.0000 
     53 CA         47.1940   29.8370   16.4640 C.3       6 GLP5        0.0000 
     54 CA         51.6031   30.0415   15.8410 C.3       3 GLC5        0.0000 
     55 CA         51.5560   31.9580   15.6440 C.3       6 GLP5        0.0000 
     56 CA         52.2612   30.8636   17.1537 C.3       3 GLC5        0.0000 
     57 CA         52.1560   28.6440   17.8690 C.3       9 GLL5        0.0000 
     58 CA         53.5935   31.9512   21.0800 C.3       3 GLC5        0.0000 
     59 CA         53.3780   33.0730   22.7090 C.3       6 GLP5        0.0000 
     60 CA         54.9952   27.6843   20.7075 C.3       3 GLC5        0.0000 
     61 CA         55.5880   28.9590   19.2270 C.3       9 GLL5        0.0000 
     62 CA         54.9780   26.6520   22.5100 C.3       6 GLP5        0.0000 
     63 CA         61.4942   31.9895   21.4198 C.3       3 GLC5        0.0000 
     64 CA         60.1970   30.6950   21.8080 C.3       9 GLL5        0.0000 
     65 CA         60.2698   28.8055   22.4072 C.3       3 GLC5        0.0000 
     66 CA         59.8450   27.2080   23.4290 C.3       6 GLP5        0.0000 
     67 CA         61.7007   32.1052   22.4710 C.3       3 GLC5        0.0000 
     68 CA         60.4830   30.8460   23.2130 C.3       9 GLL5        0.0000 
     69 CA         62.4262   31.6672   21.8295 C.3       3 GLC5        0.0000 
     70 CA         62.6990   29.8350   22.8990 C.3       9 GLL5        0.0000 
     71 CA         61.2018   28.4832   22.8170 C.3       3 GLC5        0.0000 
     72 CA         62.4180   29.6820   21.5110 C.3       9 GLL5        0.0000 
     73 CA         65.1953   30.8443   20.7295 C.3       3 GLC5        0.0000 
     74 CA         63.4610   29.0530   20.6080 C.3       9 GLL5        0.0000 
     75 CA         66.5050   32.2150   21.1360 C.3       6 GLP5        0.0000 
     76 CA         64.9862   28.7342   22.4698 C.3       3 GLC5        0.0000 
     77 CA         66.1220   28.8600   24.0300 C.3       6 GLP5        0.0000 
     78 CA         64.0246   29.6791   18.2415 C.3       3 GLC5        0.0000 
     79 CA         64.6430   30.4320   16.5320 C.3       6 GLP5        0.0000 
     80 CA         63.9315   26.7715   21.5141 C.3       3 GLC5        0.0000 
     81 CA         64.1460   25.1030   22.3760 C.3       6 GLP5        0.0000 
     82 CA         60.0934   29.1104   23.5885 C.3       3 GLC5        0.0000 
     83 CA         49.2005   27.6782   19.6367 C.3       3 GLC5        0.0000 
     84 CA         47.8980   27.5640   21.1940 C.3       6 GLP5        0.0000 
@<TRIPOS>BOND
@<TRIPOS>SUBSTRUCTURE
     1 ALC1        7 GROUP        1 X    ALC  0     ROOT ALC X 1
     2 SEC2        4 GROUP        1 X    SEC  0     **** SEC X 2
     3 GLC5        1 GROUP        1 X    GLC  0     **** GLC X 6
     4 ALP1        9 GROUP        1 Y    ALP  0     ROOT ALP Y 8
     5 SEP2        6 GROUP        1 Y    SEP  0     **** SEP Y 9
     6 GLP5        3 GROUP        1 Y    GLP  0     **** GLP Y 13
     7 ALL1        8 GROUP        1 Z    ALL  0     ROOT ALL Z 15
     8 SEL2        5 GROUP        1 Z    SEL  0     **** SEL Z 16
     9 GLL5        2 GROUP        1 Z    GLL  0     **** GLL Z 20
@<TRIPOS>SET

