#    Name: 4at4_T6E_1_ligand
#    Modification time : Tue Mar 25 06:13:40 2014

@<TRIPOS>MOLECULE
4at4_T6E_1_ligand
   44    47     1     0     0
SMALL
NO_CHARGES


@<TRIPOS>ATOM
      1 C4         52.9060   28.6960   15.3230 C.ar      1 T6E1839     0.0000 
      2 C5         52.0530   28.3980   16.4690 C.ar      1 T6E1839     0.0000 
      3 C6         50.8210   27.7030   16.1800 C.ar      1 T6E1839     0.0000 
      4 N1         50.4080   27.3150   14.9240 N.ar      1 T6E1839     0.0000 
      5 N3         52.5210   28.3140   14.0220 N.ar      1 T6E1839     0.0000 
      6 NBF        54.0990   29.3550   15.4090 N.pl3     1 T6E1839     0.0000 
      7 C2         51.3100   27.6400   13.9130 C.ar      1 T6E1839     0.0000 
      8 CBB        52.1560   28.6440   17.8690 C.2       1 T6E1839     0.0000 
      9 CAZ        53.2580   29.2750   18.5370 C.ar      1 T6E1839     0.0000 
     10 CAO        53.2260   30.5790   19.1240 C.ar      1 T6E1839     0.0000 
     11 CAM        54.3920   31.0800   19.7780 C.ar      1 T6E1839     0.0000 
     12 CAN        54.4370   28.4740   18.5830 C.ar      1 T6E1839     0.0000 
     13 CAL        55.5880   28.9590   19.2270 C.ar      1 T6E1839     0.0000 
     14 CAX        55.5870   30.2810   19.8280 C.ar      1 T6E1839     0.0000 
     15 NAT        56.7420   30.8180   20.5000 N.am      1 T6E1839     0.0000 
     16 CAV        58.0810   30.3500   20.5270 C.2       1 T6E1839     0.0000 
     17 OAD        58.4690   29.3570   19.9430 O.2       1 T6E1839     0.0000 
     18 NAU        58.9450   31.1410   21.3110 N.am      1 T6E1839     0.0000 
     19 CAY        60.1970   30.6950   21.8080 C.ar      1 T6E1839     0.0000 
     20 CAP        61.1920   30.1110   20.9630 C.ar      1 T6E1839     0.0000 
     21 CAJ        60.4830   30.8460   23.2130 C.ar      1 T6E1839     0.0000 
     22 CAH        61.7320   30.4230   23.7630 C.ar      1 T6E1839     0.0000 
     23 CAK        62.6990   29.8350   22.8990 C.ar      1 T6E1839     0.0000 
     24 CBA        62.4180   29.6820   21.5110 C.ar      1 T6E1839     0.0000 
     25 CBG        63.4610   29.0530   20.6080 C.3       1 T6E1839     0.0000 
     26 FAF        64.3100   29.8940   20.0380 F         1 T6E1839     0.0000 
     27 FAG        62.9270   28.3790   19.5790 F         1 T6E1839     0.0000 
     28 FAE        64.2400   28.1640   21.2110 F         1 T6E1839     0.0000 
     29 F1         59.5760   31.3910   24.0080 F         1 T6E1839     0.0000 
     30 S          49.9080   27.4120   17.6000 S.3       1 T6E1839     0.0000 
     31 C8         51.0980   28.1730   18.5590 C.2       1 T6E1839     0.0000 
     32 H          54.5874   29.2693   16.2773 H         1 T6E1839     0.0000 
     33 H          54.3793   29.8654   14.5961 H         1 T6E1839     0.0000 
     34 H          51.0298   27.3256   12.9104 H         1 T6E1839     0.0000 
     35 H          52.3862   31.1389   19.0757 H         1 T6E1839     0.0000 
     36 H          54.3825   31.9980   20.2084 H         1 T6E1839     0.0000 
     37 H          54.4355   27.5530   18.1469 H         1 T6E1839     0.0000 
     38 H          56.4349   28.3982   19.2834 H         1 T6E1839     0.0000 
     39 H          56.5503   31.7234   21.0743 H         1 T6E1839     0.0000 
     40 H          58.6476   32.1200   21.5434 H         1 T6E1839     0.0000 
     41 H          61.0064   30.0090   19.9669 H         1 T6E1839     0.0000 
     42 H          61.9231   30.5398   24.7459 H         1 T6E1839     0.0000 
     43 H          63.5927   29.5234   23.2736 H         1 T6E1839     0.0000 
     44 H          50.8711   28.1759   19.4865 H         1 T6E1839     0.0000 
@<TRIPOS>BOND
     1    2    1 ar   
     2    5    1 ar   
     3    6    1 1    
     4    3    2 ar   
     5    8    2 1    
     6    4    3 ar   
     7   30    3 1    
     8    7    4 ar   
     9    7    5 ar   
    10   32    6 1    
    11   33    6 1    
    12   34    7 1    
    13    9    8 1    
    14   31    8 2    
    15   10    9 ar   
    16   12    9 ar   
    17   11   10 ar   
    18   35   10 1    
    19   14   11 ar   
    20   36   11 1    
    21   13   12 ar   
    22   37   12 1    
    23   14   13 ar   
    24   38   13 1    
    25   15   14 1    
    26   16   15 am   
    27   39   15 1    
    28   17   16 2    
    29   18   16 am   
    30   19   18 1    
    31   40   18 1    
    32   20   19 ar   
    33   21   19 ar   
    34   24   20 ar   
    35   41   20 1    
    36   22   21 ar   
    37   29   21 1    
    38   23   22 ar   
    39   42   22 1    
    40   24   23 ar   
    41   43   23 1    
    42   25   24 1    
    43   26   25 1    
    44   27   25 1    
    45   28   25 1    
    46   31   30 1    
    47   44   31 1    
@<TRIPOS>SUBSTRUCTURE
     1 T6E1839     1 GROUP   
@<TRIPOS>SET

