#    Name: 4deg_0JJ_1_INTS_M
#    Modification time : Tue Mar 25 09:39:01 2014

@<TRIPOS>MOLECULE
4deg_0JJ_1_INTS_M
   66     0     6     0     0
SMALL
NO_CHARGES


@<TRIPOS>ATOM
      1 CA         15.7285   12.1080   61.5765 C.3       2 GLC5        0.0000 
      2 CA         14.0840   11.3520   60.3370 C.3       6 GLL5        0.0000 
      3 CA         17.3730   12.8640   62.8160 C.3       4 GLP5        0.0000 
      4 CA         14.1840   12.5065   58.4895 C.3       2 GLC5        0.0000 
      5 CA         14.2840   13.6610   56.6420 C.3       4 GLP5        0.0000 
      6 CA         17.0925    8.8610   56.8670 C.3       2 GLC5        0.0000 
      7 CA         17.1070   10.7170   57.9590 C.3       6 GLL5        0.0000 
      8 CA         17.0780    7.0050   55.7750 C.3       4 GLP5        0.0000 
      9 CA         19.1235   11.8355   59.3685 C.3       2 GLC5        0.0000 
     10 CA         17.1360   12.3230   58.4940 C.3       6 GLL5        0.0000 
     11 CA         21.1110   11.3480   60.2430 C.3       4 GLP5        0.0000 
     12 CA         16.2090   14.0920   57.6375 C.3       2 GLC5        0.0000 
     13 CA         18.1340   14.5230   58.6330 C.3       6 GLL5        0.0000 
     14 CA         20.7095   16.4310   58.5620 C.3       2 GLC5        0.0000 
     15 CA         19.1030   15.4120   58.1880 C.3       6 GLL5        0.0000 
     16 CA         22.3160   17.4500   58.9360 C.3       4 GLP5        0.0000 
     17 CA         18.7695   17.1560   57.4695 C.3       2 GLC5        0.0000 
     18 CA         18.4360   18.9000   56.7510 C.3       4 GLP5        0.0000 
     19 N          20.9480   17.0600   56.7105 N.am      1 SEC2        0.0000 
     20 N          21.0150   15.5230   56.5780 N.am      5 SEL2        0.0000 
     21 N          20.8810   18.5970   56.8430 N.am      3 SEP2        0.0000 
     22 CA         20.2595   10.5370   54.2220 C.3       2 GLC5        0.0000 
     23 CA         21.1820   12.2970   54.9790 C.3       6 GLL5        0.0000 
     24 CA         19.3370    8.7770   53.4650 C.3       4 GLP5        0.0000 
     25 CA         22.8075   12.7560   54.1415 C.3       2 GLC5        0.0000 
     26 CA         24.4330   13.2150   53.3040 C.3       4 GLP5        0.0000 
     27 CA         19.4560   13.1710   54.5290 C.3       2 GLC5        0.0000 
     28 CA         17.7300   14.0450   54.0790 C.3       4 GLP5        0.0000 
     29 CA         23.8990   12.2870   54.9815 C.3       2 GLC5        0.0000 
     30 CA         23.3650   11.3590   56.6590 C.3       6 GLL5        0.0000 
     31 CA         26.1770    9.7215   58.0695 C.3       2 GLC5        0.0000 
     32 CA         24.3600   10.9030   57.5270 C.3       6 GLL5        0.0000 
     33 CA         27.9940    8.5400   58.6120 C.3       4 GLP5        0.0000 
     34 CA         25.0385   11.5195   59.1735 C.3       2 GLC5        0.0000 
     35 CA         25.7170   12.1360   60.8200 C.3       4 GLP5        0.0000 
     36 CA         18.8100    7.4745   57.0350 C.3       2 GLC5        0.0000 
     37 CA         20.5420    7.9440   58.2950 C.3       6 GLL5        0.0000 
     38 CA         23.7210    5.5235   60.1565 C.3       2 GLC5        0.0000 
     39 CA         22.0430    6.1810   61.1190 C.3       6 GLL5        0.0000 
     40 CA         25.3990    4.8660   59.1940 C.3       4 GLP5        0.0000 
     41 CA         21.3905    7.8025   62.2500 C.3       2 GLC5        0.0000 
     42 CA         20.7380    9.4240   63.3810 C.3       4 GLP5        0.0000 
     43 CA         16.9902   12.6360   60.8565 C.3       2 GLC5        0.0000 
     44 CA         15.5706   12.6118   57.5350 C.3       2 GLC5        0.0000 
     45 CA         16.0790   12.4930   59.3000 C.3       6 GLL5        0.0000 
     46 CA         17.8882   16.4608   59.5187 C.3       2 GLC5        0.0000 
     47 CA         17.1580   17.9540   60.6270 C.3       4 GLP5        0.0000 
     48 CA         20.1352   13.9648   59.0538 C.3       2 GLC5        0.0000 
     49 CA         21.6520   12.9620   59.6970 C.3       4 GLP5        0.0000 
     50 CA         21.8735    9.0493   55.3860 C.3       2 GLC5        0.0000 
     51 CA         22.1260   10.7110   56.6400 C.3       6 GLL5        0.0000 
     52 CA         21.7160    7.9310   53.7080 C.3       4 GLP5        0.0000 
     53 CA         21.5710   10.7578   58.6535 C.3       2 GLC5        0.0000 
     54 CA         22.7572   12.0465   58.3950 C.3       2 GLC5        0.0000 
     55 CA         24.4094    9.7285   56.1576 C.3       2 GLC5        0.0000 
     56 CA         25.2660    8.4880   55.2270 C.3       4 GLP5        0.0000 
     57 CA         23.8597    8.9525   56.5682 C.3       2 GLC5        0.0000 
     58 CA         22.9710    9.2100   58.3310 C.3       6 GLL5        0.0000 
     59 CA         23.9623    9.8047   60.1230 C.3       2 GLC5        0.0000 
     60 CA         25.0560   10.9430   61.4890 C.3       4 GLP5        0.0000 
     61 CA         21.9898   10.0072   59.5000 C.3       2 GLC5        0.0000 
     62 CA         22.5506    7.2681   57.2318 C.3       2 GLC5        0.0000 
     63 CA         22.6990    5.3910   56.3410 C.3       4 GLP5        0.0000 
     64 CA         21.8672    6.5503   57.5355 C.3       2 GLC5        0.0000 
     65 CA         21.5290    7.4750   59.1650 C.3       6 GLL5        0.0000 
     66 CA         21.0733    9.5288   59.4865 C.3       2 GLC5        0.0000 
@<TRIPOS>BOND
@<TRIPOS>SUBSTRUCTURE
     1 SEC2       19 GROUP        1 X    SEC  0     ROOT SEC X 2
     2 GLC5        1 GROUP        1 X    GLC  0     **** GLC X 6
     3 SEP2       21 GROUP        1 Y    SEP  0     ROOT SEP Y 9
     4 GLP5        3 GROUP        1 Y    GLP  0     **** GLP Y 13
     5 SEL2       20 GROUP        1 Z    SEL  0     ROOT SEL Z 16
     6 GLL5        2 GROUP        1 Z    GLL  0     **** GLL Z 20
@<TRIPOS>SET

