#    Name: 4deg_0JJ_1_ligand
#    Modification time : Tue Mar 25 09:39:01 2014

@<TRIPOS>MOLECULE
4deg_0JJ_1_ligand
   46    50     1     0     0
SMALL
NO_CHARGES


@<TRIPOS>ATOM
      1 C7         14.0840   11.3520   60.3370 C.3       1 0JJ1401     0.0000 
      2 C5         15.3310   11.3790   59.4520 C.2       1 0JJ1401     0.0000 
      3 C6         16.0790   12.4930   59.3000 C.2       1 0JJ1401     0.0000 
      4 N2         15.7410   10.2850   58.7950 N.2       1 0JJ1401     0.0000 
      5 S1         17.1070   10.7170   57.9590 S.3       1 0JJ1401     0.0000 
      6 C4         17.1360   12.3230   58.4940 C.2       1 0JJ1401     0.0000 
      7 C3         18.1040   13.2370   58.0870 C.2       1 0JJ1401     0.0000 
      8 C1         18.1340   14.5230   58.6330 C.2       1 0JJ1401     0.0000 
      9 C2         19.1030   15.4120   58.1880 C.2       1 0JJ1401     0.0000 
     10 N1         18.9980   12.8780   57.1400 N.2       1 0JJ1401     0.0000 
     11 N3         19.8710   13.6580   56.7320 N.pl3     1 0JJ1401     0.0000 
     12 C8         19.9880   14.9600   57.2140 C.2       1 0JJ1401     0.0000 
     13 N4         21.0150   15.5230   56.5780 N.2       1 0JJ1401     0.0000 
     14 N5         21.5370   14.7360   55.7710 N.2       1 0JJ1401     0.0000 
     15 C9         20.8970   13.5640   55.7960 C.2       1 0JJ1401     0.0000 
     16 C10        21.1820   12.2970   54.9790 C.3       1 0JJ1401     0.0000 
     17 N6         21.1230   11.0950   55.8350 N.pl3     1 0JJ1401     0.0000 
     18 C11        22.1260   10.7110   56.6400 C.ar      1 0JJ1401     0.0000 
     19 C12        23.3650   11.3590   56.6590 C.ar      1 0JJ1401     0.0000 
     20 C13        24.3600   10.9030   57.5270 C.ar      1 0JJ1401     0.0000 
     21 N7         24.1480    9.8630   58.3260 N.pl3     1 0JJ1401     0.0000 
     22 C15        22.9710    9.2100   58.3310 C.ar      1 0JJ1401     0.0000 
     23 C16        22.7660    8.1230   59.1830 C.ar      1 0JJ1401     0.0000 
     24 C14        21.9360    9.6240   57.4880 C.ar      1 0JJ1401     0.0000 
     25 N8         20.7580    8.9810   57.4960 N.ar      1 0JJ1401     0.0000 
     26 C18        20.5420    7.9440   58.2950 C.ar      1 0JJ1401     0.0000 
     27 C17        21.5290    7.4750   59.1650 C.ar      1 0JJ1401     0.0000 
     28 O1         21.2300    6.3920   59.9540 O.3       1 0JJ1401     0.0000 
     29 C19        22.0430    6.1810   61.1190 C.3       1 0JJ1401     0.0000 
     30 H          15.8603   13.3601   59.7488 H         1 0JJ1401     0.0000 
     31 H          17.4575   14.7982   59.3421 H         1 0JJ1401     0.0000 
     32 H          19.1645   16.3510   58.5561 H         1 0JJ1401     0.0000 
     33 H          22.1721   12.3972   54.5244 H         1 0JJ1401     0.0000 
     34 H          20.4426   12.2334   54.1752 H         1 0JJ1401     0.0000 
     35 H          20.2294   10.5511   55.7714 H         1 0JJ1401     0.0000 
     36 H          23.5397   12.1557   56.0457 H         1 0JJ1401     0.0000 
     37 H          25.2750   11.4080   57.5254 H         1 0JJ1401     0.0000 
     38 H          24.9146    9.5356   58.9740 H         1 0JJ1401     0.0000 
     39 H          23.5064    7.8077   59.8075 H         1 0JJ1401     0.0000 
     40 H          19.6199    7.4447   58.2961 H         1 0JJ1401     0.0000 
     41 H          14.2979   11.5790   61.2871 H         1 0JJ1401     0.0000 
     42 H          13.3945   12.0068   60.0273 H         1 0JJ1401     0.0000 
     43 H          13.6511   10.4506   60.3413 H         1 0JJ1401     0.0000 
     44 H          23.0047    6.0451   60.8811 H         1 0JJ1401     0.0000 
     45 H          22.0032    6.9593   61.7456 H         1 0JJ1401     0.0000 
     46 H          21.7518    5.3748   61.6341 H         1 0JJ1401     0.0000 
@<TRIPOS>BOND
     1    2    1 1    
     2   41    1 1    
     3   42    1 1    
     4   43    1 1    
     5    3    2 1    
     6    4    2 2    
     7    6    3 2    
     8   30    3 1    
     9    5    4 1    
    10    6    5 1    
    11    7    6 1    
    12    8    7 1    
    13   10    7 2    
    14    9    8 2    
    15   31    8 1    
    16   12    9 1    
    17   32    9 1    
    18   11   10 1    
    19   12   11 1    
    20   15   11 1    
    21   13   12 2    
    22   14   13 1    
    23   15   14 2    
    24   16   15 1    
    25   17   16 1    
    26   33   16 1    
    27   34   16 1    
    28   18   17 1    
    29   35   17 1    
    30   19   18 ar   
    31   24   18 ar   
    32   20   19 ar   
    33   36   19 1    
    34   21   20 ar   
    35   37   20 1    
    36   22   21 ar   
    37   38   21 1    
    38   23   22 ar   
    39   24   22 ar   
    40   27   23 ar   
    41   39   23 1    
    42   25   24 ar   
    43   26   25 ar   
    44   27   26 ar   
    45   40   26 1    
    46   28   27 1    
    47   29   28 1    
    48   44   29 1    
    49   45   29 1    
    50   46   29 1    
@<TRIPOS>SUBSTRUCTURE
     1 0JJ1401     1 GROUP   
@<TRIPOS>SET

