#    Name: 2fzw_NAD_2_INTS_M
#    Modification time : Tue Mar 25 13:19:40 2014

@<TRIPOS>MOLECULE
2fzw_NAD_2_INTS_M
   78     0    12     0     0
SMALL
NO_CHARGES


@<TRIPOS>ATOM
      1 N          42.9850   34.3580   37.6340 N.am      2 SEC2        0.0000 
      2 N          42.5900   35.4890   36.8760 N.am     10 SEL2        0.0000 
      3 N          43.3800   33.2270   38.3920 N.am      6 SEP2        0.0000 
      4 CA         43.5720   37.5210   31.5355 C.3       4 GLC5        0.0000 
      5 CA         42.5220   37.0820   33.1390 C.3      12 GLL5        0.0000 
      6 CA         44.6220   37.9600   29.9320 C.3       8 GLP5        0.0000 
      7 O          41.5310   39.6390   32.4745 O.2       1 ALC1        0.0000 
      8 O          41.3410   39.1490   33.6650 O.2       9 ALL1        0.0000 
      9 O          41.7210   40.1290   31.2840 O.2       5 ALP1        0.0000 
     10 O          39.3655   39.0385   31.7255 O.2       1 ALC1        0.0000 
     11 O          39.1300   38.1060   32.7120 O.2       9 ALL1        0.0000 
     12 O          39.6010   39.9710   30.7390 O.2       5 ALP1        0.0000 
     13 CA         42.7735   37.4690   30.7290 C.3       4 GLC5        0.0000 
     14 CA         40.9250   36.9780   31.5260 C.3      12 GLL5        0.0000 
     15 CA         42.3550   35.7120   30.5315 C.3       4 GLC5        0.0000 
     16 CA         43.7850   34.4460   29.5370 C.3       8 GLP5        0.0000 
     17 CA         37.5895   35.6915   29.3185 C.3       4 GLC5        0.0000 
     18 CA         39.3650   35.0040   28.9160 C.3      12 GLL5        0.0000 
     19 CA         35.8140   36.3790   29.7210 C.3       8 GLP5        0.0000 
     20 CA         37.8675   36.1705   27.2700 C.3       4 GLC5        0.0000 
     21 CA         39.2090   34.7660   27.5690 C.3      12 GLL5        0.0000 
     22 CA         36.5260   37.5750   26.9710 C.3       8 GLP5        0.0000 
     23 CA         40.2475   33.3355   26.4385 C.3       4 GLC5        0.0000 
     24 CA         41.2860   31.9050   25.3080 C.3       8 GLP5        0.0000 
     25 CA         40.5065   38.6330   27.5605 C.3       4 GLC5        0.0000 
     26 CA         40.4550   36.8020   27.1420 C.3      12 GLL5        0.0000 
     27 CA         40.5580   40.4640   27.9790 C.3       8 GLP5        0.0000 
     28 CA         38.4905   37.1885   27.0565 C.3       4 GLC5        0.0000 
     29 CA         39.5940   37.6535   25.3545 C.3       4 GLC5        0.0000 
     30 CA         38.7330   38.5050   23.5670 C.3       8 GLP5        0.0000 
     31 CA         41.7465   35.7140   27.6875 C.3       4 GLC5        0.0000 
     32 CA         43.0380   34.6260   28.2330 C.3       8 GLP5        0.0000 
     33 CA         38.2990   36.8890   29.4160 C.3       4 GLC5        0.0000 
     34 CA         40.0330   36.1070   29.3450 C.3      12 GLL5        0.0000 
     35 CA         36.5650   37.6710   29.4870 C.3       8 GLP5        0.0000 
     36 NZ         47.3175   37.0855   39.3385 N.4       3 LYC4        0.0000 
     37 NZ         46.8860   36.1580   38.3710 N.4      11 LYL4        0.0000 
     38 NZ         49.0220   37.6690   40.4400 N.4       7 LYP4        0.0000 
     39 N          47.3175   37.0855   39.3385 N.am      2 SEC2        0.0000 
     40 N          46.8860   36.1580   38.3710 N.am     10 SEL2        0.0000 
     41 N          47.7490   38.0130   40.3060 N.am      6 SEP2        0.0000 
     42 N          48.2485   36.5520   38.9320 N.am      2 SEC2        0.0000 
     43 N          49.6110   36.9460   39.4930 N.am      6 SEP2        0.0000 
     44 N          48.3145   37.6125   35.9565 N.am      2 SEC2        0.0000 
     45 N          47.0280   36.8650   36.0430 N.am     10 SEL2        0.0000 
     46 N          49.6010   38.3600   35.8700 N.am      6 SEP2        0.0000 
     47 N          46.8645   37.1980   34.7310 N.am      2 SEC2        0.0000 
     48 N          46.7010   37.5310   33.4190 N.am      6 SEP2        0.0000 
     49 CA         48.3070   33.3080   32.2685 C.3       4 GLC5        0.0000 
     50 CA         48.4120   32.1290   34.0800 C.3      12 GLL5        0.0000 
     51 CA         48.2020   34.4870   30.4570 C.3       8 GLP5        0.0000 
     52 O          50.3510   31.6745   33.0475 O.2       1 ALC1        0.0000 
     53 O          49.8070   31.8610   34.2520 O.2       9 ALL1        0.0000 
     54 O          50.8950   31.4880   31.8430 O.2       5 ALP1        0.0000 
     55 CA         46.2495   31.8180   32.5610 C.3       4 GLC5        0.0000 
     56 CA         47.6550   30.8040   33.9800 C.3      12 GLL5        0.0000 
     57 CA         44.8440   32.8320   31.1420 C.3       8 GLP5        0.0000 
     58 CA         46.4850   29.9370   32.5705 C.3       4 GLC5        0.0000 
     59 CA         45.3150   29.0700   31.1610 C.3       8 GLP5        0.0000 
     60 CA         46.4530   30.4565   37.4780 C.3       4 GLC5        0.0000 
     61 CA         47.4060   30.4770   35.4620 C.3      12 GLL5        0.0000 
     62 CA         45.5000   30.4360   39.4940 C.3       8 GLP5        0.0000 
     63 CA         47.2510   26.8565   34.9505 C.3       4 GLC5        0.0000 
     64 CA         46.5220   28.2480   36.2350 C.3      12 GLL5        0.0000 
     65 CA         47.9800   25.4650   33.6660 C.3       8 GLP5        0.0000 
     66 CA         44.2760   30.3895   37.5850 C.3       4 GLC5        0.0000 
     67 CA         44.0530   29.2880   36.0280 C.3      12 GLL5        0.0000 
     68 CA         44.4990   31.4910   39.1420 C.3       8 GLP5        0.0000 
     69 CA         44.8385   31.3540   36.9565 C.3       4 GLC5        0.0000 
     70 CA         45.0520   30.0590   35.4620 C.3      12 GLL5        0.0000 
     71 CA         44.6250   32.6490   38.4510 C.3       8 GLP5        0.0000 
     72 CA         45.1835   29.5645   33.3115 C.3       4 GLC5        0.0000 
     73 CA         41.3490   35.0610   28.5134 C.3       4 GLC5        0.0000 
     74 CA         46.0395   32.9650   36.8843 C.3       4 GLC5        0.0000 
     75 CA         47.0790   33.9360   35.2210 C.3      12 GLL5        0.0000 
     76 CA         49.1545   34.1005   35.3019 C.3       4 GLC5        0.0000 
     77 CA         50.3760   35.4960   35.9050 C.3       8 GLP5        0.0000 
     78 CA         45.3084   29.2294   38.0354 C.3       4 GLC5        0.0000 
@<TRIPOS>BOND
@<TRIPOS>SUBSTRUCTURE
     1 ALC1        7 GROUP        1 X    ALC  0     ROOT ALC X 1
     2 SEC2        1 GROUP        1 X    SEC  0     **** SEC X 2
     3 LYC4       36 GROUP        1 X    LYC  0     **** LYC X 4
     4 GLC5        4 GROUP        1 X    GLC  0     **** GLC X 6
     5 ALP1        9 GROUP        1 Y    ALP  0     ROOT ALP Y 8
     6 SEP2        3 GROUP        1 Y    SEP  0     **** SEP Y 9
     7 LYP4       38 GROUP        1 Y    LYP  0     **** LYP Y 11
     8 GLP5        6 GROUP        1 Y    GLP  0     **** GLP Y 13
     9 ALL1        8 GROUP        1 Z    ALL  0     ROOT ALL Z 15
    10 SEL2        2 GROUP        1 Z    SEL  0     **** SEL Z 16
    11 LYL4       37 GROUP        1 Z    LYL  0     **** LYL Z 18
    12 GLL5        5 GROUP        1 Z    GLL  0     **** GLL Z 20
@<TRIPOS>SET

