#    Name: 2fzw_NAD_2_ligand
#    Modification time : Tue Mar 25 13:19:40 2014

@<TRIPOS>MOLECULE
2fzw_NAD_2_ligand
   70    74     1     0     0
SMALL
NO_CHARGES


@<TRIPOS>ATOM
      1 PA         43.7540   36.3670   36.6380 P.3       1 NAD2377     0.0000 
      2 O1A        42.5900   35.4890   36.8760 O.co2     1 NAD2377     0.0000 
      3 O2A        43.7530   37.5090   37.5630 O.co2     1 NAD2377     0.0000 
      4 O5B        43.7810   36.9110   35.1420 O.3       1 NAD2377     0.0000 
      5 C5B        43.2040   36.1030   34.0900 C.3       1 NAD2377     0.0000 
      6 C4B        42.5220   37.0820   33.1390 C.3       1 NAD2377     0.0000 
      7 O4B        42.1280   36.3540   31.9710 O.3       1 NAD2377     0.0000 
      8 C3B        41.2760   37.7230   33.8040 C.3       1 NAD2377     0.0000 
      9 O3B        41.3410   39.1490   33.6650 O.3       1 NAD2377     0.0000 
     10 C2B        40.1940   37.1550   32.8650 C.3       1 NAD2377     0.0000 
     11 O2B        39.1300   38.1060   32.7120 O.3       1 NAD2377     0.0000 
     12 C1B        40.9250   36.9780   31.5260 C.3       1 NAD2377     0.0000 
     13 N9A        40.2340   36.0220   30.6980 N.pl3     1 NAD2377     0.0000 
     14 C8A        39.6460   34.8130   31.0630 C.2       1 NAD2377     0.0000 
     15 N7A        39.0920   34.1550   29.9660 N.2       1 NAD2377     0.0000 
     16 C5A        39.3650   35.0040   28.9160 C.ar      1 NAD2377     0.0000 
     17 C6A        39.2090   34.7660   27.5690 C.ar      1 NAD2377     0.0000 
     18 N6A        38.5330   33.6910   27.1150 N.pl3     1 NAD2377     0.0000 
     19 N1A        39.7670   35.6750   26.6880 N.ar      1 NAD2377     0.0000 
     20 C2A        40.4550   36.8020   27.1420 C.ar      1 NAD2377     0.0000 
     21 N3A        40.6090   37.0420   28.5070 N.ar      1 NAD2377     0.0000 
     22 C4A        40.0330   36.1070   29.3450 C.ar      1 NAD2377     0.0000 
     23 O3         45.0450   35.4410   36.7620 O.3       1 NAD2377     0.0000 
     24 PN         46.5780   35.8170   36.9700 P.3       1 NAD2377     0.0000 
     25 O1N        46.8860   36.1580   38.3710 O.co2     1 NAD2377     0.0000 
     26 O2N        47.0280   36.8650   36.0430 O.co2     1 NAD2377     0.0000 
     27 O5D        47.2000   34.4230   36.5860 O.3       1 NAD2377     0.0000 
     28 C5D        47.0790   33.9360   35.2210 C.3       1 NAD2377     0.0000 
     29 C4D        47.8290   32.6260   35.4140 C.3       1 NAD2377     0.0000 
     30 O4D        46.9390   31.6840   35.9930 O.3       1 NAD2377     0.0000 
     31 C3D        48.4120   32.1290   34.0800 C.3       1 NAD2377     0.0000 
     32 O3D        49.8070   31.8610   34.2520 O.3       1 NAD2377     0.0000 
     33 C2D        47.6550   30.8040   33.9800 C.3       1 NAD2377     0.0000 
     34 O2D        48.5080   29.8140   33.3810 O.3       1 NAD2377     0.0000 
     35 C1D        47.4060   30.4770   35.4620 C.3       1 NAD2377     0.0000 
     36 N1N        46.3180   29.4550   35.4440 N.pl3     1 NAD2377     0.0000 
     37 C2N        46.5220   28.2480   36.2350 C.ar      1 NAD2377     0.0000 
     38 C3N        45.5070   27.6090   36.8260 C.ar      1 NAD2377     0.0000 
     39 C7N        45.6720   26.4510   37.4010 C.2       1 NAD2377     0.0000 
     40 O7N        46.8210   25.9920   37.5600 O.2       1 NAD2377     0.0000 
     41 N7N        44.6270   25.7170   37.7540 N.am      1 NAD2377     0.0000 
     42 C4N        44.2190   28.1170   36.6230 C.ar      1 NAD2377     0.0000 
     43 C5N        44.0530   29.2880   36.0280 C.ar      1 NAD2377     0.0000 
     44 C6N        45.0520   30.0590   35.4620 C.ar      1 NAD2377     0.0000 
     45 H          42.4590   35.4237   34.4724 H         1 NAD2377     0.0000 
     46 H          43.9599   35.5645   33.5411 H         1 NAD2377     0.0000 
     47 H          43.2149   37.8630   32.8970 H         1 NAD2377     0.0000 
     48 H          41.1577   37.3464   34.7378 H         1 NAD2377     0.0000 
     49 H          39.8933   36.2203   33.2173 H         1 NAD2377     0.0000 
     50 H          41.0887   37.8912   31.0967 H         1 NAD2377     0.0000 
     51 H          39.6244   34.4699   31.9710 H         1 NAD2377     0.0000 
     52 H          38.5047   33.5762   26.1220 H         1 NAD2377     0.0000 
     53 H          38.1202   33.1043   27.8117 H         1 NAD2377     0.0000 
     54 H          40.8540   37.4647   26.4587 H         1 NAD2377     0.0000 
     55 H          47.6050   34.5357   34.5438 H         1 NAD2377     0.0000 
     56 H          46.0855   33.7281   34.9666 H         1 NAD2377     0.0000 
     57 H          48.6656   32.8297   36.0850 H         1 NAD2377     0.0000 
     58 H          48.1417   32.7483   33.3300 H         1 NAD2377     0.0000 
     59 H          46.7509   30.9595   33.5045 H         1 NAD2377     0.0000 
     60 H          48.2738   30.1163   35.8732 H         1 NAD2377     0.0000 
     61 H          47.5055   27.9145   36.3114 H         1 NAD2377     0.0000 
     62 H          43.7283   26.0964   37.5340 H         1 NAD2377     0.0000 
     63 H          44.8316   24.8500   38.2084 H         1 NAD2377     0.0000 
     64 H          43.4136   27.5486   36.9520 H         1 NAD2377     0.0000 
     65 H          43.0541   29.6987   35.9672 H         1 NAD2377     0.0000 
     66 H          44.8962   30.9661   35.0959 H         1 NAD2377     0.0000 
     67 H          41.4889   39.3073   32.6887 H         1 NAD2377     0.0000 
     68 H          39.4217   38.7024   31.9642 H         1 NAD2377     0.0000 
     69 H          50.0542   31.2723   33.4823 H         1 NAD2377     0.0000 
     70 H          48.5969   30.0934   32.4250 H         1 NAD2377     0.0000 
@<TRIPOS>BOND
     1    2    1 ar   
     2    3    1 ar   
     3    4    1 1    
     4   23    1 1    
     5    5    4 1    
     6    6    5 1    
     7   45    5 1    
     8   46    5 1    
     9    7    6 1    
    10    8    6 1    
    11   47    6 1    
    12   12    7 1    
    13    9    8 1    
    14   10    8 1    
    15   48    8 1    
    16   67    9 1    
    17   11   10 1    
    18   12   10 1    
    19   49   10 1    
    20   68   11 1    
    21   13   12 1    
    22   50   12 1    
    23   14   13 1    
    24   22   13 1    
    25   15   14 2    
    26   51   14 1    
    27   16   15 1    
    28   17   16 ar   
    29   22   16 ar   
    30   18   17 1    
    31   19   17 ar   
    32   52   18 1    
    33   53   18 1    
    34   20   19 ar   
    35   21   20 ar   
    36   54   20 1    
    37   22   21 ar   
    38   24   23 1    
    39   25   24 ar   
    40   26   24 ar   
    41   27   24 1    
    42   28   27 1    
    43   29   28 1    
    44   55   28 1    
    45   56   28 1    
    46   30   29 1    
    47   31   29 1    
    48   57   29 1    
    49   35   30 1    
    50   32   31 1    
    51   33   31 1    
    52   58   31 1    
    53   69   32 1    
    54   34   33 1    
    55   35   33 1    
    56   59   33 1    
    57   70   34 1    
    58   36   35 1    
    59   60   35 1    
    60   37   36 ar   
    61   44   36 ar   
    62   38   37 ar   
    63   61   37 1    
    64   39   38 1    
    65   42   38 ar   
    66   40   39 2    
    67   41   39 am   
    68   62   41 1    
    69   63   41 1    
    70   43   42 ar   
    71   64   42 1    
    72   44   43 ar   
    73   65   43 1    
    74   66   44 1    
@<TRIPOS>SUBSTRUCTURE
     1 NAD2377     1 GROUP   
@<TRIPOS>SET

