#    Name: 3kc0_2T5_3_INTS_M
#    Modification time : Mon Mar 24 19:10:23 2014

@<TRIPOS>MOLECULE
3kc0_2T5_3_INTS_M
   50     0     9     0     0
SMALL
NO_CHARGES


@<TRIPOS>ATOM
      1 NZ         10.0720   65.6485   33.0430 N.4       2 LYC4        0.0000 
      2 NZ          9.8920   64.8270   31.9640 N.4       8 LYL4        0.0000 
      3 NZ         10.2520   66.4700   34.1220 N.4       5 LYP4        0.0000 
      4 N          10.5310   65.2680   30.7725 N.am      1 SEC2        0.0000 
      5 N           9.8920   64.8270   31.9640 N.am      7 SEL2        0.0000 
      6 N          11.1700   65.7090   29.5810 N.am      4 SEP2        0.0000 
      7 N          10.0720   65.6485   33.0430 N.am      1 SEC2        0.0000 
      8 N          10.2520   66.4700   34.1220 N.am      4 SEP2        0.0000 
      9 N          11.3065   62.9700   30.1350 N.am      1 SEC2        0.0000 
     10 N          10.2900   62.7250   30.7590 N.am      7 SEL2        0.0000 
     11 N          12.3230   63.2150   29.5110 N.am      4 SEP2        0.0000 
     12 NZ         10.1105   64.5770   33.6495 N.4       2 LYC4        0.0000 
     13 NZ          9.9690   62.6840   33.1770 N.4       8 LYL4        0.0000 
     14 N          10.8595   61.5055   33.3660 N.am      1 SEC2        0.0000 
     15 N           9.9690   62.6840   33.1770 N.am      7 SEL2        0.0000 
     16 N          11.7500   60.3270   33.5550 N.am      4 SEP2        0.0000 
     17 N           9.3630   62.6440   34.2795 N.am      1 SEC2        0.0000 
     18 N           8.7570   62.6040   35.3820 N.am      4 SEP2        0.0000 
     19 CA          6.4070   62.6970   30.1290 C.3       3 GLC5        0.0000 
     20 CA          7.7820   63.1580   31.6590 C.3       9 GLL5        0.0000 
     21 CA          5.0320   62.2360   28.5990 C.3       6 GLP5        0.0000 
     22 CA          8.3760   64.4790   30.1160 C.3       3 GLC5        0.0000 
     23 CA          8.9700   65.8000   28.5730 C.3       6 GLP5        0.0000 
     24 CA          8.2455   55.1800   30.6055 C.3       3 GLC5        0.0000 
     25 CA          6.6670   56.4880   30.9780 C.3       9 GLL5        0.0000 
     26 CA          9.8240   53.8720   30.2330 C.3       6 GLP5        0.0000 
     27 CA          5.4960   56.0475   29.5245 C.3       3 GLC5        0.0000 
     28 CA          4.3250   55.6070   28.0710 C.3       6 GLP5        0.0000 
     29 CA          7.0810   57.6000   29.2995 C.3       3 GLC5        0.0000 
     30 CA          7.4950   58.7120   27.6210 C.3       6 GLP5        0.0000 
     31 CA          7.5395   55.2700   32.5260 C.3       3 GLC5        0.0000 
     32 CA          8.4120   54.0520   34.0740 C.3       6 GLP5        0.0000 
     33 CA          5.3835   55.7780   32.1600 C.3       3 GLC5        0.0000 
     34 CA          4.1000   55.0680   33.3420 C.3       6 GLP5        0.0000 
     35 CA          5.5320   61.5410   30.1155 C.3       3 GLC5        0.0000 
     36 CA          5.8500   60.1970   31.5770 C.3       9 GLL5        0.0000 
     37 CA          6.6325   59.8140   33.2320 C.3       3 GLC5        0.0000 
     38 CA          6.2140   61.4950   31.6870 C.3       9 GLL5        0.0000 
     39 CA          7.2330   58.7820   34.8320 C.3       6 GLP5        0.0000 
     40 CA          4.5432   61.2687   30.2360 C.3       3 GLC5        0.0000 
     41 CA          4.5430   59.8340   31.7370 C.3       9 GLL5        0.0000 
     42 CA          4.8143   62.2608   30.3205 C.3       3 GLC5        0.0000 
     43 CA          5.2620   62.4690   31.9610 C.3       9 GLL5        0.0000 
     44 CA          4.6795   56.8680   29.7570 C.3       3 GLC5        0.0000 
     45 CA          4.3060   58.2980   31.5790 C.3       9 GLL5        0.0000 
     46 CA          4.5670   56.5985   32.3925 C.3       3 GLC5        0.0000 
     47 CA          5.7620   57.9600   31.3070 C.3       9 GLL5        0.0000 
     48 CA          6.8365   58.5910   29.4635 C.3       3 GLC5        0.0000 
     49 CA          6.2671   58.7750   33.1570 C.3       3 GLC5        0.0000 
     50 CA          6.5940   58.9800   31.3050 C.3       9 GLL5        0.0000 
@<TRIPOS>BOND
@<TRIPOS>SUBSTRUCTURE
     1 SEC2        4 GROUP        1 X    SEC  0     ROOT SEC X 2
     2 LYC4        1 GROUP        1 X    LYC  0     **** LYC X 4
     3 GLC5       19 GROUP        1 X    GLC  0     **** GLC X 6
     4 SEP2        6 GROUP        1 Y    SEP  0     ROOT SEP Y 9
     5 LYP4        3 GROUP        1 Y    LYP  0     **** LYP Y 11
     6 GLP5       21 GROUP        1 Y    GLP  0     **** GLP Y 13
     7 SEL2        5 GROUP        1 Z    SEL  0     ROOT SEL Z 16
     8 LYL4        2 GROUP        1 Z    LYL  0     **** LYL Z 18
     9 GLL5       20 GROUP        1 Z    GLL  0     **** GLL Z 20
@<TRIPOS>SET

