#    Name: 3kc0_2T5_3_ligand
#    Modification time : Mon Mar 24 19:10:23 2014

@<TRIPOS>MOLECULE
3kc0_2T5_3_ligand
   26    28     1     0     0
SMALL
NO_CHARGES


@<TRIPOS>ATOM
      1 P1          9.5620   63.3620   31.9000 P.3       1 2T5401      0.0000 
      2 O2          9.8920   64.8270   31.9640 O.co2     1 2T5401      0.0000 
      3 O3         10.2900   62.7250   30.7590 O.co2     1 2T5401      0.0000 
      4 O4          9.9690   62.6840   33.1770 O.co2     1 2T5401      0.0000 
      5 C5          7.7820   63.1580   31.6590 C.3       1 2T5401      0.0000 
      6 O6          7.5450   61.7920   31.5160 O.3       1 2T5401      0.0000 
      7 C7          6.2140   61.4950   31.6870 C.ar      1 2T5401      0.0000 
      8 C8          5.8500   60.1970   31.5770 C.ar      1 2T5401      0.0000 
      9 C9          4.5430   59.8340   31.7370 C.ar      1 2T5401      0.0000 
     10 C10         3.5660   60.7690   32.0090 C.ar      1 2T5401      0.0000 
     11 C11         3.9310   62.1020   32.1230 C.ar      1 2T5401      0.0000 
     12 C12         5.2620   62.4690   31.9610 C.ar      1 2T5401      0.0000 
     13 C13         4.3060   58.2980   31.5790 C.3       1 2T5401      0.0000 
     14 C14         5.7620   57.9600   31.3070 C.2       1 2T5401      0.0000 
     15 C15         6.5940   58.9800   31.3050 C.2       1 2T5401      0.0000 
     16 S16         6.6670   56.4880   30.9780 S.3       1 2T5401      0.0000 
     17 C17         8.1430   57.4470   30.8650 C.2       1 2T5401      0.0000 
     18 N18         7.9310   58.7690   31.0660 N.2       1 2T5401      0.0000 
     19 H           7.6294   63.7715   30.7946 H         1 2T5401      0.0000 
     20 H           7.4088   63.6264   32.5468 H         1 2T5401      0.0000 
     21 H           2.5900   60.4879   32.1250 H         1 2T5401      0.0000 
     22 H           3.2217   62.8167   32.3263 H         1 2T5401      0.0000 
     23 H           5.5391   63.4532   32.0434 H         1 2T5401      0.0000 
     24 H           3.7313   58.1323   30.7444 H         1 2T5401      0.0000 
     25 H           4.0045   57.9115   32.4812 H         1 2T5401      0.0000 
     26 H           8.8872   56.9099   30.6788 H         1 2T5401      0.0000 
@<TRIPOS>BOND
     1    2    1 ar   
     2    3    1 ar   
     3    4    1 ar   
     4    5    1 1    
     5    6    5 1    
     6   19    5 1    
     7   20    5 1    
     8    7    6 1    
     9    8    7 ar   
    10   12    7 ar   
    11    9    8 ar   
    12   15    8 1    
    13   10    9 ar   
    14   13    9 1    
    15   11   10 ar   
    16   21   10 1    
    17   12   11 ar   
    18   22   11 1    
    19   23   12 1    
    20   14   13 1    
    21   24   13 1    
    22   25   13 1    
    23   15   14 2    
    24   16   14 1    
    25   18   15 1    
    26   17   16 1    
    27   18   17 2    
    28   26   17 1    
@<TRIPOS>SUBSTRUCTURE
     1 2T5401      1 GROUP   
@<TRIPOS>SET

