#    Name: 2ewn_BTX_1_INTS_M
#    Modification time : Tue Mar 25 12:08:09 2014

@<TRIPOS>MOLECULE
2ewn_BTX_1_INTS_M
  104     0    12     0     0
SMALL
NO_CHARGES


@<TRIPOS>ATOM
      1 N           4.7065   43.1425  -28.2960 N.am      2 SEC2        0.0000 
      2 N           3.5300   43.6650  -28.1920 N.am     10 SEL2        0.0000 
      3 N           5.8830   42.6200  -28.4000 N.am      6 SEP2        0.0000 
      4 N           3.1520   43.3180  -26.7905 N.am      2 SEC2        0.0000 
      5 N           2.7740   42.9710  -25.3890 N.am      6 SEP2        0.0000 
      6 NZ          1.6440   47.3695  -27.0075 N.4       3 LYC4        0.0000 
      7 NZ          1.9770   45.6440  -27.8740 N.4      11 LYL4        0.0000 
      8 NZ          1.3110   49.0950  -26.1410 N.4       7 LYP4        0.0000 
      9 NZ          0.5775   46.8330  -28.3120 N.4       3 LYC4        0.0000 
     10 NZ         -0.8220   48.0220  -28.7500 N.4       7 LYP4        0.0000 
     11 N           3.2570   46.7085  -28.2260 N.am      2 SEC2        0.0000 
     12 N           1.9770   45.6440  -27.8740 N.am     10 SEL2        0.0000 
     13 N           4.5370   47.7730  -28.5780 N.am      6 SEP2        0.0000 
     14 CA         -4.2005   40.2760  -30.6900 C.3       4 GLC5        0.0000 
     15 CA         -2.4000   41.0140  -29.8710 C.3      12 GLL5        0.0000 
     16 CA         -6.0010   39.5380  -31.5090 C.3       8 GLP5        0.0000 
     17 O          -3.7415   41.9235  -27.9365 O.2       1 ALC1        0.0000 
     18 O          -3.3110   40.9190  -28.8140 O.2       9 ALL1        0.0000 
     19 O          -4.1720   42.9280  -27.0590 O.2       5 ALP1        0.0000 
     20 CA         -1.2335   43.5330  -31.9720 C.3       4 GLC5        0.0000 
     21 CA         -2.4690   42.3110  -30.6830 C.3      12 GLL5        0.0000 
     22 CA          0.0020   44.7550  -33.2610 C.3       8 GLP5        0.0000 
     23 CA         -4.5045   42.0575  -31.5650 C.3       4 GLC5        0.0000 
     24 CA         -6.5400   41.8040  -32.4470 C.3       8 GLP5        0.0000 
     25 N          -1.1820   40.6080  -34.9850 N.am      2 SEC2        0.0000 
     26 N          -1.8600   41.6430  -34.2330 N.am     10 SEL2        0.0000 
     27 N          -0.5040   39.5730  -35.7370 N.am      6 SEP2        0.0000 
     28 CA         -2.6780   40.9380  -35.3740 C.3       4 GLC5        0.0000 
     29 CA         -2.5960   42.7990  -34.2970 C.3      12 GLL5        0.0000 
     30 CA         -2.7600   39.0770  -36.4510 C.3       8 GLP5        0.0000 
     31 O          -1.9080   42.0290  -37.4485 O.2       1 ALC1        0.0000 
     32 O          -2.6560   43.2090  -36.6540 O.2       9 ALL1        0.0000 
     33 O          -1.1600   40.8490  -38.2430 O.2       5 ALP1        0.0000 
     34 O          -2.8755   44.4800  -37.5410 O.2       1 ALC1        0.0000 
     35 O          -3.0950   45.7510  -38.4280 O.2       5 ALP1        0.0000 
     36 N          -4.0545   45.7095  -35.9665 N.am      2 SEC2        0.0000 
     37 N          -3.7520   44.7490  -35.1180 N.am     10 SEL2        0.0000 
     38 N          -4.3570   46.6700  -36.8150 N.am      6 SEP2        0.0000 
     39 CA         -3.9465   46.7345  -32.6855 C.3       4 GLC5        0.0000 
     40 CA         -4.0940   45.1440  -33.8190 C.3      12 GLL5        0.0000 
     41 CA         -3.7990   48.3250  -31.5520 C.3       8 GLP5        0.0000 
     42 CA         -5.3170   43.4740  -33.1330 C.3       4 GLC5        0.0000 
     43 CA         -5.8310   45.2880  -33.8405 C.3       4 GLC5        0.0000 
     44 CA         -7.5680   45.4320  -33.8620 C.3       8 GLP5        0.0000 
     45 CA         -4.7290   42.5005  -32.7270 C.3       4 GLC5        0.0000 
     46 CA         -2.9180   43.1970  -33.0070 C.3      12 GLL5        0.0000 
     47 CA          4.7160   47.8020  -32.7640 C.3       4 GLC5        0.0000 
     48 CA          3.9060   46.0640  -32.0320 C.3      12 GLL5        0.0000 
     49 CA          5.5260   49.5400  -33.4960 C.3       8 GLP5        0.0000 
     50 CA          3.0005   44.2560  -34.5385 C.3       4 GLC5        0.0000 
     51 CA          4.9520   45.0580  -34.0830 C.3      12 GLL5        0.0000 
     52 CA          1.0490   43.4540  -34.9940 C.3       8 GLP5        0.0000 
     53 CA          3.1420   43.5550  -35.5950 C.3       4 GLC5        0.0000 
     54 CA          4.4930   44.6480  -35.4770 C.3      12 GLL5        0.0000 
     55 CA          1.7910   42.4620  -35.7130 C.3       8 GLP5        0.0000 
     56 CA          5.6760   46.9075  -37.3650 C.3       4 GLC5        0.0000 
     57 CA          5.4820   44.9420  -36.6160 C.3      12 GLL5        0.0000 
     58 CA          5.8700   48.8730  -38.1140 C.3       8 GLP5        0.0000 
     59 CA          3.6985   43.8285  -39.8050 C.3       4 GLC5        0.0000 
     60 CA          4.9740   44.2550  -38.1980 C.3      12 GLL5        0.0000 
     61 CA          2.4230   43.4020  -41.4120 C.3       8 GLP5        0.0000 
     62 CA          5.5785   45.0510  -40.7485 C.3       4 GLC5        0.0000 
     63 CA          6.5000   44.8070  -38.9220 C.3      12 GLL5        0.0000 
     64 CA          4.6570   45.2950  -42.5750 C.3       8 GLP5        0.0000 
     65 CA          6.1850   46.8400  -38.5180 C.3       4 GLC5        0.0000 
     66 O           8.3935   43.2715  -39.3215 O.2       1 ALC1        0.0000 
     67 O           7.9120   42.9520  -37.9790 O.2       9 ALL1        0.0000 
     68 O           8.8750   43.5910  -40.6640 O.2       5 ALP1        0.0000 
     69 O           7.4970   42.1100  -39.0610 O.2       1 ALC1        0.0000 
     70 O           7.0820   41.2680  -40.1430 O.2       5 ALP1        0.0000 
     71 N           8.9560   40.5930  -37.0370 N.am      2 SEC2        0.0000 
     72 N           7.8710   41.0660  -36.6060 N.am     10 SEL2        0.0000 
     73 N          10.0410   40.1200  -37.4680 N.am      6 SEP2        0.0000 
     74 N           6.9285   40.3060  -35.7335 N.am      2 SEC2        0.0000 
     75 N           5.9860   39.5460  -34.8610 N.am      6 SEP2        0.0000 
     76 O           6.6125   42.5900  -34.6150 O.2       1 ALC1        0.0000 
     77 O           7.0750   43.1360  -35.8900 O.2       9 ALL1        0.0000 
     78 O           6.1500   42.0440  -33.3400 O.2       5 ALP1        0.0000 
     79 CA          7.5430   45.1765  -34.4850 C.3       4 GLC5        0.0000 
     80 CA          6.9470   44.4730  -36.4300 C.3      12 GLL5        0.0000 
     81 CA          8.1390   45.8800  -32.5400 C.3       8 GLP5        0.0000 
     82 CA          0.4766   41.2426  -27.7093 C.3       4 GLC5        0.0000 
     83 CA          0.4110   42.8100  -28.4730 C.3      12 GLL5        0.0000 
     84 CA          1.5810   40.6480  -26.3940 C.3       8 GLP5        0.0000 
     85 CA         -4.0410   41.6505  -34.3450 C.3       4 GLC5        0.0000 
     86 CA         -5.2920   40.1160  -33.8440 C.3       8 GLP5        0.0000 
     87 CA          4.5875   44.0452  -30.9940 C.3       4 GLC5        0.0000 
     88 CA          5.2970   42.1300  -30.7020 C.3       8 GLP5        0.0000 
     89 CA          2.9270   47.1068  -32.4830 C.3       4 GLC5        0.0000 
     90 CA          3.8500   45.8570  -30.5400 C.3      12 GLL5        0.0000 
     91 CA          1.9760   48.2530  -33.6800 C.3       8 GLP5        0.0000 
     92 CA          2.3352   44.5682  -33.0772 C.3       4 GLC5        0.0000 
     93 CA          0.7770   43.6600  -33.6320 C.3       8 GLP5        0.0000 
     94 CA          4.8567   43.5517  -32.1250 C.3       4 GLC5        0.0000 
     95 CA          3.1963   46.6133  -33.6140 C.3       4 GLC5        0.0000 
     96 CA          3.8810   44.8890  -33.0130 C.3      12 GLL5        0.0000 
     97 CA          6.2809   45.5736  -32.9214 C.3       4 GLC5        0.0000 
     98 CA          3.8407   45.8515  -37.2647 C.3       4 GLC5        0.0000 
     99 CA          2.6940   46.9080  -38.4830 C.3       8 GLP5        0.0000 
    100 CA          3.4615   43.7032  -37.2275 C.3       4 GLC5        0.0000 
    101 CA          1.6950   42.8080  -37.0480 C.3       8 GLP5        0.0000 
    102 CA          4.2155   45.7195  -38.5215 C.3       4 GLC5        0.0000 
    103 CA          8.1265   46.0611  -37.2366 C.3       4 GLC5        0.0000 
    104 CA          9.2730   47.5910  -37.0620 C.3       8 GLP5        0.0000 
@<TRIPOS>BOND
@<TRIPOS>SUBSTRUCTURE
     1 ALC1       17 GROUP        1 X    ALC  0     ROOT ALC X 1
     2 SEC2        1 GROUP        1 X    SEC  0     **** SEC X 2
     3 LYC4        6 GROUP        1 X    LYC  0     **** LYC X 4
     4 GLC5       14 GROUP        1 X    GLC  0     **** GLC X 6
     5 ALP1       19 GROUP        1 Y    ALP  0     ROOT ALP Y 8
     6 SEP2        3 GROUP        1 Y    SEP  0     **** SEP Y 9
     7 LYP4        8 GROUP        1 Y    LYP  0     **** LYP Y 11
     8 GLP5       16 GROUP        1 Y    GLP  0     **** GLP Y 13
     9 ALL1       18 GROUP        1 Z    ALL  0     ROOT ALL Z 15
    10 SEL2        2 GROUP        1 Z    SEL  0     **** SEL Z 16
    11 LYL4        7 GROUP        1 Z    LYL  0     **** LYL Z 18
    12 GLL5       15 GROUP        1 Z    GLL  0     **** GLL Z 20
@<TRIPOS>SET

