#    Name: 2ewn_BTX_1_ligand
#    Modification time : Tue Mar 25 12:08:09 2014

@<TRIPOS>MOLECULE
2ewn_BTX_1_ligand
   66    70     1     0     0
SMALL
NO_CHARGES


@<TRIPOS>ATOM
      1 P           2.4540   44.5150  -28.8200 P.3       1 BTX501      0.0000 
      2 O1P         3.5300   43.6650  -28.1920 O.co2     1 BTX501      0.0000 
      3 O2P         1.9770   45.6440  -27.8740 O.co2     1 BTX501      0.0000 
      4 O5'         1.1930   43.5990  -29.3150 O.3       1 BTX501      0.0000 
      5 C5'         0.4110   42.8100  -28.4730 C.3       1 BTX501      0.0000 
      6 C4'        -0.8740   42.4430  -29.0130 C.3       1 BTX501      0.0000 
      7 O4'        -1.2690   43.0230  -30.2260 O.3       1 BTX501      0.0000 
      8 C3'        -1.0240   41.0480  -29.3060 C.3       1 BTX501      0.0000 
      9 O3'        -0.7540   40.0830  -28.3170 O.3       1 BTX501      0.0000 
     10 C2'        -2.4000   41.0140  -29.8710 C.3       1 BTX501      0.0000 
     11 O2'        -3.3110   40.9190  -28.8140 O.3       1 BTX501      0.0000 
     12 C1'        -2.4690   42.3110  -30.6830 C.3       1 BTX501      0.0000 
     13 N9         -2.3660   42.2360  -32.1570 N.pl3     1 BTX501      0.0000 
     14 C8         -1.7270   41.2990  -32.9370 C.2       1 BTX501      0.0000 
     15 N7         -1.8600   41.6430  -34.2330 N.2       1 BTX501      0.0000 
     16 C5         -2.5960   42.7990  -34.2970 C.ar      1 BTX501      0.0000 
     17 C6         -2.9840   43.5710  -35.3950 C.ar      1 BTX501      0.0000 
     18 N6         -2.6560   43.2090  -36.6540 N.pl3     1 BTX501      0.0000 
     19 N1         -3.7520   44.7490  -35.1180 N.ar      1 BTX501      0.0000 
     20 C2         -4.0940   45.1440  -33.8190 C.ar      1 BTX501      0.0000 
     21 N3         -3.6770   44.3480  -32.7330 N.ar      1 BTX501      0.0000 
     22 C4         -2.9180   43.1970  -33.0070 C.ar      1 BTX501      0.0000 
     23 CBB         3.8500   45.8570  -30.5400 C.3       1 BTX501      0.0000 
     24 OBB         2.8700   45.1050  -30.1150 O.3       1 BTX501      0.0000 
     25 CAB         3.9060   46.0640  -32.0320 C.3       1 BTX501      0.0000 
     26 C9B         3.8810   44.8890  -33.0130 C.3       1 BTX501      0.0000 
     27 C8B         4.9520   45.0580  -34.0830 C.3       1 BTX501      0.0000 
     28 C7B         4.4930   44.6480  -35.4770 C.3       1 BTX501      0.0000 
     29 C2B         5.4820   44.9420  -36.6160 C.3       1 BTX501      0.0000 
     30 S1B         4.9740   44.2550  -38.1980 S.3       1 BTX501      0.0000 
     31 C6B         6.5000   44.8070  -38.9220 C.3       1 BTX501      0.0000 
     32 C5B         7.5260   44.3720  -37.8630 C.3       1 BTX501      0.0000 
     33 N1B         7.9120   42.9520  -37.9790 N.am      1 BTX501      0.0000 
     34 C3B         7.6370   42.2930  -36.8230 C.2       1 BTX501      0.0000 
     35 O3B         7.8710   41.0660  -36.6060 O.2       1 BTX501      0.0000 
     36 N2B         7.0750   43.1360  -35.8900 N.am      1 BTX501      0.0000 
     37 C4B         6.9470   44.4730  -36.4300 C.3       1 BTX501      0.0000 
     38 H           0.2510   43.3277  -27.4814 H         1 BTX501      0.0000 
     39 H           0.9647   41.8673  -28.1871 H         1 BTX501      0.0000 
     40 H          -1.6762   42.6787  -28.2562 H         1 BTX501      0.0000 
     41 H          -0.3654   40.8578  -30.2234 H         1 BTX501      0.0000 
     42 H          -2.4444   40.1931  -30.5600 H         1 BTX501      0.0000 
     43 H          -3.3208   42.8746  -30.3687 H         1 BTX501      0.0000 
     44 H          -1.2630   40.5258  -32.5947 H         1 BTX501      0.0000 
     45 H          -2.5575   43.9534  -37.3144 H         1 BTX501      0.0000 
     46 H          -2.5408   42.2287  -36.8141 H         1 BTX501      0.0000 
     47 H          -4.6335   45.9893  -33.6574 H         1 BTX501      0.0000 
     48 H           4.8792   45.4685  -30.2473 H         1 BTX501      0.0000 
     49 H           3.8491   46.9014  -30.0872 H         1 BTX501      0.0000 
     50 H           4.8303   46.6887  -32.2720 H         1 BTX501      0.0000 
     51 H           3.0611   46.7721  -32.3268 H         1 BTX501      0.0000 
     52 H           2.9018   44.8396  -33.4855 H         1 BTX501      0.0000 
     53 H           4.0577   43.9644  -32.4667 H         1 BTX501      0.0000 
     54 H           5.8340   44.4587  -33.8055 H         1 BTX501      0.0000 
     55 H           5.2721   46.1120  -34.1068 H         1 BTX501      0.0000 
     56 H           3.5341   45.1572  -35.7048 H         1 BTX501      0.0000 
     57 H           4.2700   43.5613  -35.4777 H         1 BTX501      0.0000 
     58 H           5.4980   46.0142  -36.8624 H         1 BTX501      0.0000 
     59 H           6.3845   45.8283  -38.9798 H         1 BTX501      0.0000 
     60 H           6.5632   44.2652  -39.7950 H         1 BTX501      0.0000 
     61 H           8.3925   44.9931  -37.9035 H         1 BTX501      0.0000 
     62 H           8.2960   42.6074  -38.7807 H         1 BTX501      0.0000 
     63 H           6.7969   42.9089  -35.0050 H         1 BTX501      0.0000 
     64 H           7.4970   45.1927  -35.9124 H         1 BTX501      0.0000 
     65 H          -1.6179   39.9660  -27.8271 H         1 BTX501      0.0000 
     66 H          -3.2055   41.7727  -28.3040 H         1 BTX501      0.0000 
@<TRIPOS>BOND
     1    2    1 ar   
     2    3    1 ar   
     3    4    1 1    
     4   24    1 1    
     5    5    4 1    
     6    6    5 1    
     7   38    5 1    
     8   39    5 1    
     9    7    6 1    
    10    8    6 1    
    11   40    6 1    
    12   12    7 1    
    13    9    8 1    
    14   10    8 1    
    15   41    8 1    
    16   65    9 1    
    17   11   10 1    
    18   12   10 1    
    19   42   10 1    
    20   66   11 1    
    21   13   12 1    
    22   43   12 1    
    23   14   13 1    
    24   22   13 1    
    25   15   14 2    
    26   44   14 1    
    27   16   15 1    
    28   17   16 ar   
    29   22   16 ar   
    30   18   17 1    
    31   19   17 ar   
    32   45   18 1    
    33   46   18 1    
    34   20   19 ar   
    35   21   20 ar   
    36   47   20 1    
    37   22   21 ar   
    38   24   23 1    
    39   25   23 1    
    40   48   23 1    
    41   49   23 1    
    42   26   25 1    
    43   50   25 1    
    44   51   25 1    
    45   27   26 1    
    46   52   26 1    
    47   53   26 1    
    48   28   27 1    
    49   54   27 1    
    50   55   27 1    
    51   29   28 1    
    52   56   28 1    
    53   57   28 1    
    54   30   29 1    
    55   37   29 1    
    56   58   29 1    
    57   31   30 1    
    58   32   31 1    
    59   59   31 1    
    60   60   31 1    
    61   33   32 1    
    62   37   32 1    
    63   61   32 1    
    64   34   33 am   
    65   62   33 1    
    66   35   34 2    
    67   36   34 am   
    68   37   36 1    
    69   63   36 1    
    70   64   37 1    
@<TRIPOS>SUBSTRUCTURE
     1 BTX501      1 GROUP   
@<TRIPOS>SET

