#    Name: 3EOS_1_CAVITY_N1_ALL.mol2
#    Modification time : Mon Mar 10 13:51:13 2014

@<TRIPOS>MOLECULE
3EOS_1_CAVITY_N1_ALL.mol2
   82     0     6     0     0
SMALL
NO_CHARGES


@<TRIPOS>ATOM
      1 CA         19.2013   18.5242   22.4154 C.3       5 GLY6        0.0000 
      2 NZ         18.3754   18.0064   23.5554 N.2       3 LYS4        0.0000 
      3 CA         17.9522   18.7699   21.6220 C.3       5 GLY6        0.0000 
      4 CA         17.1262   18.2521   22.7621 C.3       5 GLY6        0.0000 
      5 NZ         16.3003   17.7344   23.9022 N.2       3 LYS4        0.0000 
      6 O          20.1143   17.6558   20.7088 O.2       2 ALA2        0.0000 
      7 O          19.2884   17.1380   21.8489 O.2       2 ALA2        0.0000 
      8 CA         18.4625   16.6202   22.9890 C.3       5 GLY6        0.0000 
      9 N          19.6911   18.4192   18.7754 N.2       2 ALA2        0.0000 
     10 CZ         18.8652   17.9015   19.9155 C.ar      4 PHE5        0.0000 
     11 CZ         18.0393   17.3837   21.0556 C.ar      4 PHE5        0.0000 
     12 CA         17.2133   16.8659   22.1957 C.3       5 GLY6        0.0000 
     13 NZ         16.3874   16.3482   23.3358 N.2       3 LYS4        0.0000 
     14 N          19.2679   19.1827   16.8420 N.2       2 ALA2        0.0000 
     15 CZ         18.4420   18.6649   17.9821 C.ar      4 PHE5        0.0000 
     16 CZ         17.6160   18.1472   19.1222 C.ar      4 PHE5        0.0000 
     17 CZ         16.7901   17.6294   20.2623 C.ar      4 PHE5        0.0000 
     18 CA         15.9642   17.1116   21.4024 C.3       5 GLY6        0.0000 
     19 CZ         13.4455   19.6477   14.8089 C.ar      4 PHE5        0.0000 
     20 N          20.2014   16.2696   20.1424 N.2       2 ALA2        0.0000 
     21 CA         19.3755   15.7518   21.2825 C.3       5 GLY6        0.0000 
     22 N          19.7782   17.0330   18.2090 N.2       2 ALA2        0.0000 
     23 N          18.9523   16.5153   19.3491 N.2       2 ALA2        0.0000 
     24 CA         18.1263   15.9975   20.4891 C.3       5 GLY6        0.0000 
     25 N          19.3550   17.7965   16.2756 N.2       2 ALA2        0.0000 
     26 N          18.5290   17.2787   17.4157 N.2       2 ALA2        0.0000 
     27 N          17.7031   16.7610   18.5557 N.2       2 ALA2        0.0000 
     28 CA         16.8772   16.2432   19.6958 C.3       5 GLY6        0.0000 
     29 NZ         16.0513   15.7254   20.8359 N.2       3 LYS4        0.0000 
     30 N          18.9317   18.5600   14.3422 N.2       2 ALA2        0.0000 
     31 OG         18.1058   18.0422   15.4823 O.2       1 SER1        0.0000 
     32 OG         17.2799   17.5244   16.6224 O.2       1 SER1        0.0000 
     33 CZ         16.4540   17.0067   17.7624 C.ar      4 PHE5        0.0000 
     34 CZ         15.6281   16.4889   18.9025 C.ar      4 PHE5        0.0000 
     35 OG         16.8567   18.2879   14.6890 O.2       1 SER1        0.0000 
     36 CZ         16.0308   17.7701   15.8290 C.ar      4 PHE5        0.0000 
     37 CZ         15.2049   17.2524   16.9691 C.ar      4 PHE5        0.0000 
     38 CZ         14.3790   16.7346   18.1092 C.ar      4 PHE5        0.0000 
     39 OG         15.6076   18.5336   13.8956 O.2       1 SER1        0.0000 
     40 CZ         14.7817   18.0158   15.0357 C.ar      4 PHE5        0.0000 
     41 CZ         13.9558   17.4980   16.1758 C.ar      4 PHE5        0.0000 
     42 CZ         13.1299   16.9803   17.3159 C.ar      4 PHE5        0.0000 
     43 NZ         12.3040   16.4625   18.4560 N.2       3 LYS4        0.0000 
     44 CA         13.5326   18.2615   14.2424 C.3       5 GLY6        0.0000 
     45 CZ         12.7067   17.7437   15.3825 C.ar      4 PHE5        0.0000 
     46 N          11.8808   17.2260   16.5226 N.2       2 ALA2        0.0000 
     47 O          11.0549   16.7082   17.6627 O.2       2 ALA2        0.0000 
     48 N          11.4576   17.9894   14.5892 N.2       2 ALA2        0.0000 
     49 N          10.2084   18.2351   13.7959 N.2       2 ALA2        0.0000 
     50 O          15.7152   15.1027   18.3361 O.2       2 ALA2        0.0000 
     51 NZ         14.8893   14.5849   19.4762 N.2       3 LYS4        0.0000 
     52 CA         16.9438   16.9017   14.1225 C.3       5 GLY6        0.0000 
     53 CA         16.1179   16.3839   15.2626 C.3       5 GLY6        0.0000 
     54 NZ         14.4661   15.3484   17.5428 N.2       3 LYS4        0.0000 
     55 NZ         13.6402   14.8306   18.6828 N.2       3 LYS4        0.0000 
     56 DU         16.5206   17.6652   12.1891 H         6 CUB7        0.0000 
     57 CA         15.6947   17.1474   13.3292 C.3       5 GLY6        0.0000 
     58 CA         14.8688   16.6296   14.4693 C.3       5 GLY6        0.0000 
     59 NZ         14.0429   16.1118   15.6094 N.2       3 LYS4        0.0000 
     60 NZ         13.2170   15.5941   16.7494 N.2       3 LYS4        0.0000 
     61 NZ         12.3911   15.0763   17.8895 N.2       3 LYS4        0.0000 
     62 CA         11.5652   14.5585   19.0296 C.3       5 GLY6        0.0000 
     63 CA         14.4456   17.3931   12.5359 C.3       5 GLY6        0.0000 
     64 CA         12.7938   16.3575   14.8160 C.3       5 GLY6        0.0000 
     65 DU         11.9679   15.8398   15.9561 H         6 CUB7        0.0000 
     66 O          11.1419   15.3220   17.0962 O.2       2 ALA2        0.0000 
     67 O          10.3160   14.8042   18.2363 O.2       2 ALA2        0.0000 
     68 CA          9.4901   14.2865   19.3764 C.3       5 GLY6        0.0000 
     69 CA         11.5446   16.6032   14.0227 C.3       5 GLY6        0.0000 
     70 CA         10.7187   16.0855   15.1628 C.3       5 GLY6        0.0000 
     71 O           9.8928   15.5677   16.3029 O.2       2 ALA2        0.0000 
     72 O           9.0669   15.0499   17.4430 O.2       2 ALA2        0.0000 
     73 O           9.4696   16.3312   14.3695 O.2       2 ALA2        0.0000 
     74 NZ         13.7273   13.4444   18.1164 N.2       3 LYS4        0.0000 
     75 NZ         14.9559   15.2434   13.9028 N.2       3 LYS4        0.0000 
     76 NZ         12.4782   13.6901   17.3231 N.2       3 LYS4        0.0000 
     77 CA         11.6522   13.1723   18.4632 C.3       5 GLY6        0.0000 
     78 CA         12.8809   14.9713   14.2496 C.3       5 GLY6        0.0000 
     79 CA         12.0549   14.4536   15.3897 C.3       5 GLY6        0.0000 
     80 CA         11.2290   13.9358   16.5298 C.3       5 GLY6        0.0000 
     81 CA         10.4031   13.4180   17.6699 C.3       5 GLY6        0.0000 
     82 N           9.1540   13.6637   16.8765 N.2       2 ALA2        0.0000 
@<TRIPOS>BOND
@<TRIPOS>SUBSTRUCTURE
     1 SER1       31 GROUP   
     2 ALA2        6 GROUP   
     3 LYS4        2 GROUP   
     4 PHE5       10 GROUP   
     5 GLY6        1 GROUP   
     6 CUB7       56 GROUP   
@<TRIPOS>SET

