#    Name: 3eos_PK2_1_INTS_M
#    Modification time : Tue Mar 25 02:15:57 2014

@<TRIPOS>MOLECULE
3eos_PK2_1_INTS_M
   75     0    12     0     0
SMALL
NO_CHARGES


@<TRIPOS>ATOM
      1 N          19.7160   17.9015   24.6550 N.am      2 SEC2        0.0000 
      2 N          19.2470   17.7530   23.2210 N.am     10 SEL2        0.0000 
      3 N          20.1850   18.0500   26.0890 N.am      6 SEP2        0.0000 
      4 N          20.6225   17.7830   22.9965 N.am      2 SEC2        0.0000 
      5 N          21.9980   17.8130   22.7720 N.am      6 SEP2        0.0000 
      6 O          16.2740   17.1600   25.0990 O.2       1 ALC1        0.0000 
      7 O          17.1440   17.0090   23.5930 O.2       9 ALL1        0.0000 
      8 O          15.4040   17.3110   26.6050 O.2       5 ALP1        0.0000 
      9 O          17.3480   17.1245   24.9060 O.2       1 ALC1        0.0000 
     10 O          17.5520   17.2400   26.2190 O.2       5 ALP1        0.0000 
     11 O          14.0665   15.9665   22.6350 O.2       1 ALC1        0.0000 
     12 O          14.9770   16.3890   23.9720 O.2       9 ALL1        0.0000 
     13 O          13.1560   15.5440   21.2980 O.2       5 ALP1        0.0000 
     14 O          14.0555   15.4870   23.6095 O.2       1 ALC1        0.0000 
     15 O          13.1340   14.5850   23.2470 O.2       5 ALP1        0.0000 
     16 O          15.1905   16.8500   25.2885 O.2       1 ALC1        0.0000 
     17 CA         14.7035   17.9375   18.8680 C.3       4 GLC5        0.0000 
     18 CA         15.1720   16.2230   18.8750 C.3      12 GLL5        0.0000 
     19 CA         14.2350   19.6520   18.8610 C.3       8 GLP5        0.0000 
     20 CA         17.0080   14.1510   19.2025 C.3       4 GLC5        0.0000 
     21 CA         15.3450   14.8200   18.2040 C.3      12 GLL5        0.0000 
     22 CA         18.6710   13.4820   20.2010 C.3       8 GLP5        0.0000 
     23 CA         16.8800   14.6005   16.9105 C.3       4 GLC5        0.0000 
     24 CA         18.4150   14.3810   15.6170 C.3       8 GLP5        0.0000 
     25 OD1        15.2230   13.1760   17.1180 O.co2     3 ASC3        0.0000 
     26 OD1        14.2740   14.6820   17.1460 O.co2    11 ASL3        0.0000 
     27 OD1        16.1720   11.6700   17.0900 O.co2     7 ASP3        0.0000 
     28 OD1        14.4795   13.6010   16.4480 O.co2     3 ASC3        0.0000 
     29 OD1        14.6850   12.5200   15.7500 O.co2     7 ASP3        0.0000 
     30 CA         12.2035   14.1790   19.7505 C.3       4 GLC5        0.0000 
     31 CA         12.9590   14.4180   17.8070 C.3      12 GLL5        0.0000 
     32 CA         11.4480   13.9400   21.6940 C.3       8 GLP5        0.0000 
     33 CA         10.9215   14.2340   19.6330 C.3       4 GLC5        0.0000 
     34 CA         10.3950   14.5280   17.5720 C.3      12 GLL5        0.0000 
     35 CA         17.9695   15.7525   17.1350 C.3       4 GLC5        0.0000 
     36 CA         17.5240   17.1240   18.6530 C.3      12 GLL5        0.0000 
     37 O          20.1740   18.9855   15.4930 O.2       1 ALC1        0.0000 
     38 O          19.0220   18.0980   15.6900 O.2       9 ALL1        0.0000 
     39 O          21.3260   19.8730   15.2960 O.2       5 ALP1        0.0000 
     40 CA         20.2755   17.5975   14.9525 C.3       4 GLC5        0.0000 
     41 CA         18.1860   17.9390   14.5130 C.3      12 GLL5        0.0000 
     42 CA         22.3650   17.2560   15.3920 C.3       8 GLP5        0.0000 
     43 CA         18.3005   16.1600   15.0650 C.3       4 GLC5        0.0000 
     44 O          20.8915   18.0760   18.0210 O.2       1 ALC1        0.0000 
     45 O          19.5060   17.9810   17.9980 O.2       9 ALL1        0.0000 
     46 O          22.2770   18.1710   18.0440 O.2       5 ALP1        0.0000 
     47 CA         19.8675   19.4810   18.7550 C.3       4 GLC5        0.0000 
     48 CA         18.7170   17.6220   19.1040 C.3      12 GLL5        0.0000 
     49 CA         21.0180   21.3400   18.4060 C.3       8 GLP5        0.0000 
     50 CA         20.8715   18.3460   21.4510 C.3       4 GLC5        0.0000 
     51 CA         19.0560   17.6670   20.4660 C.3      12 GLL5        0.0000 
     52 CA         22.6870   19.0250   22.4360 C.3       8 GLP5        0.0000 
     53 CA         17.6455   15.1192   20.1905 C.3       4 GLC5        0.0000 
     54 CA         16.7510   16.8250   20.8690 C.3      12 GLL5        0.0000 
     55 CA         11.0030   13.9142   15.2218 C.3       4 GLC5        0.0000 
     56 CA         11.7670   14.5320   16.8130 C.3      12 GLL5        0.0000 
     57 CA         10.1830   12.6270   14.0250 C.3       8 GLP5        0.0000 
     58 CA         11.8615   15.8573   13.6270 C.3       4 GLC5        0.0000 
     59 CA         10.7470   15.9060   14.9540 C.3      12 GLL5        0.0000 
     60 CA         12.4100   15.8260   11.7650 C.3       8 GLP5        0.0000 
     61 CA         10.1188   14.2455   14.6620 C.3       4 GLC5        0.0000 
     62 CA          7.3545   14.9223   16.4055 C.3       4 GLC5        0.0000 
     63 CA          9.3620   15.8220   15.6440 C.3      12 GLL5        0.0000 
     64 CA          5.4080   14.6570   16.7260 C.3       8 GLP5        0.0000 
     65 CA         10.0003   13.5838   15.5370 C.3       4 GLC5        0.0000 
     66 CA          9.2400   14.5530   16.5260 C.3      12 GLL5        0.0000 
     67 CA         11.7735   12.5853   17.6010 C.3       4 GLC5        0.0000 
     68 CA         12.1680   10.6690   17.7610 C.3       8 GLP5        0.0000 
     69 CA         18.3957   15.4275   19.5397 C.3       4 GLC5        0.0000 
     70 CA         18.6030   15.4698   20.5452 C.3       4 GLC5        0.0000 
     71 CA         15.7685   18.2336   21.0767 C.3       4 GLC5        0.0000 
     72 CA         18.0140   17.2480   21.3130 C.3      12 GLL5        0.0000 
     73 CA         14.2200   19.4650   21.4070 C.3       8 GLP5        0.0000 
     74 CA         18.9416   19.2301   21.2605 C.3       4 GLC5        0.0000 
     75 CA         19.4330   21.0140   21.9720 C.3       8 GLP5        0.0000 
@<TRIPOS>BOND
@<TRIPOS>SUBSTRUCTURE
     1 ALC1        6 GROUP        1 X    ALC  0     ROOT ALC X 1
     2 SEC2        1 GROUP        1 X    SEC  0     **** SEC X 2
     3 ASC3       25 GROUP        1 X    ASC  0     **** ASC X 3
     4 GLC5       17 GROUP        1 X    GLC  0     **** GLC X 6
     5 ALP1        8 GROUP        1 Y    ALP  0     ROOT ALP Y 8
     6 SEP2        3 GROUP        1 Y    SEP  0     **** SEP Y 9
     7 ASP3       27 GROUP        1 Y    ASP  0     **** ASP Y 10
     8 GLP5       19 GROUP        1 Y    GLP  0     **** GLP Y 13
     9 ALL1        7 GROUP        1 Z    ALL  0     ROOT ALL Z 15
    10 SEL2        2 GROUP        1 Z    SEL  0     **** SEL Z 16
    11 ASL3       26 GROUP        1 Z    ASL  0     **** ASL Z 17
    12 GLL5       18 GROUP        1 Z    GLL  0     **** GLL Z 20
@<TRIPOS>SET

