#    Name: 3eos_PK2_1_ligand
#    Modification time : Tue Mar 25 02:15:57 2014

@<TRIPOS>MOLECULE
3eos_PK2_1_ligand
   53    56     1     0     0
SMALL
NO_CHARGES


@<TRIPOS>ATOM
      1 C2         18.1690   17.3800   22.8140 C.2       1 PK2400      0.0000 
      2 O14        19.2470   17.7530   23.2210 O.2       1 PK2400      0.0000 
      3 N3         17.1440   17.0090   23.5930 N.am      1 PK2400      0.0000 
      4 C4         15.9580   16.6240   23.0610 C.2       1 PK2400      0.0000 
      5 N15        14.9770   16.3890   23.9720 N.pl3     1 PK2400      0.0000 
      6 N5         15.8200   16.4880   21.7920 N.2       1 PK2400      0.0000 
      7 C6         16.7510   16.8250   20.8690 C.ar      1 PK2400      0.0000 
      8 C10        16.4890   16.6880   19.4910 C.ar      1 PK2400      0.0000 
      9 C18        15.1720   16.2230   18.8750 C.3       1 PK2400      0.0000 
     10 C19        15.3450   14.8200   18.2040 C.3       1 PK2400      0.0000 
     11 N20        14.2740   14.6820   17.1460 N.4       1 PK2400      0.0000 
     12 C21        12.9590   14.4180   17.8070 C.3       1 PK2400      0.0000 
     13 C22        11.7670   14.5320   16.8130 C.3       1 PK2400      0.0000 
     14 C27        11.8790   15.8710   16.0240 C.3       1 PK2400      0.0000 
     15 C26        10.7470   15.9060   14.9540 C.3       1 PK2400      0.0000 
     16 C25         9.3620   15.8220   15.6440 C.3       1 PK2400      0.0000 
     17 C24         9.2400   14.5530   16.5260 C.3       1 PK2400      0.0000 
     18 C23        10.3950   14.5280   17.5720 C.3       1 PK2400      0.0000 
     19 C9         17.5240   17.1240   18.6530 C.ar      1 PK2400      0.0000 
     20 N11        17.5590   17.2670   17.3110 N.2       1 PK2400      0.0000 
     21 C12        18.6800   17.7430   16.9420 C.2       1 PK2400      0.0000 
     22 N16        19.0220   18.0980   15.6900 N.pl3     1 PK2400      0.0000 
     23 C17        18.1860   17.9390   14.5130 C.3       1 PK2400      0.0000 
     24 N13        19.5060   17.9810   17.9980 N.pl3     1 PK2400      0.0000 
     25 C8         18.7170   17.6220   19.1040 C.ar      1 PK2400      0.0000 
     26 C7         19.0560   17.6670   20.4660 C.ar      1 PK2400      0.0000 
     27 C1         18.0140   17.2480   21.3130 C.ar      1 PK2400      0.0000 
     28 H          17.2547   17.0142   24.6387 H         1 PK2400      0.0000 
     29 H          14.2993   15.6980   23.7205 H         1 PK2400      0.0000 
     30 H          15.0196   16.9278   24.8134 H         1 PK2400      0.0000 
     31 H          14.8503   16.9272   18.1167 H         1 PK2400      0.0000 
     32 H          14.4128   16.1427   19.6441 H         1 PK2400      0.0000 
     33 H          15.2269   14.0665   18.9595 H         1 PK2400      0.0000 
     34 H          16.3211   14.7754   17.7594 H         1 PK2400      0.0000 
     35 H          12.7904   15.1339   18.6190 H         1 PK2400      0.0000 
     36 H          12.9443   13.4104   18.2368 H         1 PK2400      0.0000 
     37 H          11.7887   13.7262   16.1287 H         1 PK2400      0.0000 
     38 H          12.8305   15.9125   15.5326 H         1 PK2400      0.0000 
     39 H          11.7500   16.6915   16.7012 H         1 PK2400      0.0000 
     40 H          10.8662   15.0635   14.2896 H         1 PK2400      0.0000 
     41 H          10.8149   16.8312   14.4017 H         1 PK2400      0.0000 
     42 H           8.5871   15.7991   14.8818 H         1 PK2400      0.0000 
     43 H           9.2230   16.7014   16.2679 H         1 PK2400      0.0000 
     44 H           9.3127   13.6768   15.9022 H         1 PK2400      0.0000 
     45 H           8.2959   14.5697   17.0463 H         1 PK2400      0.0000 
     46 H          10.3351   15.4042   18.1881 H         1 PK2400      0.0000 
     47 H          10.3238   13.6324   18.1583 H         1 PK2400      0.0000 
     48 H          19.9750   18.5349   15.5033 H         1 PK2400      0.0000 
     49 H          20.3678   18.2969   18.0131 H         1 PK2400      0.0000 
     50 H          19.9282   17.9599   20.7939 H         1 PK2400      0.0000 
     51 H          18.6419   18.2689   13.6864 H         1 PK2400      0.0000 
     52 H          17.9473   16.9811   14.3536 H         1 PK2400      0.0000 
     53 H          17.3275   18.4450   14.5961 H         1 PK2400      0.0000 
@<TRIPOS>BOND
     1    2    1 2    
     2    3    1 am   
     3   27    1 1    
     4    4    3 1    
     5   28    3 1    
     6    5    4 1    
     7    6    4 2    
     8   29    5 1    
     9   30    5 1    
    10    7    6 1    
    11    8    7 ar   
    12   27    7 ar   
    13    9    8 1    
    14   19    8 ar   
    15   10    9 1    
    16   31    9 1    
    17   32    9 1    
    18   11   10 1    
    19   33   10 1    
    20   34   10 1    
    21   12   11 1    
    22   13   12 1    
    23   35   12 1    
    24   36   12 1    
    25   14   13 1    
    26   18   13 1    
    27   37   13 1    
    28   15   14 1    
    29   38   14 1    
    30   39   14 1    
    31   16   15 1    
    32   40   15 1    
    33   41   15 1    
    34   17   16 1    
    35   42   16 1    
    36   43   16 1    
    37   18   17 1    
    38   44   17 1    
    39   45   17 1    
    40   46   18 1    
    41   47   18 1    
    42   20   19 1    
    43   25   19 ar   
    44   21   20 2    
    45   22   21 1    
    46   24   21 1    
    47   23   22 1    
    48   48   22 1    
    49   51   23 1    
    50   52   23 1    
    51   53   23 1    
    52   25   24 1    
    53   49   24 1    
    54   26   25 ar   
    55   27   26 ar   
    56   50   26 1    
@<TRIPOS>SUBSTRUCTURE
     1 PK2400      1 GROUP   
@<TRIPOS>SET

