#    Name: 4bnn_JUS_6_INTS_M
#    Modification time : Tue Mar 25 08:04:33 2014

@<TRIPOS>MOLECULE
4bnn_JUS_6_INTS_M
   79     0     9     0     0
SMALL
NO_CHARGES


@<TRIPOS>ATOM
      1 CA        -19.3175    3.8900   41.7230 C.3       3 GLC5        0.0000 
      2 CA        -19.7840    4.8280   43.4490 C.3       9 GLL5        0.0000 
      3 CA        -18.8510    2.9520   39.9970 C.3       6 GLP5        0.0000 
      4 CA        -20.6115    5.1655   47.6830 C.3       3 GLC5        0.0000 
      5 CA        -20.3850    4.9540   45.7990 C.3       9 GLL5        0.0000 
      6 CA        -20.8380    5.3770   49.5670 C.3       6 GLP5        0.0000 
      7 CA        -20.2865    6.4485   47.5695 C.3       3 GLC5        0.0000 
      8 CA        -19.5390    6.0450   45.9390 C.3       9 GLL5        0.0000 
      9 CA        -21.0340    6.8520   49.2000 C.3       6 GLP5        0.0000 
     10 CA        -20.2685   13.0300   42.9440 C.3       3 GLC5        0.0000 
     11 CA        -19.7700   11.3560   44.2200 C.3       9 GLL5        0.0000 
     12 CA        -20.7670   14.7040   41.6680 C.3       6 GLP5        0.0000 
     13 CA        -17.4450   12.7845   43.9960 C.3       3 GLC5        0.0000 
     14 CA        -18.4360   11.2180   44.6010 C.3       9 GLL5        0.0000 
     15 CA        -16.4540   14.3510   43.3910 C.3       6 GLP5        0.0000 
     16 CA        -21.4400    1.8520   42.8685 C.3       3 GLC5        0.0000 
     17 CA        -21.4370    3.1840   44.3800 C.3       9 GLL5        0.0000 
     18 CA        -21.4430    0.5200   41.3570 C.3       6 GLP5        0.0000 
     19 CA        -21.0755    1.2845   45.2685 C.3       3 GLC5        0.0000 
     20 CA        -20.7140   -0.6150   46.1570 C.3       6 GLP5        0.0000 
     21 CA        -22.0040    2.8490   46.2415 C.3       3 GLC5        0.0000 
     22 CA        -22.5710    2.5140   48.1030 C.3       6 GLP5        0.0000 
     23 CA        -19.5420    2.7095   44.2420 C.3       3 GLC5        0.0000 
     24 CA        -17.6470    2.2350   44.1040 C.3       6 GLP5        0.0000 
     25 CA        -22.6550    3.0800   42.0770 C.3       3 GLC5        0.0000 
     26 CA        -22.7150    3.8340   43.8770 C.3       9 GLL5        0.0000 
     27 CA        -22.5950    2.3260   40.2770 C.3       6 GLP5        0.0000 
     28 CA        -22.2260    5.2505   42.4830 C.3       3 GLC5        0.0000 
     29 CA        -21.7370    6.6670   41.0890 C.3       6 GLP5        0.0000 
     30 CA        -24.0690    5.5910   44.2435 C.3       3 GLC5        0.0000 
     31 CA        -25.4230    7.3480   44.6100 C.3       6 GLP5        0.0000 
     32 CA        -23.0890    1.2195   45.3145 C.3       3 GLC5        0.0000 
     33 CA        -23.9180    3.0980   44.4320 C.3       9 GLL5        0.0000 
     34 CA        -22.2600   -0.6590   46.1970 C.3       6 GLP5        0.0000 
     35 CA        -24.4065    5.5185   42.0300 C.3       3 GLC5        0.0000 
     36 CA        -25.6820    4.2950   43.1470 C.3       9 GLL5        0.0000 
     37 CA        -23.1310    6.7420   40.9130 C.3       6 GLP5        0.0000 
     38 CA        -28.4300    5.8010   42.7310 C.3       3 GLC5        0.0000 
     39 CA        -27.2000    4.1790   43.0460 C.3       9 GLL5        0.0000 
     40 CA        -29.6600    7.4230   42.4160 C.3       6 GLP5        0.0000 
     41 CA        -28.3000    2.2475   43.1165 C.3       3 GLC5        0.0000 
     42 CA        -29.4000    0.3160   43.1870 C.3       6 GLP5        0.0000 
     43 N         -17.0935    6.9055   42.6230 N.am      2 SEC2        0.0000 
     44 N         -18.2730    6.4540   42.5430 N.am      8 SEL2        0.0000 
     45 N         -15.9140    7.3570   42.7030 N.am      5 SEP2        0.0000 
     46 O         -18.9035    6.3675   41.3405 O.2       1 ALC1        0.0000 
     47 O         -18.2730    6.4540   42.5430 O.2       7 ALL1        0.0000 
     48 O         -19.5340    6.2810   40.1380 O.2       4 ALP1        0.0000 
     49 CA        -21.6200    6.8283   45.6980 C.3       3 GLC5        0.0000 
     50 CA        -23.2780    8.1570   45.5270 C.3       6 GLP5        0.0000 
     51 CA        -17.0382    6.4663   43.9630 C.3       3 GLC5        0.0000 
     52 CA        -18.8410    6.5610   44.8430 C.3       9 GLL5        0.0000 
     53 CA        -15.1770    6.6820   43.7050 C.3       6 GLP5        0.0000 
     54 CA        -20.0403    9.5830   42.2422 C.3       3 GLC5        0.0000 
     55 CA        -19.9690    8.9680   44.3830 C.3       9 GLL5        0.0000 
     56 CA        -19.8210    9.5760   40.2270 C.3       6 GLP5        0.0000 
     57 CA        -21.7688    8.8735   44.8922 C.3       3 GLC5        0.0000 
     58 CA        -20.5500   10.2120   44.1320 C.3       9 GLL5        0.0000 
     59 CA        -21.8385   11.9795   44.1620 C.3       3 GLC5        0.0000 
     60 CA        -23.5170   13.1750   44.1480 C.3       6 GLP5        0.0000 
     61 CA        -18.8360   11.6360   42.5988 C.3       3 GLC5        0.0000 
     62 CA        -18.5690   11.9850   40.7870 C.3       6 GLP5        0.0000 
     63 CA        -16.0087   10.2168   43.4820 C.3       3 GLC5        0.0000 
     64 CA        -17.8680    9.9810   44.8360 C.3       9 GLL5        0.0000 
     65 CA        -14.8390   10.5190   41.9560 C.3       6 GLP5        0.0000 
     66 CA        -23.5312    3.3435   46.0517 C.3       3 GLC5        0.0000 
     67 CA        -23.7460    3.2210   47.9490 C.3       6 GLP5        0.0000 
     68 CA        -23.5480    2.0700   42.4120 C.3       3 GLC5        0.0000 
     69 CA        -22.6180    1.1150   40.9080 C.3       6 GLP5        0.0000 
     70 CA        -25.2485    1.1885   44.2605 C.3       3 GLC5        0.0000 
     71 CA        -25.0380    2.9520   43.4000 C.3       9 GLL5        0.0000 
     72 CA        -26.0190   -0.6480   44.6050 C.3       6 GLP5        0.0000 
     73 CA        -26.8070    3.3070   41.2518 C.3       3 GLC5        0.0000 
     74 CA        -27.1730    2.3770   39.4070 C.3       6 GLP5        0.0000 
     75 CA        -25.9320    5.7925   43.8533 C.3       3 GLC5        0.0000 
     76 CA        -17.4462    9.8121   46.6661 C.3       3 GLC5        0.0000 
     77 CA        -17.4770    9.5430   48.3950 C.3       6 GLP5        0.0000 
     78 CA        -16.2726    8.1558   44.3445 C.3       3 GLC5        0.0000 
     79 CA        -16.4890    9.8480   45.1800 C.3       9 GLL5        0.0000 
@<TRIPOS>BOND
@<TRIPOS>SUBSTRUCTURE
     1 ALC1       46 GROUP        1 X    ALC  0     ROOT ALC X 1
     2 SEC2       43 GROUP        1 X    SEC  0     **** SEC X 2
     3 GLC5        1 GROUP        1 X    GLC  0     **** GLC X 6
     4 ALP1       48 GROUP        1 Y    ALP  0     ROOT ALP Y 8
     5 SEP2       45 GROUP        1 Y    SEP  0     **** SEP Y 9
     6 GLP5        3 GROUP        1 Y    GLP  0     **** GLP Y 13
     7 ALL1       47 GROUP        1 Z    ALL  0     ROOT ALL Z 15
     8 SEL2       44 GROUP        1 Z    SEL  0     **** SEL Z 16
     9 GLL5        2 GROUP        1 Z    GLL  0     **** GLL Z 20
@<TRIPOS>SET

