#    Name: 4bnn_JUS_6_ligand
#    Modification time : Tue Mar 25 08:04:33 2014

@<TRIPOS>MOLECULE
4bnn_JUS_6_ligand
   43    44     1     0     0
SMALL
NO_CHARGES


@<TRIPOS>ATOM
      1 C1        -19.7840    4.8280   43.4490 C.ar      1 JUS1257     0.0000 
      2 C2        -20.4640    4.3260   44.5610 C.ar      1 JUS1257     0.0000 
      3 C3        -20.3850    4.9540   45.7990 C.ar      1 JUS1257     0.0000 
      4 C4        -19.5390    6.0450   45.9390 C.ar      1 JUS1257     0.0000 
      5 C5        -18.8410    6.5610   44.8430 C.ar      1 JUS1257     0.0000 
      6 C6        -18.9580    5.9400   43.5990 C.ar      1 JUS1257     0.0000 
      7 C8        -18.6270    8.8410   44.7400 C.ar      1 JUS1257     0.0000 
      8 C9        -19.9690    8.9680   44.3830 C.ar      1 JUS1257     0.0000 
      9 C10       -20.5500   10.2120   44.1320 C.ar      1 JUS1257     0.0000 
     10 C11       -19.7700   11.3560   44.2200 C.ar      1 JUS1257     0.0000 
     11 C12       -18.4360   11.2180   44.6010 C.ar      1 JUS1257     0.0000 
     12 C13       -17.8680    9.9810   44.8360 C.ar      1 JUS1257     0.0000 
     13 C14       -21.4370    3.1840   44.3800 C.3       1 JUS1257     0.0000 
     14 C15       -22.7150    3.8340   43.8770 C.3       1 JUS1257     0.0000 
     15 C16       -23.9180    3.0980   44.4320 C.3       1 JUS1257     0.0000 
     16 C17       -25.0380    2.9520   43.4000 C.3       1 JUS1257     0.0000 
     17 C18       -25.6820    4.2950   43.1470 C.3       1 JUS1257     0.0000 
     18 C19       -27.2000    4.1790   43.0460 C.3       1 JUS1257     0.0000 
     19 CAD       -16.4890    9.8480   45.1800 C.1       1 JUS1257     0.0000 
     20 O17       -18.2730    6.4540   42.5430 O.3       1 JUS1257     0.0000 
     21 NAB       -15.3980    9.7170   45.4510 N.1       1 JUS1257     0.0000 
     22 O7        -18.0080    7.6470   44.9830 O.3       1 JUS1257     0.0000 
     23 H         -19.8922    4.3831   42.5353 H         1 JUS1257     0.0000 
     24 H         -20.9379    4.6188   46.5871 H         1 JUS1257     0.0000 
     25 H         -19.4198    6.4867   46.8671 H         1 JUS1257     0.0000 
     26 H         -20.5539    8.1121   44.3013 H         1 JUS1257     0.0000 
     27 H         -21.5410   10.2756   43.8860 H         1 JUS1257     0.0000 
     28 H         -20.1579   12.2720   44.0128 H         1 JUS1257     0.0000 
     29 H         -17.8548   12.0767   44.7102 H         1 JUS1257     0.0000 
     30 H         -21.6205    2.7077   45.3177 H         1 JUS1257     0.0000 
     31 H         -21.0677    2.5016   43.6468 H         1 JUS1257     0.0000 
     32 H         -22.7353    3.7963   42.7912 H         1 JUS1257     0.0000 
     33 H         -22.7431    4.8712   44.1999 H         1 JUS1257     0.0000 
     34 H         -24.3068    3.6392   45.3027 H         1 JUS1257     0.0000 
     35 H         -23.6122    2.0997   44.7667 H         1 JUS1257     0.0000 
     36 H         -25.7794    2.2537   43.7783 H         1 JUS1257     0.0000 
     37 H         -24.6194    2.5646   42.4753 H         1 JUS1257     0.0000 
     38 H         -25.2950    4.7170   42.2148 H         1 JUS1257     0.0000 
     39 H         -25.4313    4.9807   43.9618 H         1 JUS1257     0.0000 
     40 H         -27.4774    3.5751   42.2988 H         1 JUS1257     0.0000 
     41 H         -27.6010    3.8107   43.8848 H         1 JUS1257     0.0000 
     42 H         -27.6301    5.0665   42.8806 H         1 JUS1257     0.0000 
     43 H         -18.8863    6.3477   41.7603 H         1 JUS1257     0.0000 
@<TRIPOS>BOND
     1    2    1 ar   
     2    6    1 ar   
     3   23    1 1    
     4    3    2 ar   
     5   13    2 1    
     6    4    3 ar   
     7   24    3 1    
     8    5    4 ar   
     9   25    4 1    
    10    6    5 ar   
    11   22    5 1    
    12   20    6 1    
    13    8    7 ar   
    14   12    7 ar   
    15   22    7 1    
    16    9    8 ar   
    17   26    8 1    
    18   10    9 ar   
    19   27    9 1    
    20   11   10 ar   
    21   28   10 1    
    22   12   11 ar   
    23   29   11 1    
    24   19   12 1    
    25   14   13 1    
    26   30   13 1    
    27   31   13 1    
    28   15   14 1    
    29   32   14 1    
    30   33   14 1    
    31   16   15 1    
    32   34   15 1    
    33   35   15 1    
    34   17   16 1    
    35   36   16 1    
    36   37   16 1    
    37   18   17 1    
    38   38   17 1    
    39   39   17 1    
    40   40   18 1    
    41   41   18 1    
    42   42   18 1    
    43   21   19 3    
    44   43   20 1    
@<TRIPOS>SUBSTRUCTURE
     1 JUS1257     1 GROUP   
@<TRIPOS>SET

