#    Name: 1yqy_915_1_INTS_M
#    Modification time : Mon Apr  7 15:51:33 2014

@<TRIPOS>MOLECULE
1yqy_915_1_INTS_M
   66     0    12     0     0
SMALL
NO_CHARGES


@<TRIPOS>ATOM
      1 CA          6.3100   18.6220   28.3790 C.3       4 GLC5        0.0000 
      2 CA          8.2930   19.4750   28.7070 C.3      12 GLL5        0.0000 
      3 CA          4.3270   17.7690   28.0510 C.3       8 GLP5        0.0000 
      4 CA          9.2730   22.0970   26.2255 C.3       4 GLC5        0.0000 
      5 CA          9.9470   21.2150   28.0390 C.3      12 GLL5        0.0000 
      6 CA          8.5990   22.9790   24.4120 C.3       8 GLP5        0.0000 
      7 CA         11.3500   22.2220   26.7680 C.3       4 GLC5        0.0000 
      8 CA         12.7530   23.2290   25.4970 C.3       8 GLP5        0.0000 
      9 CA          6.8865   22.6500   31.2020 C.3       4 GLC5        0.0000 
     10 CA          8.5230   22.0660   31.2740 C.3      12 GLL5        0.0000 
     11 CA          5.2500   23.2340   31.1300 C.3       8 GLP5        0.0000 
     12 CA          7.8730   22.9050   32.9565 C.3       4 GLC5        0.0000 
     13 CA          7.2230   23.7440   34.6390 C.3       8 GLP5        0.0000 
     14 CA          5.6795   18.7135   29.4790 C.3       4 GLC5        0.0000 
     15 CA          7.0320   19.6580   30.9070 C.3      12 GLL5        0.0000 
     16 CA          7.5910   17.9765   31.0535 C.3       4 GLC5        0.0000 
     17 CA          8.1500   16.2950   31.2000 C.3       8 GLP5        0.0000 
     18 Zn         11.8470   18.1560   28.6145 Zn        3 ZIC7        0.0000 
     19 Zn         10.4390   17.7900   26.5140 Zn       11 ZIL7        0.0000 
     20 Zn         13.2550   18.5220   30.7150 Zn        7 ZIP7        0.0000 
     21 CA         11.6665   18.5285   24.5185 C.3       4 GLC5        0.0000 
     22 CA         11.8990   17.9240   26.5070 C.3      12 GLL5        0.0000 
     23 CA         11.4340   19.1330   22.5300 C.3       8 GLP5        0.0000 
     24 CA         10.6600   16.7785   27.8900 C.3       4 GLC5        0.0000 
     25 CA          9.4210   15.6330   29.2730 C.3       8 GLP5        0.0000 
     26 O          13.4715   20.2070   26.5680 O.2       1 ALC1        0.0000 
     27 O          13.3900   19.4380   27.7230 O.2       9 ALL1        0.0000 
     28 O          13.5530   20.9760   25.4130 O.2       5 ALP1        0.0000 
     29 Zn         13.6120   19.2370   29.7940 Zn        3 ZIC7        0.0000 
     30 Zn         13.9690   19.9520   28.8730 Zn       11 ZIL7        0.0000 
     31 O          13.4520   21.3375   28.7525 O.2       1 ALC1        0.0000 
     32 O          13.9690   19.9520   28.8730 O.2       9 ALL1        0.0000 
     33 O          12.9350   22.7230   28.6320 O.2       5 ALP1        0.0000 
     34 O          14.4275   21.0665   29.1265 O.2       1 ALC1        0.0000 
     35 O          14.8860   22.1810   29.3800 O.2       5 ALP1        0.0000 
     36 Zn         12.7075   18.2605   29.8160 Zn        3 ZIC7        0.0000 
     37 Zn         12.1600   17.9990   28.9170 Zn       11 ZIL7        0.0000 
     38 N          11.3695   16.8160   28.7320 N.am      2 SEC2        0.0000 
     39 N          12.1600   17.9990   28.9170 N.am     10 SEL2        0.0000 
     40 N          10.5790   15.6330   28.5470 N.am      6 SEP2        0.0000 
     41 N          11.5415   19.7245   24.2430 N.am      2 SEC2        0.0000 
     42 N          10.3620   19.9620   25.4200 N.am     10 SEL2        0.0000 
     43 N          12.7210   19.4870   23.0660 N.am      6 SEP2        0.0000 
     44 N          10.9755   21.3585   25.0855 N.am      2 SEC2        0.0000 
     45 N          11.5890   22.7550   24.7510 N.am      6 SEP2        0.0000 
     46 CA         10.4215   15.1065   24.7145 C.3       4 GLC5        0.0000 
     47 CA         12.3710   15.9420   24.8220 C.3      12 GLL5        0.0000 
     48 CA          8.4720   14.2710   24.6070 C.3       8 GLP5        0.0000 
     49 CA         11.9025   17.5375   23.6760 C.3       4 GLC5        0.0000 
     50 CA          6.3955   21.5733   30.7720 C.3       4 GLC5        0.0000 
     51 CA          8.0500   20.1670   29.9210 C.3      12 GLL5        0.0000 
     52 CA          7.7378   22.8360   29.3313 C.3       4 GLC5        0.0000 
     53 CA          8.7620   21.3710   30.1500 C.3      12 GLL5        0.0000 
     54 CA          6.2260   24.0390   28.9720 C.3       8 GLP5        0.0000 
     55 CA         10.9440   21.4010   30.1775 C.3       4 GLC5        0.0000 
     56 CA          9.7370   21.8950   29.2310 C.3      12 GLL5        0.0000 
     57 CA         12.0460   21.2470   31.7200 C.3       8 GLP5        0.0000 
     58 CA          8.9741   23.8248   30.2711 C.3       4 GLC5        0.0000 
     59 CA          9.0620   25.8000   30.0600 C.3       8 GLP5        0.0000 
     60 CA          9.7762   21.5248   31.6259 C.3       4 GLC5        0.0000 
     61 CA         11.0880   21.6320   32.5970 C.3       8 GLP5        0.0000 
     62 CA         13.6408   15.9680   23.0420 C.3       4 GLC5        0.0000 
     63 CA         14.5160   16.6330   21.3920 C.3       8 GLP5        0.0000 
     64 CA         15.7200   17.4350   25.5980 C.3       4 GLC5        0.0000 
     65 CA         14.9420   15.4300   25.9930 C.3      12 GLL5        0.0000 
     66 CA         16.8640   18.7810   25.0470 C.3       8 GLP5        0.0000 
@<TRIPOS>BOND
@<TRIPOS>SUBSTRUCTURE
     1 ALC1       26 GROUP        1 X    ALC  0     ROOT ALC X 1
     2 SEC2       38 GROUP        1 X    SEC  0     **** SEC X 2
     3 ZIC7       18 GROUP        1 X    ZIC  0     **** ZIC X 5
     4 GLC5        1 GROUP        1 X    GLC  0     **** GLC X 6
     5 ALP1       28 GROUP        1 Y    ALP  0     ROOT ALP Y 8
     6 SEP2       40 GROUP        1 Y    SEP  0     **** SEP Y 9
     7 ZIP7       20 GROUP        1 Y    ZIP  0     **** ZIP Y 12
     8 GLP5        3 GROUP        1 Y    GLP  0     **** GLP Y 13
     9 ALL1       27 GROUP        1 Z    ALL  0     ROOT ALL Z 15
    10 SEL2       39 GROUP        1 Z    SEL  0     **** SEL Z 16
    11 ZIL7       19 GROUP        1 Z    ZIL  0     **** ZIL Z 19
    12 GLL5        2 GROUP        1 Z    GLL  0     **** GLL Z 20
@<TRIPOS>SET

