#    Name: 1yqy_915_1_ligand
#    Modification time : Mon Apr  7 15:51:33 2014

@<TRIPOS>MOLECULE
1yqy_915_1_ligand
   42    43     1     0     0
SMALL
NO_CHARGES


@<TRIPOS>ATOM
      1 C1          9.2270   20.0170   27.7680 C.ar      1 915782      0.0000 
      2 C2          8.2930   19.4750   28.7070 C.ar      1 915782      0.0000 
      3 C3          8.0500   20.1670   29.9210 C.ar      1 915782      0.0000 
      4 C4          8.7620   21.3710   30.1500 C.ar      1 915782      0.0000 
      5 C5          9.7370   21.8950   29.2310 C.ar      1 915782      0.0000 
      6 C6          9.9470   21.2150   28.0390 C.ar      1 915782      0.0000 
      7 F10         8.5230   22.0660   31.2740 F         1 915782      0.0000 
      8 C11         7.0320   19.6580   30.9070 C.3       1 915782      0.0000 
      9 S15         9.4700   19.1960   26.2210 S.o2      1 915782      0.0000 
     10 N16        10.4390   17.7900   26.5140 N.pl3     1 915782      0.0000 
     11 C17        11.8990   17.9240   26.5070 C.3       1 915782      0.0000 
     12 C18        12.4690   18.4380   27.8460 C.2       1 915782      0.0000 
     13 N19        13.3900   19.4380   27.7230 N.am      1 915782      0.0000 
     14 O20        13.9690   19.9520   28.8730 O.3       1 915782      0.0000 
     15 O21        12.1600   17.9990   28.9170 O.2       1 915782      0.0000 
     16 O22        10.3620   19.9620   25.4200 O.2       1 915782      0.0000 
     17 O23         8.1790   18.7420   25.7310 O.2       1 915782      0.0000 
     18 C27        12.6710   16.6260   26.2000 C.3       1 915782      0.0000 
     19 C29        12.3710   15.9420   24.8220 C.3       1 915782      0.0000 
     20 C30        13.1600   14.6640   24.5620 C.3       1 915782      0.0000 
     21 O31        14.5420   14.9270   24.7000 O.3       1 915782      0.0000 
     22 C32        14.9420   15.4300   25.9930 C.3       1 915782      0.0000 
     23 C33        14.2100   16.7480   26.3050 C.3       1 915782      0.0000 
     24 H           7.8144   18.6077   28.5020 H         1 915782      0.0000 
     25 H          10.2420   22.7348   29.4677 H         1 915782      0.0000 
     26 H          10.6148   21.5614   27.3461 H         1 915782      0.0000 
     27 H           9.9231   16.9992   26.6645 H         1 915782      0.0000 
     28 H          12.2180   18.6583   25.7462 H         1 915782      0.0000 
     29 H          13.6542   19.8073   26.8056 H         1 915782      0.0000 
     30 H          12.3850   15.8609   26.9730 H         1 915782      0.0000 
     31 H          12.5838   16.6748   24.0275 H         1 915782      0.0000 
     32 H          11.2919   15.7241   24.7807 H         1 915782      0.0000 
     33 H          12.9048   14.3152   23.5534 H         1 915782      0.0000 
     34 H          12.8106   13.9068   25.2751 H         1 915782      0.0000 
     35 H          16.0184   15.6305   26.0306 H         1 915782      0.0000 
     36 H          14.7028   14.7196   26.7920 H         1 915782      0.0000 
     37 H          14.4693   17.0697   27.3190 H         1 915782      0.0000 
     38 H          14.5504   17.5200   25.6071 H         1 915782      0.0000 
     39 H           7.2572   18.7397   31.2327 H         1 915782      0.0000 
     40 H           6.9682   20.2472   31.7125 H         1 915782      0.0000 
     41 H           6.1174   19.6105   30.5054 H         1 915782      0.0000 
     42 H          14.2009   20.8977   28.6454 H         1 915782      0.0000 
@<TRIPOS>BOND
     1    2    1 ar   
     2    6    1 ar   
     3    9    1 1    
     4    3    2 ar   
     5   24    2 1    
     6    4    3 ar   
     7    8    3 1    
     8    5    4 ar   
     9    7    4 1    
    10    6    5 ar   
    11   25    5 1    
    12   26    6 1    
    13   39    8 1    
    14   40    8 1    
    15   41    8 1    
    16   10    9 1    
    17   16    9 2    
    18   17    9 2    
    19   11   10 1    
    20   27   10 1    
    21   12   11 1    
    22   18   11 1    
    23   28   11 1    
    24   13   12 am   
    25   15   12 2    
    26   14   13 1    
    27   29   13 1    
    28   42   14 1    
    29   19   18 1    
    30   23   18 1    
    31   30   18 1    
    32   20   19 1    
    33   31   19 1    
    34   32   19 1    
    35   21   20 1    
    36   33   20 1    
    37   34   20 1    
    38   22   21 1    
    39   23   22 1    
    40   35   22 1    
    41   36   22 1    
    42   37   23 1    
    43   38   23 1    
@<TRIPOS>SUBSTRUCTURE
     1 915782      1 GROUP   
@<TRIPOS>SET

