#    Name: 4kp7_1UQ_1_INTS_M
#    Modification time : Tue Mar 25 08:16:42 2014

@<TRIPOS>MOLECULE
4kp7_1UQ_1_INTS_M
   66     0    12     0     0
SMALL
NO_CHARGES


@<TRIPOS>ATOM
      1 Zn         22.0625   -5.7590   18.1010 Zn        3 ZIC7        0.0000 
      2 Zn         22.0900   -6.0130   19.0880 Zn       11 ZIL7        0.0000 
      3 Zn         22.0350   -5.5050   17.1140 Zn        7 ZIP7        0.0000 
      4 N          20.5255   -6.1655   19.3895 N.am      1 SEC2        0.0000 
      5 N          22.0900   -6.0130   19.0880 N.am      9 SEL2        0.0000 
      6 N          18.9610   -6.3180   19.6910 N.am      5 SEP2        0.0000 
      7 N          21.6160   -5.2900   19.9905 N.am      1 SEC2        0.0000 
      8 N          21.1420   -4.5670   20.8930 N.am      5 SEP2        0.0000 
      9 CA         21.9020   -6.0345   21.1935 C.3       4 GLC5        0.0000 
     10 CA         23.6780   -6.8170   20.7590 C.3      12 GLL5        0.0000 
     11 CA         20.1260   -5.2520   21.6280 C.3       8 GLP5        0.0000 
     12 CA         24.4955   -7.7480   22.0035 C.3       4 GLC5        0.0000 
     13 CA         25.3130   -8.6790   23.2480 C.3       8 GLP5        0.0000 
     14 CA         22.3555   -7.8340   21.5885 C.3       4 GLC5        0.0000 
     15 CA         21.0330   -8.8510   22.4180 C.3       8 GLP5        0.0000 
     16 CA         23.1730   -8.4815   19.8910 C.3       4 GLC5        0.0000 
     17 CA         22.6680  -10.1460   19.0230 C.3       8 GLP5        0.0000 
     18 CA         25.4570   -8.5600   17.1125 C.3       4 GLC5        0.0000 
     19 CA         25.7140   -7.2400   18.5800 C.3      12 GLL5        0.0000 
     20 CA         25.2000   -9.8800   15.6450 C.3       8 GLP5        0.0000 
     21 CA         24.1910   -8.6930   18.8015 C.3       4 GLC5        0.0000 
     22 CA         28.7205   -6.9215   20.0920 C.3       4 GLC5        0.0000 
     23 CA         27.7350   -4.9910   20.2580 C.3      12 GLL5        0.0000 
     24 CA         29.7060   -8.8520   19.9260 C.3       8 GLP5        0.0000 
     25 N          29.4515   -2.5905   18.4560 N.am      1 SEC2        0.0000 
     26 N          28.9110   -3.2690   17.5050 N.am      9 SEL2        0.0000 
     27 N          29.9920   -1.9120   19.4070 N.am      5 SEP2        0.0000 
     28 N          29.7175   -4.1655   17.1410 N.am      1 SEC2        0.0000 
     29 N          30.5240   -5.0620   16.7770 N.am      5 SEP2        0.0000 
     30 NZ         25.6065   -2.3880   16.0385 N.4       2 LYC4        0.0000 
     31 NZ         27.1330   -3.4920   15.7680 N.4      10 LYL4        0.0000 
     32 NZ         24.0800   -1.2840   16.3090 N.4       6 LYP4        0.0000 
     33 N          26.2755   -4.4870   15.2620 N.am      1 SEC2        0.0000 
     34 N          27.1330   -3.4920   15.7680 N.am      9 SEL2        0.0000 
     35 N          25.4180   -5.4820   14.7560 N.am      5 SEP2        0.0000 
     36 NZ         25.4295   -1.5890   16.9385 N.4       2 LYC4        0.0000 
     37 NZ         26.7790   -1.8940   17.5680 N.4      10 LYL4        0.0000 
     38 N          27.2615   -0.6455   16.8310 N.am      1 SEC2        0.0000 
     39 N          26.7790   -1.8940   17.5680 N.am      9 SEL2        0.0000 
     40 N          27.7440    0.6030   16.0940 N.am      5 SEP2        0.0000 
     41 N          27.2890   -0.8050   18.3720 N.am      1 SEC2        0.0000 
     42 N          27.7990    0.2840   19.1760 N.am      5 SEP2        0.0000 
     43 N          25.4295   -1.5890   16.9385 N.am      1 SEC2        0.0000 
     44 N          24.0800   -1.2840   16.3090 N.am      5 SEP2        0.0000 
     45 CA         26.7885   -8.0075   16.3545 C.3       4 GLC5        0.0000 
     46 CA         26.9470   -6.1880   17.5760 C.3      12 GLL5        0.0000 
     47 CA         26.6300   -9.8270   15.1330 C.3       8 GLP5        0.0000 
     48 CA         28.8430   -6.1045   16.6760 C.3       4 GLC5        0.0000 
     49 CA         30.7390   -6.0210   15.7760 C.3       8 GLP5        0.0000 
     50 Zn         22.9670   -5.9865   17.1455 Zn        3 ZIC7        0.0000 
     51 Zn         23.8990   -6.4680   17.1770 Zn       11 ZIL7        0.0000 
     52 N          23.2980   -7.0265   15.8060 N.am      1 SEC2        0.0000 
     53 N          23.8990   -6.4680   17.1770 N.am      9 SEL2        0.0000 
     54 N          22.6970   -7.5850   14.4350 N.am      5 SEP2        0.0000 
     55 N          24.6585   -5.9750   15.9665 N.am      1 SEC2        0.0000 
     56 CA         27.1938   -8.1120   18.8515 C.3       4 GLC5        0.0000 
     57 CA         28.0570   -9.5100   19.6250 C.3       8 GLP5        0.0000 
     58 CA         28.3548   -2.8868   21.2175 C.3       4 GLC5        0.0000 
     59 CA         27.8950   -4.8690   21.6270 C.3      12 GLL5        0.0000 
     60 CA         29.2970   -1.2330   20.4290 C.3       8 GLP5        0.0000 
     61 CA         28.7923   -4.7332   23.4315 C.3       4 GLC5        0.0000 
     62 CA         30.1720   -4.9260   24.8570 C.3       8 GLP5        0.0000 
     63 CA         27.1223   -2.3302   22.7808 C.3       4 GLC5        0.0000 
     64 CA         26.9300   -4.2120   22.3850 C.3      12 GLL5        0.0000 
     65 CA         27.8960   -0.6950   23.4850 C.3       8 GLP5        0.0000 
     66 CA         27.8546   -2.7258   20.2949 C.3       4 GLC5        0.0000 
@<TRIPOS>BOND
@<TRIPOS>SUBSTRUCTURE
     1 SEC2        4 GROUP        1 X    SEC  0     ROOT SEC X 2
     2 LYC4       30 GROUP        1 X    LYC  0     **** LYC X 4
     3 ZIC7        1 GROUP        1 X    ZIC  0     **** ZIC X 5
     4 GLC5        9 GROUP        1 X    GLC  0     **** GLC X 6
     5 SEP2        6 GROUP        1 Y    SEP  0     ROOT SEP Y 9
     6 LYP4       32 GROUP        1 Y    LYP  0     **** LYP Y 11
     7 ZIP7        3 GROUP        1 Y    ZIP  0     **** ZIP Y 12
     8 GLP5       11 GROUP        1 Y    GLP  0     **** GLP Y 13
     9 SEL2        5 GROUP        1 Z    SEL  0     ROOT SEL Z 16
    10 LYL4       31 GROUP        1 Z    LYL  0     **** LYL Z 18
    11 ZIL7        2 GROUP        1 Z    ZIL  0     **** ZIL Z 19
    12 GLL5       10 GROUP        1 Z    GLL  0     **** GLL Z 20
@<TRIPOS>SET

