#    Name: 4kp7_1UQ_1_ligand
#    Modification time : Tue Mar 25 08:16:43 2014

@<TRIPOS>MOLECULE
4kp7_1UQ_1_ligand
   29    29     1     0     0
SMALL
NO_CHARGES


@<TRIPOS>ATOM
      1 C2         24.2400   -6.6870   18.3440 C.2       1 1UQ503      0.0000 
      2 O4         22.0900   -6.0130   19.0880 O.3       1 1UQ503      0.0000 
      3 C5         23.6780   -6.8170   20.7590 C.3       1 1UQ503      0.0000 
      4 C6         25.7140   -7.2400   18.5800 C.3       1 1UQ503      0.0000 
      5 C19        26.9300   -4.2120   22.3850 C.ar      1 1UQ503      0.0000 
      6 C15        27.8950   -4.8690   21.6270 C.ar      1 1UQ503      0.0000 
      7 C14        27.7350   -4.9910   20.2580 C.ar      1 1UQ503      0.0000 
      8 C17        25.7670   -3.7190   21.7680 C.ar      1 1UQ503      0.0000 
      9 C16        25.6560   -3.7330   20.3850 C.ar      1 1UQ503      0.0000 
     10 C13        26.6020   -4.4170   19.6150 C.ar      1 1UQ503      0.0000 
     11 C8         26.4430   -4.5160   18.1190 C.3       1 1UQ503      0.0000 
     12 P9         27.3460   -3.2520   17.2160 P.3       1 1UQ503      0.0000 
     13 O12        28.9110   -3.2690   17.5050 O.co2     1 1UQ503      0.0000 
     14 O11        27.1330   -3.4920   15.7680 O.co2     1 1UQ503      0.0000 
     15 O10        26.7790   -1.8940   17.5680 O.co2     1 1UQ503      0.0000 
     16 S7         26.9470   -6.1880   17.5760 S.3       1 1UQ503      0.0000 
     17 O1         23.8990   -6.4680   17.1770 O.2       1 1UQ503      0.0000 
     18 N3         23.3370   -6.4900   19.3810 N.am      1 1UQ503      0.0000 
     19 H          25.8749   -8.1859   18.1708 H         1 1UQ503      0.0000 
     20 H          26.0646   -7.0910   19.5511 H         1 1UQ503      0.0000 
     21 H          27.0616   -4.0844   23.3940 H         1 1UQ503      0.0000 
     22 H          28.7265   -5.2629   22.0884 H         1 1UQ503      0.0000 
     23 H          28.4250   -5.4932   19.6891 H         1 1UQ503      0.0000 
     24 H          25.0045   -3.3504   22.3477 H         1 1UQ503      0.0000 
     25 H          24.8810   -3.2426   19.9222 H         1 1UQ503      0.0000 
     26 H          25.4382   -4.4414   17.7860 H         1 1UQ503      0.0000 
     27 H          23.8998   -7.7861   20.8667 H         1 1UQ503      0.0000 
     28 H          24.4705   -6.2976   21.0788 H         1 1UQ503      0.0000 
     29 H          22.9245   -6.6174   21.3854 H         1 1UQ503      0.0000 
@<TRIPOS>BOND
     1    4    1 1    
     2   17    1 2    
     3   18    1 am   
     4   18    2 1    
     5   18    3 1    
     6   27    3 1    
     7   28    3 1    
     8   29    3 1    
     9   16    4 1    
    10   19    4 1    
    11   20    4 1    
    12    6    5 ar   
    13    8    5 ar   
    14   21    5 1    
    15    7    6 ar   
    16   22    6 1    
    17   10    7 ar   
    18   23    7 1    
    19    9    8 ar   
    20   24    8 1    
    21   10    9 ar   
    22   25    9 1    
    23   11   10 1    
    24   12   11 1    
    25   16   11 1    
    26   26   11 1    
    27   13   12 ar   
    28   14   12 ar   
    29   15   12 ar   
@<TRIPOS>SUBSTRUCTURE
     1 1UQ503      1 GROUP   
@<TRIPOS>SET

