#    Name: 3roa_06V_2_INTS_M
#    Modification time : Tue Mar 25 11:45:04 2014

@<TRIPOS>MOLECULE
3roa_06V_2_INTS_M
   81     0     9     0     0
SMALL
NO_CHARGES


@<TRIPOS>ATOM
      1 CA         33.2790    4.9470   32.3230 C.3       3 GLC5        0.0000 
      2 CA         32.1400    4.8660   34.0730 C.3       9 GLL5        0.0000 
      3 CA         34.4180    5.0280   30.5730 C.3       6 GLP5        0.0000 
      4 CA         31.6845    3.3785   32.8555 C.3       3 GLC5        0.0000 
      5 CA         31.2290    1.8910   31.6380 C.3       6 GLP5        0.0000 
      6 CA         31.7760    3.2805   35.2595 C.3       3 GLC5        0.0000 
      7 CA         31.4120    1.6950   36.4460 C.3       6 GLP5        0.0000 
      8 CA         32.8780    6.7040   34.4490 C.3       3 GLC5        0.0000 
      9 CA         33.6160    8.5420   34.8250 C.3       6 GLP5        0.0000 
     10 N          32.1130    5.1935   36.3920 N.am      2 SEC2        0.0000 
     11 N          31.5700    5.4210   35.2240 N.am      8 SEL2        0.0000 
     12 N          32.6560    4.9660   37.5600 N.am      5 SEP2        0.0000 
     13 CA         30.7635    3.8125   32.1990 C.3       3 GLC5        0.0000 
     14 CA         30.2980    5.7340   32.7600 C.3       9 GLL5        0.0000 
     15 CA         29.1285   11.6435   37.1490 C.3       3 GLC5        0.0000 
     16 CA         27.9260   12.7780   36.2500 C.3       9 GLL5        0.0000 
     17 CA         30.3310   10.5090   38.0480 C.3       6 GLP5        0.0000 
     18 CA         25.9595   13.5420   35.6805 C.3       3 GLC5        0.0000 
     19 CA         23.9930   14.3060   35.1110 C.3       6 GLP5        0.0000 
     20 O          33.8345    4.0980   35.4025 O.2       1 ALC1        0.0000 
     21 O          33.2780    4.1930   34.1680 O.2       7 ALL1        0.0000 
     22 O          34.3910    4.0030   36.6370 O.2       4 ALP1        0.0000 
     23 CA         28.0180    6.4585   37.6665 C.3       3 GLC5        0.0000 
     24 CA         29.7870    6.7070   36.4570 C.3       9 GLL5        0.0000 
     25 CA         26.2490    6.2100   38.8760 C.3       6 GLP5        0.0000 
     26 O          28.5265    6.0075   30.7815 O.2       1 ALC1        0.0000 
     27 O          29.7150    5.8770   31.5780 O.2       7 ALL1        0.0000 
     28 O          27.3380    6.1380   29.9850 O.2       4 ALP1        0.0000 
     29 CA         29.9825    7.9370   32.7900 C.3       3 GLC5        0.0000 
     30 CA         28.5260    7.0350   33.8940 C.3       9 GLL5        0.0000 
     31 CA         31.4390    8.8390   31.6860 C.3       6 GLP5        0.0000 
     32 CA         29.1000    8.8390   32.9180 C.3       3 GLC5        0.0000 
     33 CA         27.4890    7.6670   33.8820 C.3       9 GLL5        0.0000 
     34 CA         30.7110   10.0110   31.9540 C.3       6 GLP5        0.0000 
     35 CA         25.2360   10.8735   32.5285 C.3       3 GLC5        0.0000 
     36 CA         26.2680    9.3460   32.6060 C.3       9 GLL5        0.0000 
     37 CA         24.2040   12.4010   32.4510 C.3       6 GLP5        0.0000 
     38 CA         26.9475    9.8520   31.0015 C.3       3 GLC5        0.0000 
     39 CA         27.6270   10.3580   29.3970 C.3       6 GLP5        0.0000 
     40 CA         24.0515   11.8965   37.9985 C.3       3 GLC5        0.0000 
     41 CA         25.2350   10.4350   37.5190 C.3       9 GLL5        0.0000 
     42 CA         22.8680   13.3580   38.4780 C.3       6 GLP5        0.0000 
     43 CA         28.2920   10.7380   37.3835 C.3       3 GLC5        0.0000 
     44 CA         26.2530   10.9670   36.7190 C.3       9 GLL5        0.0000 
     45 CA         28.4295   11.6370   38.2505 C.3       3 GLC5        0.0000 
     46 CA         26.5280   12.7650   38.4530 C.3       9 GLL5        0.0000 
     47 CA         25.2605   13.5355   36.7820 C.3       3 GLC5        0.0000 
     48 CA         24.6980   13.0615   38.4655 C.3       3 GLC5        0.0000 
     49 CA         29.4560   12.8480   38.4235 C.3       3 GLC5        0.0000 
     50 CA         27.5880   13.7100   39.0530 C.3       9 GLL5        0.0000 
     51 CA         31.3240   11.9860   37.7940 C.3       6 GLP5        0.0000 
     52 CA         27.0460   15.5750   38.9655 C.3       3 GLC5        0.0000 
     53 CA         26.5040   17.4400   38.8780 C.3       6 GLP5        0.0000 
     54 CA         29.7805   13.0875   37.2630 C.3       3 GLC5        0.0000 
     55 CA         28.2370   14.1890   36.7320 C.3       9 GLL5        0.0000 
     56 CA         27.1570   15.6675   37.0970 C.3       3 GLC5        0.0000 
     57 CA         26.0770   17.1460   37.4620 C.3       6 GLP5        0.0000 
     58 CA         32.2400    8.0125   36.0015 C.3       3 GLC5        0.0000 
     59 CA         30.8640    7.4830   37.1780 C.3       9 GLL5        0.0000 
     60 CA         22.9210   11.4535   38.6835 C.3       3 GLC5        0.0000 
     61 CA         22.9740    9.5490   38.8890 C.3       9 GLL5        0.0000 
     62 CA         31.5892    7.6080   35.0685 C.3       3 GLC5        0.0000 
     63 CA         32.5920    9.0460   33.8340 C.3       6 GLP5        0.0000 
     64 CA         27.9642   14.1683   34.8200 C.3       3 GLC5        0.0000 
     65 CA         27.8470   14.8530   33.1490 C.3       6 GLP5        0.0000 
     66 CA         30.3282    8.8020   37.4327 C.3       3 GLC5        0.0000 
     67 CA         27.2377    5.8935   33.3450 C.3       3 GLC5        0.0000 
     68 CA         26.4680    4.4360   32.8020 C.3       6 GLP5        0.0000 
     69 CA         24.7620    8.4100   32.1445 C.3       3 GLC5        0.0000 
     70 CA         26.2240    8.4120   33.8120 C.3       9 GLL5        0.0000 
     71 CA         23.2780    7.9410   31.0800 C.3       6 GLP5        0.0000 
     72 CA         25.7885    6.9320   32.7050 C.3       3 GLC5        0.0000 
     73 CA         25.3310    4.9850   32.2010 C.3       6 GLP5        0.0000 
     74 CA         25.4917    7.5905   37.7025 C.3       3 GLC5        0.0000 
     75 CA         24.9110    8.6640   35.9300 C.3       9 GLL5        0.0000 
     76 CA         24.2462   10.5375   35.2025 C.3       3 GLC5        0.0000 
     77 CA         24.5580    9.2780   37.1280 C.3       9 GLL5        0.0000 
     78 CA         23.7580   12.1040   33.8760 C.3       6 GLP5        0.0000 
     79 CA         24.7510   11.4025   35.4975 C.3       3 GLC5        0.0000 
     80 CA         25.0483   10.8326   34.4334 C.3       3 GLC5        0.0000 
     81 CA         26.6030   10.3310   35.5150 C.3       9 GLL5        0.0000 
@<TRIPOS>BOND
@<TRIPOS>SUBSTRUCTURE
     1 ALC1       20 GROUP        1 X    ALC  0     ROOT ALC X 1
     2 SEC2       10 GROUP        1 X    SEC  0     **** SEC X 2
     3 GLC5        1 GROUP        1 X    GLC  0     **** GLC X 6
     4 ALP1       22 GROUP        1 Y    ALP  0     ROOT ALP Y 8
     5 SEP2       12 GROUP        1 Y    SEP  0     **** SEP Y 9
     6 GLP5        3 GROUP        1 Y    GLP  0     **** GLP Y 13
     7 ALL1       21 GROUP        1 Z    ALL  0     ROOT ALL Z 15
     8 SEL2       11 GROUP        1 Z    SEL  0     **** SEL Z 16
     9 GLL5        2 GROUP        1 Z    GLL  0     **** GLL Z 20
@<TRIPOS>SET

