#    Name: 3roa_06V_2_ligand
#    Modification time : Tue Mar 25 11:45:04 2014

@<TRIPOS>MOLECULE
3roa_06V_2_ligand
   55    57     1     0     0
SMALL
NO_CHARGES


@<TRIPOS>ATOM
      1 N1         31.5000    5.0190   32.8400 N.ar      1 06V1        0.0000 
      2 C2         32.1400    4.8660   34.0730 C.ar      1 06V1        0.0000 
      3 N3         31.5700    5.4210   35.2240 N.ar      1 06V1        0.0000 
      4 C4         30.3620    6.1370   35.1580 C.ar      1 06V1        0.0000 
      5 C5         29.7390    6.2910   33.9200 C.ar      1 06V1        0.0000 
      6 C6         30.2980    5.7340   32.7600 C.ar      1 06V1        0.0000 
      7 CAA        27.9260   12.7780   36.2500 C.3       1 06V1        0.0000 
      8 NAH        33.2780    4.1930   34.1680 N.pl3     1 06V1        0.0000 
      9 CAI        29.7870    6.7070   36.4570 C.3       1 06V1        0.0000 
     10 NAJ        29.7150    5.8770   31.5780 N.pl3     1 06V1        0.0000 
     11 CAK        28.5260    7.0350   33.8940 C.1       1 06V1        0.0000 
     12 CAL        27.4890    7.6670   33.8820 C.1       1 06V1        0.0000 
     13 CAM        26.2240    8.4120   33.8120 C.3       1 06V1        0.0000 
     14 CAN        26.2680    9.3460   32.6060 C.3       1 06V1        0.0000 
     15 CAO        25.9240    9.1710   35.1210 C.ar      1 06V1        0.0000 
     16 CAP        24.9110    8.6640   35.9300 C.ar      1 06V1        0.0000 
     17 CAQ        24.5580    9.2780   37.1280 C.ar      1 06V1        0.0000 
     18 CAR        25.2350   10.4350   37.5190 C.ar      1 06V1        0.0000 
     19 CAS        26.2530   10.9670   36.7190 C.ar      1 06V1        0.0000 
     20 CAT        26.6030   10.3310   35.5150 C.ar      1 06V1        0.0000 
     21 NAU        26.9080   12.1480   37.1350 N.3       1 06V1        0.0000 
     22 CAV        26.5280   12.7650   38.4530 C.3       1 06V1        0.0000 
     23 CAW        27.5880   13.7100   39.0530 C.3       1 06V1        0.0000 
     24 OAX        28.6470   14.1230   38.1390 O.3       1 06V1        0.0000 
     25 CAY        28.2370   14.1890   36.7320 C.3       1 06V1        0.0000 
     26 CAZ        30.8640    7.4830   37.1780 C.3       1 06V1        0.0000 
     27 OBA        23.5610    8.7080   37.8760 O.3       1 06V1        0.0000 
     28 CBB        22.9740    9.5490   38.8890 C.3       1 06V1        0.0000 
     29 H          27.5544   12.8299   35.2260 H         1 06V1        0.0000 
     30 H          28.8461   12.1926   36.2582 H         1 06V1        0.0000 
     31 H          33.6405    3.8188   33.3144 H         1 06V1        0.0000 
     32 H          33.6710    4.1204   35.0846 H         1 06V1        0.0000 
     33 H          29.4417    5.8904   37.0797 H         1 06V1        0.0000 
     34 H          28.9572    7.3620   36.2196 H         1 06V1        0.0000 
     35 H          30.3279    5.9594   30.7922 H         1 06V1        0.0000 
     36 H          28.7151    5.8895   31.5792 H         1 06V1        0.0000 
     37 H          25.4024    7.7033   33.6441 H         1 06V1        0.0000 
     38 H          24.4060    7.8060   35.6320 H         1 06V1        0.0000 
     39 H          24.9847   10.9013   38.4018 H         1 06V1        0.0000 
     40 H          27.3491   10.7148   34.9321 H         1 06V1        0.0000 
     41 H          26.3217   11.9661   39.1912 H         1 06V1        0.0000 
     42 H          25.5851   13.3338   38.3386 H         1 06V1        0.0000 
     43 H          28.0188   13.2002   39.9465 H         1 06V1        0.0000 
     44 H          27.0492   14.5997   39.4554 H         1 06V1        0.0000 
     45 H          27.3451   14.7995   36.6166 H         1 06V1        0.0000 
     46 H          29.0328   14.5988   36.1153 H         1 06V1        0.0000 
     47 H          27.0227    9.9990   32.6693 H         1 06V1        0.0000 
     48 H          26.3872    8.8424   31.7504 H         1 06V1        0.0000 
     49 H          25.4262    9.8786   32.5178 H         1 06V1        0.0000 
     50 H          31.6468    6.9051   37.4089 H         1 06V1        0.0000 
     51 H          31.2114    8.2391   36.6234 H         1 06V1        0.0000 
     52 H          30.5282    7.8771   38.0335 H         1 06V1        0.0000 
     53 H          23.6520    9.8524   39.5585 H         1 06V1        0.0000 
     54 H          22.5618   10.3711   38.4962 H         1 06V1        0.0000 
     55 H          22.2545    9.0736   39.3952 H         1 06V1        0.0000 
@<TRIPOS>BOND
     1    2    1 ar   
     2    6    1 ar   
     3    3    2 ar   
     4    8    2 1    
     5    4    3 ar   
     6    5    4 ar   
     7    9    4 1    
     8    6    5 ar   
     9   11    5 1    
    10   10    6 1    
    11   21    7 1    
    12   25    7 1    
    13   29    7 1    
    14   30    7 1    
    15   31    8 1    
    16   32    8 1    
    17   26    9 1    
    18   33    9 1    
    19   34    9 1    
    20   35   10 1    
    21   36   10 1    
    22   12   11 3    
    23   13   12 1    
    24   14   13 1    
    25   15   13 1    
    26   37   13 1    
    27   47   14 1    
    28   48   14 1    
    29   49   14 1    
    30   16   15 ar   
    31   20   15 ar   
    32   17   16 ar   
    33   38   16 1    
    34   18   17 ar   
    35   27   17 1    
    36   19   18 ar   
    37   39   18 1    
    38   20   19 ar   
    39   21   19 1    
    40   40   20 1    
    41   22   21 1    
    42   23   22 1    
    43   41   22 1    
    44   42   22 1    
    45   24   23 1    
    46   43   23 1    
    47   44   23 1    
    48   25   24 1    
    49   45   25 1    
    50   46   25 1    
    51   50   26 1    
    52   51   26 1    
    53   52   26 1    
    54   28   27 1    
    55   53   28 1    
    56   54   28 1    
    57   55   28 1    
@<TRIPOS>SUBSTRUCTURE
     1 06V1        1 GROUP   
@<TRIPOS>SET

