#    Name: 2b0q_ADP_1_INTS_M
#    Modification time : Mon Mar 24 19:46:44 2014

@<TRIPOS>MOLECULE
2b0q_ADP_1_INTS_M
   71     0    15     0     0
SMALL
NO_CHARGES


@<TRIPOS>ATOM
      1 NZ         62.4895    5.9575 -274.2010 N.4       3 LYC4        0.0000 
      2 NZ         61.8610    7.4630 -274.1700 N.4      13 LYL4        0.0000 
      3 NZ         63.1180    4.4520 -274.2320 N.4       8 LYP4        0.0000 
      4 Zn         61.4200    7.6720 -275.1920 Zn        4 ZIC7        0.0000 
      5 Zn         61.8610    7.4630 -274.1700 Zn       14 ZIL7        0.0000 
      6 Zn         60.9790    7.8810 -276.2140 Zn        9 ZIP7        0.0000 
      7 N          60.3870    7.3050 -273.2495 N.am      2 SEC2        0.0000 
      8 N          61.8610    7.4630 -274.1700 N.am     12 SEL2        0.0000 
      9 N          58.9130    7.1470 -272.3290 N.am      7 SEP2        0.0000 
     10 N          62.4895    5.9575 -274.2010 N.am      2 SEC2        0.0000 
     11 N          63.1180    4.4520 -274.2320 N.am      7 SEP2        0.0000 
     12 N          59.7550    9.3440 -271.8095 N.am      2 SEC2        0.0000 
     13 N          61.2780    8.5120 -271.9330 N.am     12 SEL2        0.0000 
     14 N          58.2320   10.1760 -271.6860 N.am      7 SEP2        0.0000 
     15 N          60.0955    7.8295 -272.1310 N.am      2 SEC2        0.0000 
     16 Zn         63.9215   10.2590 -273.7075 Zn        4 ZIC7        0.0000 
     17 Zn         62.8230    9.6950 -273.4880 Zn       14 ZIL7        0.0000 
     18 Zn         65.0200   10.8230 -273.9270 Zn        9 ZIP7        0.0000 
     19 NZ         64.1260    5.2800 -273.8965 N.4       3 LYC4        0.0000 
     20 NZ         65.1340    6.1080 -273.5610 N.4      13 LYL4        0.0000 
     21 N          64.1260    5.2800 -273.8965 N.am      2 SEC2        0.0000 
     22 N          65.1340    6.1080 -273.5610 N.am     12 SEL2        0.0000 
     23 Zn         65.1160    9.7335 -273.8650 Zn        4 ZIC7        0.0000 
     24 Zn         65.2120    8.6440 -273.8030 Zn       14 ZIL7        0.0000 
     25 CA         63.7830    9.5350 -270.3690 C.3       5 GLC5        0.0000 
     26 CA         65.7120    8.5190 -270.6880 C.3      15 GLL5        0.0000 
     27 CA         61.8540   10.5510 -270.0500 C.3      10 GLP5        0.0000 
     28 CA         64.6715    7.2540 -269.7995 C.3       5 GLC5        0.0000 
     29 CA         63.6310    5.9890 -268.9110 C.3      10 GLP5        0.0000 
     30 CA         66.5035    7.4995 -269.2440 C.3       5 GLC5        0.0000 
     31 CA         67.0080    9.2480 -270.3610 C.3      15 GLL5        0.0000 
     32 CA         65.9990    5.7510 -268.1270 C.3      10 GLP5        0.0000 
     33 O          68.0455   11.3415 -273.2850 O.2       1 ALC1        0.0000 
     34 O          67.6130   10.9670 -271.9380 O.2      11 ALL1        0.0000 
     35 O          68.4780   11.7160 -274.6320 O.2       6 ALP1        0.0000 
     36 CA         70.1545   11.4615 -271.3500 C.3       5 GLC5        0.0000 
     37 CA         69.2720    9.4790 -270.9960 C.3      15 GLL5        0.0000 
     38 CA         71.0370   13.4440 -271.7040 C.3      10 GLP5        0.0000 
     39 CA         70.9750    9.0840 -272.4100 C.3       5 GLC5        0.0000 
     40 CA         72.6780    8.6890 -273.8240 C.3      10 GLP5        0.0000 
     41 CA         69.7585    7.0620 -268.8385 C.3       5 GLC5        0.0000 
     42 CA         69.2020    8.2770 -270.0620 C.3      15 GLL5        0.0000 
     43 CA         70.3150    5.8470 -267.6150 C.3      10 GLP5        0.0000 
     44 CA         73.6945    3.7195 -271.3265 C.3       5 GLC5        0.0000 
     45 CA         71.8100    4.5840 -271.9300 C.3      15 GLL5        0.0000 
     46 CA         75.5790    2.8550 -270.7230 C.3      10 GLP5        0.0000 
     47 CA         73.3275    5.2005 -273.2000 C.3       5 GLC5        0.0000 
     48 CA         74.8450    5.8170 -274.4700 C.3      10 GLP5        0.0000 
     49 CA         71.3435    5.0250 -273.8610 C.3       5 GLC5        0.0000 
     50 CA         70.8770    5.4660 -275.7920 C.3      10 GLP5        0.0000 
     51 O          72.8565    2.2800 -272.3450 O.2       1 ALC1        0.0000 
     52 O          71.8210    3.3890 -272.4990 O.2      11 ALL1        0.0000 
     53 O          73.8920    1.1710 -272.1910 O.2       6 ALP1        0.0000 
     54 N          74.2025    4.6840 -272.2130 N.am      2 SEC2        0.0000 
     55 N          72.9940    5.2000 -271.6750 N.am     12 SEL2        0.0000 
     56 N          75.4110    4.1680 -272.7510 N.am      7 SEP2        0.0000 
     57 CA         74.7890    5.6585 -270.3375 C.3       5 GLC5        0.0000 
     58 CA         73.0060    6.4140 -271.0990 C.3      15 GLL5        0.0000 
     59 CA         76.5720    4.9030 -269.5760 C.3      10 GLP5        0.0000 
     60 CA         73.9255    6.1155 -272.7845 C.3       5 GLC5        0.0000 
     61 CA         66.8817   11.2470 -270.5952 C.3       5 GLC5        0.0000 
     62 CA         67.8610    9.6060 -271.5820 C.3      15 GLL5        0.0000 
     63 CA         66.3290   13.0670 -270.2190 C.3      10 GLP5        0.0000 
     64 CA         69.0646    8.2789 -272.5108 C.3       5 GLC5        0.0000 
     65 CA         69.2450    7.6480 -274.3460 C.3      10 GLP5        0.0000 
     66 CA         70.8257    3.6065 -270.3367 C.3       5 GLC5        0.0000 
     67 CA         70.6110    5.2640 -271.5650 C.3      15 GLL5        0.0000 
     68 CA         70.4410    2.2890 -268.9260 C.3      10 GLP5        0.0000 
     69 CA         70.3218    3.0680 -272.2707 C.3       5 GLC5        0.0000 
     70 CA         69.4330    1.2120 -272.7940 C.3      10 GLP5        0.0000 
     71 CA         69.9690    6.7652 -272.8093 C.3       5 GLC5        0.0000 
@<TRIPOS>BOND
@<TRIPOS>SUBSTRUCTURE
     1 ALC1       33 GROUP        1 X    ALC  0     ROOT ALC X 1
     2 SEC2        7 GROUP        1 X    SEC  0     **** SEC X 2
     3 LYC4        1 GROUP        1 X    LYC  0     **** LYC X 4
     4 ZIC7        4 GROUP        1 X    ZIC  0     **** ZIC X 5
     5 GLC5       25 GROUP        1 X    GLC  0     **** GLC X 6
     6 ALP1       35 GROUP        1 Y    ALP  0     ROOT ALP Y 8
     7 SEP2        9 GROUP        1 Y    SEP  0     **** SEP Y 9
     8 LYP4        3 GROUP        1 Y    LYP  0     **** LYP Y 11
     9 ZIP7        6 GROUP        1 Y    ZIP  0     **** ZIP Y 12
    10 GLP5       27 GROUP        1 Y    GLP  0     **** GLP Y 13
    11 ALL1       34 GROUP        1 Z    ALL  0     ROOT ALL Z 15
    12 SEL2        8 GROUP        1 Z    SEL  0     **** SEL Z 16
    13 LYL4        2 GROUP        1 Z    LYL  0     **** LYL Z 18
    14 ZIL7        5 GROUP        1 Z    ZIL  0     **** ZIL Z 19
    15 GLL5       26 GROUP        1 Z    GLL  0     **** GLL Z 20
@<TRIPOS>SET

