#    Name: 2b0q_ADP_1_ligand
#    Modification time : Mon Mar 24 19:46:44 2014

@<TRIPOS>MOLECULE
2b0q_ADP_1_ligand
   39    41     1     0     0
SMALL
NO_CHARGES


@<TRIPOS>ATOM
      1 PB         62.2580    8.2710 -272.9910 P.3       1 ADP300      0.0000 
      2 O1B        61.8610    7.4630 -274.1700 O.co2     1 ADP300      0.0000 
      3 O2B        61.2780    8.5120 -271.9330 O.co2     1 ADP300      0.0000 
      4 O3B        62.8230    9.6950 -273.4880 O.co2     1 ADP300      0.0000 
      5 PA         64.9870    7.4460 -272.9770 P.3       1 ADP300      0.0000 
      6 O1A        65.1340    6.1080 -273.5610 O.co2     1 ADP300      0.0000 
      7 O2A        65.2120    8.6440 -273.8030 O.co2     1 ADP300      0.0000 
      8 O3A        63.5310    7.5710 -272.3180 O.3       1 ADP300      0.0000 
      9 O5'        65.9330    7.5210 -271.6890 O.3       1 ADP300      0.0000 
     10 C5'        65.7120    8.5190 -270.6880 C.3       1 ADP300      0.0000 
     11 C4'        67.0080    9.2480 -270.3610 C.3       1 ADP300      0.0000 
     12 O4'        67.8750    8.4190 -269.5670 O.3       1 ADP300      0.0000 
     13 C3'        67.8610    9.6060 -271.5820 C.3       1 ADP300      0.0000 
     14 O3'        67.6130   10.9670 -271.9380 O.3       1 ADP300      0.0000 
     15 C2'        69.2720    9.4790 -270.9960 C.3       1 ADP300      0.0000 
     16 O2'        69.5480   10.6370 -270.2000 O.3       1 ADP300      0.0000 
     17 C1'        69.2020    8.2770 -270.0620 C.3       1 ADP300      0.0000 
     18 N9         69.5170    6.9710 -270.7050 N.pl3     1 ADP300      0.0000 
     19 C8         68.6670    5.9780 -271.1510 C.2       1 ADP300      0.0000 
     20 N7         69.2700    4.9430 -271.6720 N.2       1 ADP300      0.0000 
     21 C5         70.6110    5.2640 -271.5650 C.ar      1 ADP300      0.0000 
     22 C6         71.8100    4.5840 -271.9300 C.ar      1 ADP300      0.0000 
     23 N6         71.8210    3.3890 -272.4990 N.pl3     1 ADP300      0.0000 
     24 N1         72.9940    5.2000 -271.6750 N.ar      1 ADP300      0.0000 
     25 C2         73.0060    6.4140 -271.0990 C.ar      1 ADP300      0.0000 
     26 N3         71.9580    7.1470 -270.7140 N.ar      1 ADP300      0.0000 
     27 C4         70.7750    6.5010 -270.9800 C.ar      1 ADP300      0.0000 
     28 H          65.3292    8.0778 -269.7558 H         1 ADP300      0.0000 
     29 H          64.9785    9.2685 -271.0204 H         1 ADP300      0.0000 
     30 H          66.7931   10.1613 -269.8304 H         1 ADP300      0.0000 
     31 H          67.7240    8.9097 -272.3185 H         1 ADP300      0.0000 
     32 H          69.9552    9.3029 -271.7512 H         1 ADP300      0.0000 
     33 H          69.9061    8.4910 -269.2521 H         1 ADP300      0.0000 
     34 H          67.6683    6.0801 -271.0642 H         1 ADP300      0.0000 
     35 H          72.7204    3.0258 -272.7423 H         1 ADP300      0.0000 
     36 H          70.9289    2.9577 -272.6340 H         1 ADP300      0.0000 
     37 H          73.9978    6.8535 -270.9253 H         1 ADP300      0.0000 
     38 H          67.9747   11.0618 -272.8655 H         1 ADP300      0.0000 
     39 H          68.9336   11.3441 -270.5502 H         1 ADP300      0.0000 
@<TRIPOS>BOND
     1    2    1 ar   
     2    3    1 ar   
     3    4    1 ar   
     4    8    1 1    
     5    6    5 ar   
     6    7    5 ar   
     7    8    5 1    
     8    9    5 1    
     9   10    9 1    
    10   11   10 1    
    11   28   10 1    
    12   29   10 1    
    13   12   11 1    
    14   13   11 1    
    15   30   11 1    
    16   17   12 1    
    17   14   13 1    
    18   15   13 1    
    19   31   13 1    
    20   38   14 1    
    21   16   15 1    
    22   17   15 1    
    23   32   15 1    
    24   39   16 1    
    25   18   17 1    
    26   33   17 1    
    27   19   18 1    
    28   27   18 1    
    29   20   19 2    
    30   34   19 1    
    31   21   20 1    
    32   22   21 ar   
    33   27   21 ar   
    34   23   22 1    
    35   24   22 ar   
    36   35   23 1    
    37   36   23 1    
    38   25   24 ar   
    39   26   25 ar   
    40   37   25 1    
    41   27   26 ar   
@<TRIPOS>SUBSTRUCTURE
     1 ADP300      1 GROUP   
@<TRIPOS>SET

