#    Name: 1udu_CIA_2_INTS_M
#    Modification time : Tue Mar 25 06:29:18 2014

@<TRIPOS>MOLECULE
1udu_CIA_2_INTS_M
   62     0     6     0     0
SMALL
NO_CHARGES


@<TRIPOS>ATOM
      1 CA          1.3780   17.7405   71.6650 C.3       2 GLC5        0.0000 
      2 CA          3.1000   16.7710   72.5470 C.3       6 GLL5        0.0000 
      3 CA         -0.3440   18.7100   70.7830 C.3       4 GLP5        0.0000 
      4 CA          5.7375   17.1125   75.5875 C.3       2 GLC5        0.0000 
      5 CA          4.3140   18.0010   74.3900 C.3       6 GLL5        0.0000 
      6 CA          7.1610   16.2240   76.7850 C.3       4 GLP5        0.0000 
      7 CA          4.4965   15.8550   76.0305 C.3       2 GLC5        0.0000 
      8 CA          3.3230   17.4950   75.3460 C.3       6 GLL5        0.0000 
      9 CA          5.6700   14.2150   76.7150 C.3       4 GLP5        0.0000 
     10 O           0.5830   15.3685   76.1495 O.2       1 ALC1        0.0000 
     11 O           1.4030   16.2600   75.9340 O.2       5 ALL1        0.0000 
     12 O          -0.2370   14.4770   76.3650 O.2       3 ALP1        0.0000 
     13 CA          2.4225   14.2140   73.5410 C.3       2 GLC5        0.0000 
     14 CA          2.1220   16.2670   73.4660 C.3       6 GLL5        0.0000 
     15 CA          2.7230   12.1610   73.6160 C.3       4 GLP5        0.0000 
     16 CA          0.2095   17.8405   77.9815 C.3       2 GLC5        0.0000 
     17 CA          1.4600   16.8300   78.5660 C.3       6 GLL5        0.0000 
     18 CA         -1.0410   18.8510   77.3970 C.3       4 GLP5        0.0000 
     19 CA          2.7285   17.7465   83.0085 C.3       2 GLC5        0.0000 
     20 CA          2.0750   19.2310   81.6980 C.3       6 GLL5        0.0000 
     21 CA          3.3820   16.2620   84.3190 C.3       4 GLP5        0.0000 
     22 CA          0.5300   19.6710   80.5590 C.3       2 GLC5        0.0000 
     23 CA         -1.0150   20.1110   79.4200 C.3       4 GLP5        0.0000 
     24 CA          5.1860   17.8635   79.5620 C.3       2 GLC5        0.0000 
     25 CA          3.9560   18.4360   77.8230 C.3       6 GLL5        0.0000 
     26 CA          6.4160   17.2910   81.3010 C.3       4 GLP5        0.0000 
     27 CA          3.9710   20.3710   84.4315 C.3       2 GLC5        0.0000 
     28 CA          4.1350   20.5670   82.3930 C.3       6 GLL5        0.0000 
     29 CA          3.8070   20.1750   86.4700 C.3       4 GLP5        0.0000 
     30 CA          5.2755   18.9290   81.8470 C.3       2 GLC5        0.0000 
     31 CA          5.1045   12.9580   78.4920 C.3       2 GLC5        0.0000 
     32 CA          4.5390   11.7010   80.2690 C.3       6 GLL5        0.0000 
     33 CA          5.8210   11.2975   79.2170 C.3       2 GLC5        0.0000 
     34 CA          7.1030   10.8940   78.1650 C.3       4 GLP5        0.0000 
     35 CA          6.1505   12.4725   81.0705 C.3       2 GLC5        0.0000 
     36 CA          7.7620   13.2440   81.8720 C.3       4 GLP5        0.0000 
     37 CA          5.1985   10.2835   81.3850 C.3       2 GLC5        0.0000 
     38 CA          5.8580    8.8660   82.5010 C.3       4 GLP5        0.0000 
     39 CA          3.8378   17.8640   70.9778 C.3       2 GLC5        0.0000 
     40 CA          4.1850   17.6310   73.0060 C.3       6 GLL5        0.0000 
     41 CA          4.0330   18.5270   69.1790 C.3       4 GLP5        0.0000 
     42 CA          4.8712   16.3545   71.8242 C.3       2 GLC5        0.0000 
     43 CA          6.1000   15.5080   70.8720 C.3       4 GLP5        0.0000 
     44 CA          5.3607   17.1357   77.0302 C.3       2 GLC5        0.0000 
     45 CA          3.1650   17.6590   76.7280 C.3       6 GLL5        0.0000 
     46 CA          0.2305   16.7858   73.5260 C.3       2 GLC5        0.0000 
     47 CA          2.2220   16.6240   74.8820 C.3       6 GLL5        0.0000 
     48 CA         -1.7110   17.1260   72.8780 C.3       4 GLP5        0.0000 
     49 CA          1.9163   19.7778   77.9530 C.3       2 GLC5        0.0000 
     50 CA          0.3660   20.8090   77.5580 C.3       4 GLP5        0.0000 
     51 CA          1.6865   14.6822   81.4660 C.3       2 GLC5        0.0000 
     52 CA          1.8670   15.3790   79.1530 C.3       6 GLL5        0.0000 
     53 CA          2.0120   14.3980   83.4460 C.3       4 GLP5        0.0000 
     54 CA         -0.2360   13.1073   81.1983 C.3       2 GLC5        0.0000 
     55 CA          0.8550   14.5540   79.8190 C.3       6 GLL5        0.0000 
     56 CA         -1.4990   12.3040   82.3060 C.3       4 GLP5        0.0000 
     57 CA         -0.0205   13.1553   78.6538 C.3       2 GLC5        0.0000 
     58 CA          1.1990   13.2670   80.3620 C.3       6 GLL5        0.0000 
     59 CA         -1.0680   12.4000   77.2170 C.3       4 GLP5        0.0000 
     60 CA          4.5447   14.2145   78.0170 C.3       2 GLC5        0.0000 
     61 CA          3.5850   13.5790   79.5870 C.3       6 GLL5        0.0000 
     62 CA          2.3770   13.8496   81.6950 C.3       2 GLC5        0.0000 
@<TRIPOS>BOND
@<TRIPOS>SUBSTRUCTURE
     1 ALC1       10 GROUP        1 X    ALC  0     ROOT ALC X 1
     2 GLC5        1 GROUP        1 X    GLC  0     **** GLC X 6
     3 ALP1       12 GROUP        1 Y    ALP  0     ROOT ALP Y 8
     4 GLP5        3 GROUP        1 Y    GLP  0     **** GLP Y 13
     5 ALL1       11 GROUP        1 Z    ALL  0     ROOT ALL Z 15
     6 GLL5        2 GROUP        1 Z    GLL  0     **** GLL Z 20
@<TRIPOS>SET

