#    Name: 1udu_CIA_2_ligand
#    Modification time : Tue Mar 25 06:29:18 2014

@<TRIPOS>MOLECULE
1udu_CIA_2_ligand
   48    53     1     0     0
SMALL
NO_CHARGES


@<TRIPOS>ATOM
      1 C3          3.1000   16.7710   72.5470 C.ar      1 CIA2003     0.0000 
      2 C2          4.1850   17.6310   73.0060 C.ar      1 CIA2003     0.0000 
      3 C1          4.3140   18.0010   74.3900 C.ar      1 CIA2003     0.0000 
      4 C6          3.3230   17.4950   75.3460 C.ar      1 CIA2003     0.0000 
      5 C7          3.1650   17.6590   76.7280 C.2       1 CIA2003     0.0000 
      6 C8          1.9900   16.8980   77.0700 C.2       1 CIA2003     0.0000 
      7 N9          1.4030   16.2600   75.9340 N.pl3     1 CIA2003     0.0000 
      8 C5          2.2220   16.6240   74.8820 C.ar      1 CIA2003     0.0000 
      9 C4          2.1220   16.2670   73.4660 C.ar      1 CIA2003     0.0000 
     10 C13         1.4600   16.8300   78.5660 C.3       1 CIA2003     0.0000 
     11 N12         1.9880   17.9870   79.4670 N.am      1 CIA2003     0.0000 
     12 C17         1.5690   18.0710   80.7950 C.2       1 CIA2003     0.0000 
     13 O20         0.7790   17.2620   81.3380 O.2       1 CIA2003     0.0000 
     14 C16         2.0750   19.2310   81.6980 C.3       1 CIA2003     0.0000 
     15 N15         3.3860   19.8780   81.3020 N.am      1 CIA2003     0.0000 
     16 C31         3.8710   19.8290   79.9830 C.2       1 CIA2003     0.0000 
     17 O32         4.9630   20.3640   79.6610 O.2       1 CIA2003     0.0000 
     18 C11         2.9770   19.0570   78.8730 C.3       1 CIA2003     0.0000 
     19 C10         3.9560   18.4360   77.8230 C.3       1 CIA2003     0.0000 
     20 C18         4.1350   20.5670   82.3930 C.3       1 CIA2003     0.0000 
     21 C22         1.8670   15.3790   79.1530 C.ar      1 CIA2003     0.0000 
     22 C27         0.8550   14.5540   79.8190 C.ar      1 CIA2003     0.0000 
     23 C26         1.1990   13.2670   80.3620 C.ar      1 CIA2003     0.0000 
     24 C25         2.5990   12.7800   80.2400 C.ar      1 CIA2003     0.0000 
     25 O30         3.1400   11.6050   80.6840 O.3       1 CIA2003     0.0000 
     26 C29         4.5390   11.7010   80.2690 C.3       1 CIA2003     0.0000 
     27 O28         4.7890   12.9650   79.5750 O.3       1 CIA2003     0.0000 
     28 C24         3.5850   13.5790   79.5870 C.ar      1 CIA2003     0.0000 
     29 C23         3.2540   14.8490   79.0510 C.ar      1 CIA2003     0.0000 
     30 H           3.0460   16.5322   71.5608 H         1 CIA2003     0.0000 
     31 H           4.8619   17.9727   72.3248 H         1 CIA2003     0.0000 
     32 H           5.0558   18.5876   74.7055 H         1 CIA2003     0.0000 
     33 H           0.6529   15.7343   75.9336 H         1 CIA2003     0.0000 
     34 H           1.3731   15.6760   73.1558 H         1 CIA2003     0.0000 
     35 H           0.3823   16.8519   78.5324 H         1 CIA2003     0.0000 
     36 H           2.1561   18.8413   82.7376 H         1 CIA2003     0.0000 
     37 H           1.2774   20.0067   81.7328 H         1 CIA2003     0.0000 
     38 H           2.3992   19.8255   78.3601 H         1 CIA2003     0.0000 
     39 H           4.5188   19.2314   77.3560 H         1 CIA2003     0.0000 
     40 H           4.6243   17.7537   78.3283 H         1 CIA2003     0.0000 
     41 H          -0.0925   14.9039   79.8917 H         1 CIA2003     0.0000 
     42 H           0.5228   12.6920   80.8186 H         1 CIA2003     0.0000 
     43 H           4.7910   10.8559   79.6066 H         1 CIA2003     0.0000 
     44 H           5.1965   11.6238   81.1512 H         1 CIA2003     0.0000 
     45 H           3.9470   15.4251   78.5880 H         1 CIA2003     0.0000 
     46 H           4.3776   19.9380   83.1316 H         1 CIA2003     0.0000 
     47 H           4.9871   20.9713   82.0606 H         1 CIA2003     0.0000 
     48 H           3.5996   21.3062   82.8016 H         1 CIA2003     0.0000 
@<TRIPOS>BOND
     1    2    1 ar   
     2    9    1 ar   
     3   30    1 1    
     4    3    2 ar   
     5   31    2 1    
     6    4    3 ar   
     7   32    3 1    
     8    5    4 1    
     9    8    4 ar   
    10    6    5 2    
    11   19    5 1    
    12    7    6 1    
    13   10    6 1    
    14    8    7 1    
    15   33    7 1    
    16    9    8 ar   
    17   34    9 1    
    18   11   10 1    
    19   21   10 1    
    20   35   10 1    
    21   12   11 am   
    22   18   11 1    
    23   13   12 2    
    24   14   12 1    
    25   15   14 1    
    26   36   14 1    
    27   37   14 1    
    28   16   15 am   
    29   20   15 1    
    30   17   16 2    
    31   18   16 1    
    32   19   18 1    
    33   38   18 1    
    34   39   19 1    
    35   40   19 1    
    36   46   20 1    
    37   47   20 1    
    38   48   20 1    
    39   22   21 ar   
    40   29   21 ar   
    41   23   22 ar   
    42   41   22 1    
    43   24   23 ar   
    44   42   23 1    
    45   25   24 1    
    46   28   24 ar   
    47   26   25 1    
    48   27   26 1    
    49   43   26 1    
    50   44   26 1    
    51   28   27 1    
    52   29   28 ar   
    53   45   29 1    
@<TRIPOS>SUBSTRUCTURE
     1 CIA2003     1 GROUP   
@<TRIPOS>SET

