#    Name: 3dhk_23U_1_INTS_M
#    Modification time : Mon Mar 24 23:26:45 2014

@<TRIPOS>MOLECULE
3dhk_23U_1_INTS_M
   74     0     9     0     0
SMALL
NO_CHARGES


@<TRIPOS>ATOM
      1 CA         22.5295  -11.7320   23.8955 C.3       3 GLC5        0.0000 
      2 CA         21.9630  -13.2490   25.0110 C.3       9 GLL5        0.0000 
      3 CA         23.0960  -10.2150   22.7800 C.3       6 GLP5        0.0000 
      4 CA         17.4205  -13.3385   26.3330 C.3       3 GLC5        0.0000 
      5 CA         17.9070  -14.7760   24.7980 C.3       9 GLL5        0.0000 
      6 CA         16.9340  -11.9010   27.8680 C.3       6 GLP5        0.0000 
      7 O          15.2230  -15.0500   24.0025 O.2       1 ALC1        0.0000 
      8 O          16.2050  -15.8320   23.3000 O.2       7 ALL1        0.0000 
      9 O          14.2410  -14.2680   24.7050 O.2       4 ALP1        0.0000 
     10 N          15.4195  -12.2985   24.1240 N.am      2 SEC2        0.0000 
     11 N          16.3220  -12.9400   23.1570 N.am      8 SEL2        0.0000 
     12 N          14.5170  -11.6570   25.0910 N.am      5 SEP2        0.0000 
     13 CA         17.5215  -11.1480   22.9595 C.3       3 GLC5        0.0000 
     14 CA         17.7330  -11.8390   21.0280 C.3       9 GLL5        0.0000 
     15 CA         17.3100  -10.4570   24.8910 C.3       6 GLP5        0.0000 
     16 O          16.2845   -9.5385   21.6480 O.2       1 ALC1        0.0000 
     17 O          15.6470  -10.5650   20.8610 O.2       7 ALL1        0.0000 
     18 O          16.9220   -8.5120   22.4350 O.2       4 ALP1        0.0000 
     19 CA         10.1055  -12.7300   21.9885 C.3       3 GLC5        0.0000 
     20 CA         11.4660  -11.3290   22.7960 C.3       9 GLL5        0.0000 
     21 CA          8.7450  -14.1310   21.1810 C.3       6 GLP5        0.0000 
     22 CA         10.7055   -7.5350   23.3490 C.3       3 GLC5        0.0000 
     23 CA         12.2430   -7.7960   24.5140 C.3       9 GLL5        0.0000 
     24 CA          9.1680   -7.2740   22.1840 C.3       6 GLP5        0.0000 
     25 CA         12.3585   -6.8175   22.9165 C.3       3 GLC5        0.0000 
     26 CA         12.4740   -5.8390   21.3190 C.3       6 GLP5        0.0000 
     27 CA         14.1085   -8.8285   24.4845 C.3       3 GLC5        0.0000 
     28 CA         15.9740   -9.8610   24.4550 C.3       6 GLP5        0.0000 
     29 CA         11.6460   -8.2235   26.1965 C.3       3 GLC5        0.0000 
     30 CA         11.0490   -8.6510   27.8790 C.3       6 GLP5        0.0000 
     31 CA         11.2800   -6.1515   25.3375 C.3       3 GLC5        0.0000 
     32 CA         10.3170   -4.5070   26.1610 C.3       6 GLP5        0.0000 
     33 CA         15.3885  -16.3610   27.4215 C.3       3 GLC5        0.0000 
     34 CA         17.2830  -16.0360   26.9810 C.3       9 GLL5        0.0000 
     35 CA         13.4940  -16.6860   27.8620 C.3       6 GLP5        0.0000 
     36 CA         20.4550  -11.3680   24.3460 C.3       3 GLC5        0.0000 
     37 CA         19.6330  -13.1540   25.6850 C.3       9 GLL5        0.0000 
     38 CA         20.6260   -9.8300   22.9710 C.3       6 GLP5        0.0000 
     39 CA         20.4030  -14.2260   27.4325 C.3       3 GLC5        0.0000 
     40 CA         20.9350  -12.6580   25.7570 C.3       9 GLL5        0.0000 
     41 CA         20.5220  -15.5460   29.1440 C.3       6 GLP5        0.0000 
     42 CA         22.7670  -12.1233   26.5380 C.3       3 GLC5        0.0000 
     43 CA         24.0850  -11.2930   27.6920 C.3       6 GLP5        0.0000 
     44 CA         18.7611  -11.8176   25.2039 C.3       3 GLC5        0.0000 
     45 CA         19.0400  -15.7910   27.7420 C.3       3 GLC5        0.0000 
     46 CA         17.8330  -16.0360   25.6990 C.3       9 GLL5        0.0000 
     47 CA         21.3208  -13.6275   20.2407 C.3       3 GLC5        0.0000 
     48 CA         19.0400  -13.9400   21.0120 C.3       9 GLL5        0.0000 
     49 CA         23.2270  -13.8780   19.8480 C.3       6 GLP5        0.0000 
     50 CA         18.6318  -10.3255   19.2677 C.3       3 GLC5        0.0000 
     51 CA         18.6160  -11.9370   19.7510 C.3       9 GLL5        0.0000 
     52 CA         19.0890   -8.7630   18.1460 C.3       6 GLP5        0.0000 
     53 CA         18.6246  -13.8680   18.8981 C.3       3 GLC5        0.0000 
     54 CA         18.2340  -15.0790   17.6040 C.3       6 GLP5        0.0000 
     55 CA         19.5469  -10.9686   21.7432 C.3       3 GLC5        0.0000 
     56 CA         19.7890  -12.8140   20.2550 C.3       9 GLL5        0.0000 
     57 CA         14.8767  -10.1002   22.6980 C.3       3 GLC5        0.0000 
     58 CA         14.2860  -10.3630   20.3600 C.3       9 GLL5        0.0000 
     59 CA         10.4808  -11.1688   21.0760 C.3       3 GLC5        0.0000 
     60 CA         12.3830  -11.3660   21.7460 C.3       9 GLL5        0.0000 
     61 CA          9.0370  -10.9900   19.8810 C.3       6 GLP5        0.0000 
     62 CA         12.7398  -11.8392   24.1120 C.3       3 GLC5        0.0000 
     63 CA         13.5550  -12.3310   25.9530 C.3       6 GLP5        0.0000 
     64 CA         10.5187   -8.4860   22.8605 C.3       3 GLC5        0.0000 
     65 CA         11.4270  -10.2260   23.6430 C.3       9 GLL5        0.0000 
     66 CA         12.7122  -11.0145   24.7450 C.3       3 GLC5        0.0000 
     67 CA         12.3120   -9.1700   23.4310 C.3       9 GLL5        0.0000 
     68 CA         12.6227   -7.5135   22.1125 C.3       3 GLC5        0.0000 
     69 CA         14.3727   -9.5245   23.6805 C.3       3 GLC5        0.0000 
     70 CA         13.2310   -9.2060   22.3810 C.3       9 GLL5        0.0000 
     71 CA         19.0207  -16.6760   28.2987 C.3       3 GLC5        0.0000 
     72 CA         17.2590  -17.2200   27.7230 C.3       9 GLL5        0.0000 
     73 CA         15.7318  -17.9680   27.6238 C.3       3 GLC5        0.0000 
     74 CA         13.9440  -18.1300   27.7940 C.3       6 GLP5        0.0000 
@<TRIPOS>BOND
@<TRIPOS>SUBSTRUCTURE
     1 ALC1        7 GROUP        1 X    ALC  0     ROOT ALC X 1
     2 SEC2       10 GROUP        1 X    SEC  0     **** SEC X 2
     3 GLC5        1 GROUP        1 X    GLC  0     **** GLC X 6
     4 ALP1        9 GROUP        1 Y    ALP  0     ROOT ALP Y 8
     5 SEP2       12 GROUP        1 Y    SEP  0     **** SEP Y 9
     6 GLP5        3 GROUP        1 Y    GLP  0     **** GLP Y 13
     7 ALL1        8 GROUP        1 Z    ALL  0     ROOT ALL Z 15
     8 SEL2       11 GROUP        1 Z    SEL  0     **** SEL Z 16
     9 GLL5        2 GROUP        1 Z    GLL  0     **** GLL Z 20
@<TRIPOS>SET

