#    Name: 3dhk_23U_1_ligand
#    Modification time : Mon Mar 24 23:26:45 2014

@<TRIPOS>MOLECULE
3dhk_23U_1_ligand
   62    65     1     0     0
SMALL
NO_CHARGES


@<TRIPOS>ATOM
      1 C1         19.3460  -14.2430   24.8680 C.ar      1 23U1601     0.0000 
      2 C2         19.6330  -13.1540   25.6850 C.ar      1 23U1601     0.0000 
      3 C3         20.9350  -12.6580   25.7570 C.ar      1 23U1601     0.0000 
      4 C4         21.9630  -13.2490   25.0110 C.ar      1 23U1601     0.0000 
      5 C5         21.6890  -14.3410   24.1900 C.ar      1 23U1601     0.0000 
      6 C6         20.3820  -14.8350   24.1190 C.ar      1 23U1601     0.0000 
      7 C7         17.8330  -16.0360   25.6990 C.ar      1 23U1601     0.0000 
      8 C8         17.9070  -14.7760   24.7980 C.3       1 23U1601     0.0000 
      9 C9         17.4210  -14.9820   23.3300 C.3       1 23U1601     0.0000 
     10 N2         16.2050  -15.8320   23.3000 N.4       1 23U1601     0.0000 
     11 C10        17.2480  -13.5970   22.6830 C.2       1 23U1601     0.0000 
     12 O32        16.3220  -12.9400   23.1570 O.2       1 23U1601     0.0000 
     13 N1         17.9970  -13.1240   21.6610 N.am      1 23U1601     0.0000 
     14 C11        19.0400  -13.9400   21.0120 C.3       1 23U1601     0.0000 
     15 C12        19.7890  -12.8140   20.2550 C.3       1 23U1601     0.0000 
     16 C13        18.6160  -11.9370   19.7510 C.3       1 23U1601     0.0000 
     17 C14        17.7330  -11.8390   21.0280 C.3       1 23U1601     0.0000 
     18 C15        16.2780  -11.7360   20.6310 C.2       1 23U1601     0.0000 
     19 N23        15.6470  -10.5650   20.8610 N.am      1 23U1601     0.0000 
     20 C16        14.2860  -10.3630   20.3600 C.3       1 23U1601     0.0000 
     21 C17        13.2730  -10.3160   21.5220 C.ar      1 23U1601     0.0000 
     22 C18        12.3830  -11.3660   21.7460 C.ar      1 23U1601     0.0000 
     23 C19        11.4660  -11.3290   22.7960 C.ar      1 23U1601     0.0000 
     24 C20        11.4270  -10.2260   23.6430 C.ar      1 23U1601     0.0000 
     25 C21        12.3120   -9.1700   23.4310 C.ar      1 23U1601     0.0000 
     26 C22        13.2310   -9.2060   22.3810 C.ar      1 23U1601     0.0000 
     27 CL1        12.2430   -7.7960   24.5140 Cl        1 23U1601     0.0000 
     28 O22        15.7490  -12.7140   20.1110 O.2       1 23U1601     0.0000 
     29 C23        17.2830  -16.0360   26.9810 C.ar      1 23U1601     0.0000 
     30 C24        17.2590  -17.2200   27.7230 C.ar      1 23U1601     0.0000 
     31 C25        17.7800  -18.3920   27.1840 C.ar      1 23U1601     0.0000 
     32 C26        18.3340  -18.4000   25.8990 C.ar      1 23U1601     0.0000 
     33 C27        18.3570  -17.2180   25.1600 C.ar      1 23U1601     0.0000 
     34 H          18.8862  -12.7132   26.2368 H         1 23U1601     0.0000 
     35 H          21.1444  -11.8520   26.3619 H         1 23U1601     0.0000 
     36 H          22.9167  -12.8752   25.0715 H         1 23U1601     0.0000 
     37 H          22.4338  -14.7786   23.6440 H         1 23U1601     0.0000 
     38 H          20.1705  -15.6402   23.5137 H         1 23U1601     0.0000 
     39 H          17.2646  -14.0097   25.2651 H         1 23U1601     0.0000 
     40 H          18.2433  -15.4889   22.8104 H         1 23U1601     0.0000 
     41 H          18.6340  -14.6018   20.3106 H         1 23U1601     0.0000 
     42 H          19.6922  -14.3636   21.7119 H         1 23U1601     0.0000 
     43 H          20.3029  -13.2204   19.4372 H         1 23U1601     0.0000 
     44 H          20.3756  -12.2661   20.9286 H         1 23U1601     0.0000 
     45 H          18.0914  -12.4438   19.0014 H         1 23U1601     0.0000 
     46 H          18.9688  -10.9859   19.4962 H         1 23U1601     0.0000 
     47 H          18.0546  -11.0436   21.5978 H         1 23U1601     0.0000 
     48 H          16.0729   -9.7920   21.3766 H         1 23U1601     0.0000 
     49 H          13.9901  -11.1760   19.6887 H         1 23U1601     0.0000 
     50 H          14.2071   -9.4213   19.8069 H         1 23U1601     0.0000 
     51 H          12.4035  -12.1912   21.1189 H         1 23U1601     0.0000 
     52 H          10.8218  -12.1147   22.9424 H         1 23U1601     0.0000 
     53 H          10.7559  -10.1890   24.4143 H         1 23U1601     0.0000 
     54 H          13.8771   -8.4236   22.2338 H         1 23U1601     0.0000 
     55 H          16.8986  -15.1736   27.3773 H         1 23U1601     0.0000 
     56 H          16.8552  -17.2221   28.6681 H         1 23U1601     0.0000 
     57 H          17.7594  -19.2641   27.7332 H         1 23U1601     0.0000 
     58 H          18.7163  -19.2626   25.5092 H         1 23U1601     0.0000 
     59 H          18.7602  -17.2109   24.2139 H         1 23U1601     0.0000 
     60 H          16.3729  -16.7345   23.6965 H         1 23U1601     0.0000 
     61 H          15.4521  -15.4214   23.8143 H         1 23U1601     0.0000 
     62 H          15.8770  -15.9783   22.3667 H         1 23U1601     0.0000 
@<TRIPOS>BOND
     1    2    1 ar   
     2    6    1 ar   
     3    8    1 1    
     4    3    2 ar   
     5   34    2 1    
     6    4    3 ar   
     7   35    3 1    
     8    5    4 ar   
     9   36    4 1    
    10    6    5 ar   
    11   37    5 1    
    12   38    6 1    
    13    8    7 1    
    14   29    7 ar   
    15   33    7 ar   
    16    9    8 1    
    17   39    8 1    
    18   10    9 1    
    19   11    9 1    
    20   40    9 1    
    21   60   10 1    
    22   61   10 1    
    23   62   10 1    
    24   12   11 2    
    25   13   11 am   
    26   14   13 1    
    27   17   13 1    
    28   15   14 1    
    29   41   14 1    
    30   42   14 1    
    31   16   15 1    
    32   43   15 1    
    33   44   15 1    
    34   17   16 1    
    35   45   16 1    
    36   46   16 1    
    37   18   17 1    
    38   47   17 1    
    39   19   18 am   
    40   28   18 2    
    41   20   19 1    
    42   48   19 1    
    43   21   20 1    
    44   49   20 1    
    45   50   20 1    
    46   22   21 ar   
    47   26   21 ar   
    48   23   22 ar   
    49   51   22 1    
    50   24   23 ar   
    51   52   23 1    
    52   25   24 ar   
    53   53   24 1    
    54   26   25 ar   
    55   27   25 1    
    56   54   26 1    
    57   30   29 ar   
    58   55   29 1    
    59   31   30 ar   
    60   56   30 1    
    61   32   31 ar   
    62   57   31 1    
    63   33   32 ar   
    64   58   32 1    
    65   59   33 1    
@<TRIPOS>SUBSTRUCTURE
     1 23U1601     1 GROUP   
@<TRIPOS>SET

