#    Name: 3ut6_FMC_2_INTS_M
#    Modification time : Mon Mar 24 23:23:53 2014

@<TRIPOS>MOLECULE
3ut6_FMC_2_INTS_M
   47     0     9     0     0
SMALL
NO_CHARGES


@<TRIPOS>ATOM
      1 CA        -12.3990  106.4195   58.8465 C.3       3 GLC5        0.0000 
      2 CA        -11.4540  108.2550   58.2970 C.3       9 GLL5        0.0000 
      3 CA        -13.3440  104.5840   59.3960 C.3       6 GLP5        0.0000 
      4 CA        -11.5230  107.9630   60.1935 C.3       3 GLC5        0.0000 
      5 CA        -11.5920  107.6710   62.0900 C.3       6 GLP5        0.0000 
      6 CA         -9.8040  108.1110   58.8770 C.3       3 GLC5        0.0000 
      7 CA         -8.1540  107.9670   59.4570 C.3       6 GLP5        0.0000 
      8 CA        -11.8605  108.9795   60.6415 C.3       3 GLC5        0.0000 
      9 CA        -12.1290  110.2880   59.1930 C.3       9 GLL5        0.0000 
     10 CA        -14.5620  110.2010   60.3885 C.3       3 GLC5        0.0000 
     11 CA        -13.4510  110.1270   58.5670 C.3       9 GLL5        0.0000 
     12 CA        -15.6730  110.2750   62.2100 C.3       6 GLP5        0.0000 
     13 CA        -15.7000  108.7375   58.6395 C.3       3 GLC5        0.0000 
     14 CA        -13.6670  108.8990   57.7640 C.3       9 GLL5        0.0000 
     15 CA        -17.7330  108.5760   59.5150 C.3       6 GLP5        0.0000 
     16 O         -16.2540  109.2940   56.8125 O.2       1 ALC1        0.0000 
     17 O         -14.8520  108.6560   57.1410 O.2       7 ALL1        0.0000 
     18 O         -17.6560  109.9320   56.4840 O.2       4 ALP1        0.0000 
     19 O         -15.5945  111.4865   58.1995 O.2       1 ALC1        0.0000 
     20 O         -14.1830  111.2070   58.8960 O.2       7 ALL1        0.0000 
     21 O         -17.0060  111.7660   57.5030 O.2       4 ALP1        0.0000 
     22 N         -13.4950  113.2455   60.5585 N.am      2 SEC2        0.0000 
     23 N         -13.4250  112.0830   59.7120 N.am      8 SEL2        0.0000 
     24 N         -13.5650  114.4080   61.4050 N.am      5 SEP2        0.0000 
     25 CA        -10.7805  109.8535   62.1185 C.3       3 GLC5        0.0000 
     26 CA         -9.8340  111.1660   60.8850 C.3       9 GLL5        0.0000 
     27 CA        -11.7270  108.5410   63.3520 C.3       6 GLP5        0.0000 
     28 CA         -8.9940  109.5665   60.1710 C.3       3 GLC5        0.0000 
     29 N          -9.4255  109.2830   62.2610 N.am      2 SEC2        0.0000 
     30 N          -9.6940  110.7850   62.2330 N.am      8 SEL2        0.0000 
     31 N          -9.1570  107.7810   62.2890 N.am      5 SEP2        0.0000 
     32 O          -8.7095  110.6380   62.9930 O.2       1 ALC1        0.0000 
     33 O          -9.6940  110.7850   62.2330 O.2       7 ALL1        0.0000 
     34 O          -7.7250  110.4910   63.7530 O.2       4 ALP1        0.0000 
     35 CA         -7.0075  113.0835   59.7305 C.3       3 GLC5        0.0000 
     36 CA         -8.6290  111.9390   60.3330 C.3       9 GLL5        0.0000 
     37 CA         -5.3860  114.2280   59.1280 C.3       6 GLP5        0.0000 
     38 O          -7.0545  111.9235   61.9150 O.2       1 ALC1        0.0000 
     39 O          -7.9920  112.6660   61.3860 O.2       7 ALL1        0.0000 
     40 O          -6.1170  111.1810   62.4440 O.2       4 ALP1        0.0000 
     41 CA         -9.8805  111.1785   56.6050 C.3       3 GLC5        0.0000 
     42 CA         -9.3110  112.4320   57.9180 C.3       9 GLL5        0.0000 
     43 CA        -10.4500  109.9250   55.2920 C.3       6 GLP5        0.0000 
     44 CA         -7.7252  113.4740   58.0635 C.3       3 GLC5        0.0000 
     45 CA         -6.1700  114.2770   57.4940 C.3       6 GLP5        0.0000 
     46 CA         -8.3536  110.7186   58.4821 C.3       3 GLC5        0.0000 
     47 CA         -7.5820  109.0090   58.0850 C.3       6 GLP5        0.0000 
@<TRIPOS>BOND
@<TRIPOS>SUBSTRUCTURE
     1 ALC1       16 GROUP        1 X    ALC  0     ROOT ALC X 1
     2 SEC2       22 GROUP        1 X    SEC  0     **** SEC X 2
     3 GLC5        1 GROUP        1 X    GLC  0     **** GLC X 6
     4 ALP1       18 GROUP        1 Y    ALP  0     ROOT ALP Y 8
     5 SEP2       24 GROUP        1 Y    SEP  0     **** SEP Y 9
     6 GLP5        3 GROUP        1 Y    GLP  0     **** GLP Y 13
     7 ALL1       17 GROUP        1 Z    ALL  0     ROOT ALL Z 15
     8 SEL2       23 GROUP        1 Z    SEL  0     **** SEL Z 16
     9 GLL5        2 GROUP        1 Z    GLL  0     **** GLL Z 20
@<TRIPOS>SET

