#    Name: 3ut6_FMC_2_ligand
#    Modification time : Mon Mar 24 23:23:53 2014

@<TRIPOS>MOLECULE
3ut6_FMC_2_ligand
   32    34     1     0     0
SMALL
NO_CHARGES


@<TRIPOS>ATOM
      1 N1        -12.6350  108.0280   57.6760 N.ar      1 FMC300      0.0000 
      2 C2        -11.4540  108.2550   58.2970 C.ar      1 FMC300      0.0000 
      3 N3        -11.1740  109.3480   59.0410 N.ar      1 FMC300      0.0000 
      4 C4        -12.1290  110.2880   59.1930 C.ar      1 FMC300      0.0000 
      5 C5        -13.4510  110.1270   58.5670 C.ar      1 FMC300      0.0000 
      6 C6        -13.6670  108.8990   57.7640 C.ar      1 FMC300      0.0000 
      7 N6        -14.8520  108.6560   57.1410 N.pl3     1 FMC300      0.0000 
      8 N7        -14.1830  111.2070   58.8960 N.pl3     1 FMC300      0.0000 
      9 N8        -13.4250  112.0830   59.7120 N.2       1 FMC300      0.0000 
     10 C9        -12.1830  111.5770   59.9350 C.2       1 FMC300      0.0000 
     11 C1'       -11.0170  112.1360   60.6960 C.3       1 FMC300      0.0000 
     12 C2'        -9.8340  111.1660   60.8850 C.3       1 FMC300      0.0000 
     13 O2'        -9.6940  110.7850   62.2330 O.3       1 FMC300      0.0000 
     14 C3'        -8.6290  111.9390   60.3330 C.3       1 FMC300      0.0000 
     15 O3'        -7.9920  112.6660   61.3860 O.3       1 FMC300      0.0000 
     16 C4'        -9.2500  112.9100   59.3480 C.3       1 FMC300      0.0000 
     17 O4'       -10.5910  113.1650   59.8210 O.3       1 FMC300      0.0000 
     18 C5'        -9.3110  112.4320   57.9180 C.3       1 FMC300      0.0000 
     19 O5'       -10.1750  113.2450   57.1300 O.3       1 FMC300      0.0000 
     20 H         -10.6854  107.5136   58.1905 H         1 FMC300      0.0000 
     21 H         -15.5466  109.3708   57.2223 H         1 FMC300      0.0000 
     22 H         -14.9238  107.7840   56.6567 H         1 FMC300      0.0000 
     23 H         -15.0937  111.3944   58.6347 H         1 FMC300      0.0000 
     24 H         -11.3321  112.5270   61.6166 H         1 FMC300      0.0000 
     25 H         -10.0124  110.3344   60.2180 H         1 FMC300      0.0000 
     26 H          -8.0038  111.2763   59.8231 H         1 FMC300      0.0000 
     27 H          -8.6841  113.8410   59.3886 H         1 FMC300      0.0000 
     28 H          -9.6458  111.3778   57.9250 H         1 FMC300      0.0000 
     29 H          -8.2809  112.4307   57.5148 H         1 FMC300      0.0000 
     30 H          -8.7075  110.7682   62.3960 H         1 FMC300      0.0000 
     31 H          -7.0635  112.2971   61.4302 H         1 FMC300      0.0000 
     32 H         -10.8798  113.5636   57.7639 H         1 FMC300      0.0000 
@<TRIPOS>BOND
     1    2    1 ar   
     2    6    1 ar   
     3    3    2 ar   
     4   20    2 1    
     5    4    3 ar   
     6    5    4 ar   
     7   10    4 1    
     8    6    5 ar   
     9    8    5 1    
    10    7    6 1    
    11   21    7 1    
    12   22    7 1    
    13    9    8 1    
    14   23    8 1    
    15   10    9 2    
    16   11   10 1    
    17   12   11 1    
    18   17   11 1    
    19   24   11 1    
    20   13   12 1    
    21   14   12 1    
    22   25   12 1    
    23   30   13 1    
    24   15   14 1    
    25   16   14 1    
    26   26   14 1    
    27   31   15 1    
    28   17   16 1    
    29   18   16 1    
    30   27   16 1    
    31   19   18 1    
    32   28   18 1    
    33   29   18 1    
    34   32   19 1    
@<TRIPOS>SUBSTRUCTURE
     1 FMC300      1 GROUP   
@<TRIPOS>SET

