#    Name: 3pjg_UGA_1_INTS_M
#    Modification time : Tue Mar 25 06:40:43 2014

@<TRIPOS>MOLECULE
3pjg_UGA_1_INTS_M
   62     0    12     0     0
SMALL
NO_CHARGES


@<TRIPOS>ATOM
      1 CA         44.4740   -8.7335    9.8830 C.3       4 GLC5        0.0000 
      2 CA         43.0060   -9.9020   10.8250 C.3      12 GLL5        0.0000 
      3 CA         45.9420   -7.5650    8.9410 C.3       8 GLP5        0.0000 
      4 CA         42.2165   -8.9535    7.8525 C.3       4 GLC5        0.0000 
      5 CA         42.0530   -9.7670    9.6100 C.3      12 GLL5        0.0000 
      6 CA         42.3800   -8.1400    6.0950 C.3       8 GLP5        0.0000 
      7 CA         40.7530  -13.5225    8.3065 C.3       4 GLC5        0.0000 
      8 CA         42.3540  -12.2340    9.2070 C.3      12 GLL5        0.0000 
      9 CA         39.1520  -14.8110    7.4060 C.3       8 GLP5        0.0000 
     10 NZ         44.0075  -14.3710    8.1890 N.4       3 LYC4        0.0000 
     11 NZ         44.5850  -14.0520    9.2520 N.4      11 LYL4        0.0000 
     12 NZ         43.4300  -14.6900    7.1260 N.4       7 LYP4        0.0000 
     13 N          44.0075  -14.3710    8.1890 N.am      2 SEC2        0.0000 
     14 N          44.5850  -14.0520    9.2520 N.am     10 SEL2        0.0000 
     15 N          43.4300  -14.6900    7.1260 N.am      6 SEP2        0.0000 
     16 N          45.4605  -13.3865    8.2815 N.am      2 SEC2        0.0000 
     17 N          46.3360  -12.7210    7.3110 N.am      6 SEP2        0.0000 
     18 N          41.4065  -11.4690   15.1665 N.am      2 SEC2        0.0000 
     19 N          42.5110  -10.3940   14.6460 N.am     10 SEL2        0.0000 
     20 N          40.3020  -12.5440   15.6870 N.am      6 SEP2        0.0000 
     21 N          42.7745   -6.1125   10.4125 N.am      2 SEC2        0.0000 
     22 N          42.3580   -6.9880   11.3110 N.am     10 SEL2        0.0000 
     23 N          43.1910   -5.2370    9.5140 N.am      6 SEP2        0.0000 
     24 CA         47.7745   -4.3160   12.3450 C.3       4 GLC5        0.0000 
     25 CA         46.0160   -5.2780   12.9240 C.3      12 GLL5        0.0000 
     26 CA         49.5330   -3.3540   11.7660 C.3       8 GLP5        0.0000 
     27 CA         48.1250   -4.0915   13.8135 C.3       4 GLC5        0.0000 
     28 CA         46.2120   -5.0370   14.4240 C.3      12 GLL5        0.0000 
     29 CA         50.0380   -3.1460   13.2030 C.3       8 GLP5        0.0000 
     30 N          48.8700   -5.0710   14.2210 N.am      2 SEC2        0.0000 
     31 N          47.5520   -4.6460   14.6070 N.am     10 SEL2        0.0000 
     32 N          50.1880   -5.4960   13.8350 N.am      6 SEP2        0.0000 
     33 O          44.1055   -2.8280   16.0490 O.2       1 ALC1        0.0000 
     34 O          45.5920   -3.3240   16.0200 O.2       9 ALL1        0.0000 
     35 O          42.6190   -2.3320   16.0780 O.2       5 ALP1        0.0000 
     36 CA         45.4335   -2.2670   11.5815 C.3       4 GLC5        0.0000 
     37 CA         45.5890   -3.0140   13.4870 C.3      12 GLL5        0.0000 
     38 CA         45.2780   -1.5200    9.6760 C.3       8 GLP5        0.0000 
     39 CA         47.5610   -3.1840   12.6265 C.3       4 GLC5        0.0000 
     40 N          46.8440    0.3730   14.2450 N.am      2 SEC2        0.0000 
     41 N          45.7130   -0.2850   13.6810 N.am     10 SEL2        0.0000 
     42 N          47.9750    1.0310   14.8090 N.am      6 SEP2        0.0000 
     43 O          43.8485    1.4685   13.1725 O.2       1 ALC1        0.0000 
     44 O          43.6250    0.1150   12.8310 O.2       9 ALL1        0.0000 
     45 O          44.0720    2.8220   13.5140 O.2       5 ALP1        0.0000 
     46 N          41.6465    1.8750   11.7835 N.am      2 SEC2        0.0000 
     47 N          41.5170    0.3720   11.9560 N.am     10 SEL2        0.0000 
     48 N          41.7760    3.3780   11.6110 N.am      6 SEP2        0.0000 
     49 CA         40.5371  -10.0686   11.0994 C.3       4 GLC5        0.0000 
     50 CA         39.1480   -9.6580   12.3990 C.3       8 GLP5        0.0000 
     51 CA         46.0328   -6.1060   11.0587 C.3       4 GLC5        0.0000 
     52 CA         44.8670   -6.2640   12.5250 C.3      12 GLL5        0.0000 
     53 CA         46.6240   -6.4410    9.3930 C.3       8 GLP5        0.0000 
     54 CA         47.0148   -5.3128   15.7770 C.3       4 GLC5        0.0000 
     55 CA         48.2800   -6.1580   16.9770 C.3       8 GLP5        0.0000 
     56 CA         44.0435   -1.8853   11.0207 C.3       4 GLC5        0.0000 
     57 CA         43.3180   -2.6590   12.5610 C.3      12 GLL5        0.0000 
     58 CA         41.9565   -3.1703   11.0642 C.3       4 GLC5        0.0000 
     59 CA         41.1040   -4.0900    9.7630 C.3       8 GLP5        0.0000 
     60 CA         41.3035   -2.4473   13.5243 C.3       4 GLC5        0.0000 
     61 CA         42.3000   -1.8420   12.1700 C.3      12 GLL5        0.0000 
     62 CA         39.7980   -2.6440   14.6830 C.3       8 GLP5        0.0000 
@<TRIPOS>BOND
@<TRIPOS>SUBSTRUCTURE
     1 ALC1       33 GROUP        1 X    ALC  0     ROOT ALC X 1
     2 SEC2       13 GROUP        1 X    SEC  0     **** SEC X 2
     3 LYC4       10 GROUP        1 X    LYC  0     **** LYC X 4
     4 GLC5        1 GROUP        1 X    GLC  0     **** GLC X 6
     5 ALP1       35 GROUP        1 Y    ALP  0     ROOT ALP Y 8
     6 SEP2       15 GROUP        1 Y    SEP  0     **** SEP Y 9
     7 LYP4       12 GROUP        1 Y    LYP  0     **** LYP Y 11
     8 GLP5        3 GROUP        1 Y    GLP  0     **** GLP Y 13
     9 ALL1       34 GROUP        1 Z    ALL  0     ROOT ALL Z 15
    10 SEL2       14 GROUP        1 Z    SEL  0     **** SEL Z 16
    11 LYL4       11 GROUP        1 Z    LYL  0     **** LYL Z 18
    12 GLL5        2 GROUP        1 Z    GLL  0     **** GLL Z 20
@<TRIPOS>SET

