#    Name: 3pjg_UGA_1_ligand
#    Modification time : Tue Mar 25 06:40:43 2014

@<TRIPOS>MOLECULE
3pjg_UGA_1_ligand
   56    58     1     0     0
SMALL
NO_CHARGES


@<TRIPOS>ATOM
      1 C1'        43.0060   -9.9020   10.8250 C.3       1 UGA901      0.0000 
      2 C2'        42.0530   -9.7670    9.6100 C.3       1 UGA901      0.0000 
      3 O2'        41.1340   -8.7100    9.8760 O.3       1 UGA901      0.0000 
      4 C3'        41.3230  -11.1240    9.3820 C.3       1 UGA901      0.0000 
      5 O3'        40.5130  -11.0800    8.2310 O.3       1 UGA901      0.0000 
      6 C4'        42.3540  -12.2340    9.2070 C.3       1 UGA901      0.0000 
      7 O4'        41.7110  -13.5020    9.0570 O.3       1 UGA901      0.0000 
      8 C5'        43.2760  -12.2340   10.4350 C.3       1 UGA901      0.0000 
      9 O5'        43.9230  -10.9510   10.5660 O.3       1 UGA901      0.0000 
     10 C6'        44.3970  -13.2590   10.3380 C.2       1 UGA901      0.0000 
     11 O'P        45.1650  -13.3380   11.2670 O.co2     1 UGA901      0.0000 
     12 O'Q        44.5850  -14.0520    9.2520 O.co2     1 UGA901      0.0000 
     13 PB         42.8900   -9.4680   13.4190 P.3       1 UGA901      0.0000 
     14 O1B        44.4220   -9.2890   13.3860 O.co2     1 UGA901      0.0000 
     15 O2B        42.5110  -10.3940   14.6460 O.co2     1 UGA901      0.0000 
     16 O3B        42.2610  -10.1990   12.0520 O.3       1 UGA901      0.0000 
     17 O3A        42.0430   -8.0970   13.7330 O.3       1 UGA901      0.0000 
     18 PA         42.3990   -6.7550   12.8830 P.3       1 UGA901      0.0000 
     19 O1A        41.3330   -5.8290   13.2670 O.co2     1 UGA901      0.0000 
     20 O2A        42.3580   -6.9880   11.3110 O.co2     1 UGA901      0.0000 
     21 O5D        43.7800   -6.1200   13.4330 O.3       1 UGA901      0.0000 
     22 C5D        44.8670   -6.2640   12.5250 C.3       1 UGA901      0.0000 
     23 C4D        46.0160   -5.2780   12.9240 C.3       1 UGA901      0.0000 
     24 O4D        45.7680   -3.9810   12.4050 O.3       1 UGA901      0.0000 
     25 C3D        46.2120   -5.0370   14.4240 C.3       1 UGA901      0.0000 
     26 O3D        47.5520   -4.6460   14.6070 O.3       1 UGA901      0.0000 
     27 C2D        45.2870   -3.8980   14.7300 C.3       1 UGA901      0.0000 
     28 O2D        45.5920   -3.3240   16.0200 O.3       1 UGA901      0.0000 
     29 C1D        45.5890   -3.0140   13.4870 C.3       1 UGA901      0.0000 
     30 N1         44.4930   -2.1200   13.0860 N.am      1 UGA901      0.0000 
     31 C6         43.3180   -2.6590   12.5610 C.2       1 UGA901      0.0000 
     32 C2         44.6550   -0.7470   13.2210 C.2       1 UGA901      0.0000 
     33 O2         45.7130   -0.2850   13.6810 O.2       1 UGA901      0.0000 
     34 N3         43.6250    0.1150   12.8310 N.am      1 UGA901      0.0000 
     35 C4         42.4480   -0.3940   12.3080 C.2       1 UGA901      0.0000 
     36 O4         41.5170    0.3720   11.9560 O.2       1 UGA901      0.0000 
     37 C5         42.3000   -1.8420   12.1700 C.2       1 UGA901      0.0000 
     38 H          43.5236   -8.9571   10.9282 H         1 UGA901      0.0000 
     39 H          42.6609   -9.5672    8.7462 H         1 UGA901      0.0000 
     40 H          40.7527  -11.3397   10.2720 H         1 UGA901      0.0000 
     41 H          42.9600  -11.9904    8.3449 H         1 UGA901      0.0000 
     42 H          42.6939  -12.4470   11.3135 H         1 UGA901      0.0000 
     43 H          44.5877   -6.0234   11.4968 H         1 UGA901      0.0000 
     44 H          45.2943   -7.2691   12.5403 H         1 UGA901      0.0000 
     45 H          46.9514   -5.6585   12.5251 H         1 UGA901      0.0000 
     46 H          45.9276   -5.8921   14.9400 H         1 UGA901      0.0000 
     47 H          44.2925   -4.2576   14.6274 H         1 UGA901      0.0000 
     48 H          46.4952   -2.4950   13.6520 H         1 UGA901      0.0000 
     49 H          43.2333   -3.6866   12.4740 H         1 UGA901      0.0000 
     50 H          43.7483    1.1323   12.9357 H         1 UGA901      0.0000 
     51 H          41.4274   -2.1924   11.7804 H         1 UGA901      0.0000 
     52 H          41.4296   -8.3240   10.7499 H         1 UGA901      0.0000 
     53 H          40.5168  -12.0149    7.8761 H         1 UGA901      0.0000 
     54 H          42.4556  -14.1546    8.9164 H         1 UGA901      0.0000 
     55 H          47.7155   -4.7346   15.5896 H         1 UGA901      0.0000 
     56 H          44.7481   -2.8711   16.3077 H         1 UGA901      0.0000 
@<TRIPOS>BOND
     1    2    1 1    
     2    9    1 1    
     3   16    1 1    
     4   38    1 1    
     5    3    2 1    
     6    4    2 1    
     7   39    2 1    
     8   52    3 1    
     9    5    4 1    
    10    6    4 1    
    11   40    4 1    
    12   53    5 1    
    13    7    6 1    
    14    8    6 1    
    15   41    6 1    
    16   54    7 1    
    17    9    8 1    
    18   10    8 1    
    19   42    8 1    
    20   11   10 ar   
    21   12   10 ar   
    22   14   13 ar   
    23   15   13 ar   
    24   16   13 1    
    25   17   13 1    
    26   18   17 1    
    27   19   18 ar   
    28   20   18 ar   
    29   21   18 1    
    30   22   21 1    
    31   23   22 1    
    32   43   22 1    
    33   44   22 1    
    34   24   23 1    
    35   25   23 1    
    36   45   23 1    
    37   29   24 1    
    38   26   25 1    
    39   27   25 1    
    40   46   25 1    
    41   55   26 1    
    42   28   27 1    
    43   29   27 1    
    44   47   27 1    
    45   56   28 1    
    46   30   29 1    
    47   48   29 1    
    48   31   30 1    
    49   32   30 1    
    50   37   31 2    
    51   49   31 1    
    52   33   32 2    
    53   34   32 1    
    54   35   34 1    
    55   50   34 1    
    56   36   35 2    
    57   37   35 1    
    58   51   37 1    
@<TRIPOS>SUBSTRUCTURE
     1 UGA901      1 GROUP   
@<TRIPOS>SET

