#    Name: 4iwc_1GV_2_INTS_M
#    Modification time : Tue Mar 25 04:46:43 2014

@<TRIPOS>MOLECULE
4iwc_1GV_2_INTS_M
   62     0     9     0     0
SMALL
NO_CHARGES


@<TRIPOS>ATOM
      1 CA         -2.6000    7.8485   -6.5935 C.3       3 GLC5        0.0000 
      2 CA         -1.3680    6.1000   -6.0050 C.3       9 GLL5        0.0000 
      3 CA         -3.8320    9.5970   -7.1820 C.3       6 GLP5        0.0000 
      4 CA          0.5310    6.8560   -7.9820 C.3       3 GLC5        0.0000 
      5 CA         -0.2100    5.7090   -6.5630 C.3       9 GLL5        0.0000 
      6 CA          1.2720    8.0030   -9.4010 C.3       6 GLP5        0.0000 
      7 CA         -0.2530    4.1365   -2.1345 C.3       3 GLC5        0.0000 
      8 CA         -0.7250    5.0780   -4.0850 C.3       9 GLL5        0.0000 
      9 CA          0.2190    3.1950   -0.1840 C.3       6 GLP5        0.0000 
     10 CA          4.1850    2.1120   -8.9915 C.3       3 GLC5        0.0000 
     11 CA          3.2380    3.6070   -8.0160 C.3       9 GLL5        0.0000 
     12 CA          5.1320    0.6170   -9.9670 C.3       6 GLP5        0.0000 
     13 CA          0.7345    2.8125   -9.2065 C.3       3 GLC5        0.0000 
     14 CA          1.9840    3.7680   -7.6000 C.3       9 GLL5        0.0000 
     15 CA         -0.5150    1.8570  -10.8130 C.3       6 GLP5        0.0000 
     16 CA          1.0710    2.1990   -6.4245 C.3       3 GLC5        0.0000 
     17 CA          0.1580    0.6300   -5.2490 C.3       6 GLP5        0.0000 
     18 CA          9.0930    5.7570   -6.2000 C.3       3 GLC5        0.0000 
     19 CA          7.7460    4.3650   -7.0350 C.3       9 GLL5        0.0000 
     20 CA         10.4400    7.1490   -5.3650 C.3       6 GLP5        0.0000 
     21 N          10.4525    5.0370   -8.9785 N.am      2 SEC2        0.0000 
     22 N           9.4320    4.2580   -8.6790 N.am      8 SEL2        0.0000 
     23 N          11.4730    5.8160   -9.2780 N.am      5 SEP2        0.0000 
     24 O           9.6425    3.4700   -9.7295 O.2       1 ALC1        0.0000 
     25 O           9.4320    4.2580   -8.6790 O.2       7 ALL1        0.0000 
     26 O           9.8530    2.6820  -10.7800 O.2       4 ALP1        0.0000 
     27 CA          5.5510    2.8545   -4.2745 C.3       3 GLC5        0.0000 
     28 CA          6.3060    4.4890   -5.1080 C.3       9 GLL5        0.0000 
     29 CA          4.7960    1.2200   -3.4410 C.3       6 GLP5        0.0000 
     30 CA          6.7350    4.2160   -3.3560 C.3       3 GLC5        0.0000 
     31 CA          7.1640    3.9430   -1.6040 C.3       6 GLP5        0.0000 
     32 CA          2.2140    2.2075   -2.7090 C.3       3 GLC5        0.0000 
     33 CA          1.3280    3.8840   -3.6900 C.3       9 GLL5        0.0000 
     34 CA          3.1000    0.5310   -1.7280 C.3       6 GLP5        0.0000 
     35 CA          2.9240    4.0250   -2.2585 C.3       3 GLC5        0.0000 
     36 CA          4.5200    4.1660   -0.8270 C.3       6 GLP5        0.0000 
     37 CA          0.7735    3.5395   -1.9370 C.3       3 GLC5        0.0000 
     38 CA          0.7430    2.2570   -4.4695 C.3       3 GLC5        0.0000 
     39 CA         -2.5750    4.9162   -2.9515 C.3       3 GLC5        0.0000 
     40 CA         -1.6550    5.7890   -4.7350 C.3       9 GLL5        0.0000 
     41 CA         -3.9600    4.3990   -1.4930 C.3       6 GLP5        0.0000 
     42 CA         -1.9390    6.1937   -7.7070 C.3       3 GLC5        0.0000 
     43 CA         -3.0890    6.4830   -9.1300 C.3       6 GLP5        0.0000 
     44 CA          5.7622    2.4406   -9.3317 C.3       3 GLC5        0.0000 
     45 CA          7.1340    4.2280   -9.2160 C.3       9 GLL5        0.0000 
     46 CA          7.5633    4.9824  -10.6137 C.3       3 GLC5        0.0000 
     47 CA          5.8520    4.2530   -8.8220 C.3       9 GLL5        0.0000 
     48 CA          7.8190    5.7030  -12.5590 C.3       6 GLP5        0.0000 
     49 CA          8.3790    2.6590   -6.6312 C.3       3 GLC5        0.0000 
     50 CA          8.1220    4.2830   -8.3180 C.3       9 GLL5        0.0000 
     51 CA          8.8240    0.9940   -5.5860 C.3       6 GLP5        0.0000 
     52 CA          7.6042    2.7180   -5.7242 C.3       3 GLC5        0.0000 
     53 CA          6.4630    4.3950   -6.6170 C.3       9 GLL5        0.0000 
     54 CA          7.2998    6.3815   -5.5998 C.3       3 GLC5        0.0000 
     55 CA          8.2150    8.3210   -5.3370 C.3       6 GLP5        0.0000 
     56 CA         -0.2726    6.9703   -4.7652 C.3       3 GLC5        0.0000 
     57 CA          0.1780    8.4100   -4.1960 C.3       6 GLP5        0.0000 
     58 CA         -1.2781    3.6758   -5.7632 C.3       3 GLC5        0.0000 
     59 CA         -1.8330    1.8210   -6.1920 C.3       6 GLP5        0.0000 
     60 CA          2.3920    5.0519   -9.0684 C.3       3 GLC5        0.0000 
     61 CA          1.8860    4.6280   -6.5800 C.3       9 GLL5        0.0000 
     62 CA          1.9800    6.0170  -10.7600 C.3       6 GLP5        0.0000 
@<TRIPOS>BOND
@<TRIPOS>SUBSTRUCTURE
     1 ALC1       24 GROUP        1 X    ALC  0     ROOT ALC X 1
     2 SEC2       21 GROUP        1 X    SEC  0     **** SEC X 2
     3 GLC5        1 GROUP        1 X    GLC  0     **** GLC X 6
     4 ALP1       26 GROUP        1 Y    ALP  0     ROOT ALP Y 8
     5 SEP2       23 GROUP        1 Y    SEP  0     **** SEP Y 9
     6 GLP5        3 GROUP        1 Y    GLP  0     **** GLP Y 13
     7 ALL1       25 GROUP        1 Z    ALL  0     ROOT ALL Z 15
     8 SEL2       22 GROUP        1 Z    SEL  0     **** SEL Z 16
     9 GLL5        2 GROUP        1 Z    GLL  0     **** GLL Z 20
@<TRIPOS>SET

