#    Name: 4iwc_1GV_2_ligand
#    Modification time : Tue Mar 25 04:46:43 2014

@<TRIPOS>MOLECULE
4iwc_1GV_2_ligand
   37    39     1     0     0
SMALL
NO_CHARGES


@<TRIPOS>ATOM
      1 C01        -1.6550    5.7890   -4.7350 C.ar      1 1GV601      0.0000 
      2 C02        -1.3680    6.1000   -6.0050 C.ar      1 1GV601      0.0000 
      3 C03        -0.2100    5.7090   -6.5630 C.ar      1 1GV601      0.0000 
      4 C04         0.7530    5.0010   -5.9170 C.ar      1 1GV601      0.0000 
      5 C05         0.4430    4.6790   -4.6310 C.ar      1 1GV601      0.0000 
      6 C06        -0.7250    5.0780   -4.0850 C.ar      1 1GV601      0.0000 
      7 C07         1.8860    4.6280   -6.5800 C.2       1 1GV601      0.0000 
      8 S01         3.2810    5.0570   -6.3160 S.3       1 1GV601      0.0000 
      9 C08         4.1080    4.3440   -7.3110 C.2       1 1GV601      0.0000 
     10 C09         3.2380    3.6070   -8.0160 C.2       1 1GV601      0.0000 
     11 C10         1.9840    3.7680   -7.6000 C.2       1 1GV601      0.0000 
     12 C11         5.4500    4.3480   -7.5320 C.ar      1 1GV601      0.0000 
     13 C12         5.8520    4.2530   -8.8220 C.ar      1 1GV601      0.0000 
     14 C13         7.1340    4.2280   -9.2160 C.ar      1 1GV601      0.0000 
     15 C14         8.1220    4.2830   -8.3180 C.ar      1 1GV601      0.0000 
     16 C15         7.7460    4.3650   -7.0350 C.ar      1 1GV601      0.0000 
     17 C16         6.4630    4.3950   -6.6170 C.ar      1 1GV601      0.0000 
     18 O01         9.4320    4.2580   -8.6790 O.3       1 1GV601      0.0000 
     19 O02        -2.8150    6.1670   -4.1340 O.3       1 1GV601      0.0000 
     20 C17         6.3060    4.4890   -5.1080 C.3       1 1GV601      0.0000 
     21 C18         1.3280    3.8840   -3.6900 C.3       1 1GV601      0.0000 
     22 H          -2.0540    6.6556   -6.5732 H         1 1GV601      0.0000 
     23 H          -0.0279    5.9702   -7.5864 H         1 1GV601      0.0000 
     24 H          -0.9163    4.8061   -3.0656 H         1 1GV601      0.0000 
     25 H           3.5051    3.0079   -8.7658 H         1 1GV601      0.0000 
     26 H           1.1995    3.2997   -8.0029 H         1 1GV601      0.0000 
     27 H           5.0903    4.1941   -9.5748 H         1 1GV601      0.0000 
     28 H           7.3606    4.1647  -10.2386 H         1 1GV601      0.0000 
     29 H           8.5136    4.4101   -6.2857 H         1 1GV601      0.0000 
     30 H           7.1911    4.5079   -4.6430 H         1 1GV601      0.0000 
     31 H           5.8145    5.3165   -4.8366 H         1 1GV601      0.0000 
     32 H           5.7973    3.7115   -4.7384 H         1 1GV601      0.0000 
     33 H           2.2067    4.3358   -3.5361 H         1 1GV601      0.0000 
     34 H           0.9011    3.7604   -2.7942 H         1 1GV601      0.0000 
     35 H           1.5263    2.9718   -4.0485 H         1 1GV601      0.0000 
     36 H           9.4709    3.6467   -9.4694 H         1 1GV601      0.0000 
     37 H          -2.2376    6.7444   -3.5566 H         1 1GV601      0.0000 
@<TRIPOS>BOND
     1    2    1 ar   
     2    6    1 ar   
     3   19    1 1    
     4    3    2 ar   
     5   22    2 1    
     6    4    3 ar   
     7   23    3 1    
     8    5    4 ar   
     9    7    4 1    
    10    6    5 ar   
    11   21    5 1    
    12   24    6 1    
    13    8    7 1    
    14   11    7 2    
    15    9    8 1    
    16   10    9 2    
    17   12    9 1    
    18   11   10 1    
    19   25   10 1    
    20   26   11 1    
    21   13   12 ar   
    22   17   12 ar   
    23   14   13 ar   
    24   27   13 1    
    25   15   14 ar   
    26   28   14 1    
    27   16   15 ar   
    28   18   15 1    
    29   17   16 ar   
    30   29   16 1    
    31   20   17 1    
    32   36   18 1    
    33   37   19 1    
    34   30   20 1    
    35   31   20 1    
    36   32   20 1    
    37   33   21 1    
    38   34   21 1    
    39   35   21 1    
@<TRIPOS>SUBSTRUCTURE
     1 1GV601      1 GROUP   
@<TRIPOS>SET

