#    Name: 4L0V_1_CAVITY_N1_6.mol2
#    Modification time : Tue Mar 11 12:36:41 2014

@<TRIPOS>MOLECULE
4L0V_1_CAVITY_N1_6.mol2
   81     0     7     0     0
SMALL
NO_CHARGES


@<TRIPOS>ATOM
      1 NZ         -2.4470  -33.0033   15.1475 N.2       4 LYS4        0.0000 
      2 NZ         -5.1068  -31.6252   15.3107 N.2       4 LYS4        0.0000 
      3 OG         -4.3243  -33.2476   14.1902 O.2       1 SER1        0.0000 
      4 CZ         -3.5417  -34.8700   13.0698 C.ar      5 PHE5        0.0000 
      5 OG         -4.8716  -34.1810   13.1514 O.2       1 SER1        0.0000 
      6 CZ         -4.0891  -35.8034   12.0309 C.ar      5 PHE5        0.0000 
      7 CZ         -5.4190  -35.1143   12.1125 C.ar      5 PHE5        0.0000 
      8 CA         -4.6365  -36.7368   10.9921 C.3       6 GLY6        0.0000 
      9 CZ         -5.9663  -36.0477   11.0737 C.ar      5 PHE5        0.0000 
     10 CA         -5.1838  -37.6701    9.9532 C.3       6 GLY6        0.0000 
     11 CZ         -6.5137  -36.9811   10.0348 C.ar      5 PHE5        0.0000 
     12 N          -5.7312  -38.6035    8.9144 N.2       2 ALA2        0.0000 
     13 DU         -7.0610  -37.9144    8.9960 H         7 CUB7        0.0000 
     14 CA         -8.3909  -37.2254    9.0775 C.3       6 GLY6        0.0000 
     15 N          -6.2785  -39.5369    7.8755 N.2       2 ALA2        0.0000 
     16 OG         -7.6084  -38.8478    7.9571 O.2       1 SER1        0.0000 
     17 CA         -8.9382  -38.1587    8.0387 C.3       6 GLY6        0.0000 
     18 CZ         -6.8259  -40.4702    6.8366 C.ar      5 PHE5        0.0000 
     19 CZ         -8.1557  -39.7812    6.9182 C.ar      5 PHE5        0.0000 
     20 NZ         -4.7507  -34.1984   15.2692 N.2       4 LYS4        0.0000 
     21 CA         -5.2981  -35.1318   14.2303 C.3       6 GLY6        0.0000 
     22 CA         -5.8454  -36.0651   13.1915 C.3       6 GLY6        0.0000 
     23 CA         -5.0629  -37.6876   12.0710 C.3       6 GLY6        0.0000 
     24 CZ         -6.3928  -36.9985   12.1526 C.ar      5 PHE5        0.0000 
     25 DU         -5.6103  -38.6209   11.0322 H         7 CUB7        0.0000 
     26 N          -6.9401  -37.9319   11.1138 N.2       2 ALA2        0.0000 
     27 N          -6.1576  -39.5543    9.9933 N.2       2 ALA2        0.0000 
     28 N          -7.4875  -38.8652   10.0749 N.2       2 ALA2        0.0000 
     29 N          -6.7050  -40.4877    8.9544 N.2       2 ALA2        0.0000 
     30 OG         -8.0348  -39.7986    9.0360 O.2       1 SER1        0.0000 
     31 CA         -5.7245  -36.0826   15.3093 C.3       6 GLY6        0.0000 
     32 CZ         -7.0544  -35.3935   15.3909 C.ar      5 PHE5        0.0000 
     33 CA         -6.2719  -37.0159   14.2704 C.3       6 GLY6        0.0000 
     34 CZ         -7.6017  -36.3269   14.3520 C.ar      5 PHE5        0.0000 
     35 N          -6.8192  -37.9493   13.2316 N.2       2 ALA2        0.0000 
     36 N          -8.1491  -37.2602   13.3131 N.2       2 ALA2        0.0000 
     37 N          -7.3666  -38.8827   12.1927 N.2       2 ALA2        0.0000 
     38 N          -6.6983  -37.9667   15.3494 N.2       2 ALA2        0.0000 
     39 OG         -8.0282  -37.2777   15.4309 O.2       1 SER1        0.0000 
     40 CA         -2.3766  -29.4793   14.1101 C.3       6 GLY6        0.0000 
     41 CA         -1.5941  -31.1017   12.9896 C.3       6 GLY6        0.0000 
     42 CA         -2.9240  -30.4126   13.0712 C.3       6 GLY6        0.0000 
     43 OG         -4.2538  -29.7236   13.1528 O.2       1 SER1        0.0000 
     44 CZ         -3.4713  -31.3460   12.0324 C.ar      5 PHE5        0.0000 
     45 CA         -4.8782  -36.7019    6.7565 C.3       6 GLY6        0.0000 
     46 N          -5.4256  -37.6353    5.7176 N.2       2 ALA2        0.0000 
     47 CA         -6.7555  -36.9462    5.7992 C.3       6 GLY6        0.0000 
     48 CA         -8.0853  -36.2571    5.8808 C.3       6 GLY6        0.0000 
     49 N          -4.6431  -39.2577    4.5972 N.2       2 ALA2        0.0000 
     50 CZ         -5.9730  -38.5686    4.6788 C.ar      5 PHE5        0.0000 
     51 CZ         -7.3028  -37.8796    4.7604 C.ar      5 PHE5        0.0000 
     52 CA         -8.6327  -37.1905    4.8419 C.3       6 GLY6        0.0000 
     53 CA         -9.9625  -36.5015    4.9235 C.3       6 GLY6        0.0000 
     54 CZ         -9.1800  -38.1239    3.8031 C.ar      5 PHE5        0.0000 
     55 CA        -10.5099  -37.4348    3.8847 C.3       6 GLY6        0.0000 
     56 CA         -0.9259  -30.1858   16.1463 C.3       6 GLY6        0.0000 
     57 NZ         -2.2557  -29.4967   16.2279 N.2       4 LYS4        0.0000 
     58 OD1        -3.5856  -28.8076   16.3095 O.3       3 ASP3        0.0000 
     59 CA         -1.4732  -31.1191   15.1074 C.3       6 GLY6        0.0000 
     60 NZ         -2.8031  -30.4301   15.1890 N.2       4 LYS4        0.0000 
     61 OD1        -4.1330  -29.7410   15.2706 O.3       3 ASP3        0.0000 
     62 CZ         -2.0206  -32.0525   14.0686 C.ar      5 PHE5        0.0000 
     63 OG         -3.3504  -31.3634   14.1502 O.2       1 SER1        0.0000 
     64 OG         -4.6803  -30.6744   14.2317 O.2       1 SER1        0.0000 
     65 OD1        -6.0102  -29.9853   14.3133 O.3       3 ASP3        0.0000 
     66 CZ         -2.5679  -32.9859   13.0297 C.ar      5 PHE5        0.0000 
     67 OG         -3.8978  -32.2968   13.1113 O.2       1 SER1        0.0000 
     68 CZ         -6.0872  -36.0303    8.9559 C.ar      5 PHE5        0.0000 
     69 CA         -5.3047  -37.6527    7.8354 C.3       6 GLY6        0.0000 
     70 CA         -6.6346  -36.9636    7.9170 C.3       6 GLY6        0.0000 
     71 CA         -7.9644  -36.2746    7.9986 C.3       6 GLY6        0.0000 
     72 N          -5.8521  -38.5861    6.7966 N.2       2 ALA2        0.0000 
     73 DU         -7.1819  -37.8970    6.8782 H         7 CUB7        0.0000 
     74 CA         -8.5118  -37.2079    6.9597 C.3       6 GLY6        0.0000 
     75 CZ         -7.7293  -38.8304    5.8393 C.ar      5 PHE5        0.0000 
     76 CA         -9.0591  -38.1413    5.9209 C.3       6 GLY6        0.0000 
     77 N          -3.6693  -37.3735    4.5571 N.2       2 ALA2        0.0000 
     78 CA         -4.9991  -36.6845    4.6387 C.3       6 GLY6        0.0000 
     79 DU         -5.5465  -37.6178    3.5998 H         7 CUB7        0.0000 
     80 CA         -6.8764  -36.9288    3.6814 C.3       6 GLY6        0.0000 
     81 CA         -8.2062  -36.2397    3.7630 C.3       6 GLY6        0.0000 
@<TRIPOS>BOND
@<TRIPOS>SUBSTRUCTURE
     1 SER1        3 GROUP   
     2 ALA2       12 GROUP   
     3 ASP3       58 GROUP   
     4 LYS4        1 GROUP   
     5 PHE5        4 GROUP   
     6 GLY6        8 GROUP   
     7 CUB7       13 GROUP   
@<TRIPOS>SET

