#    Name: 4l0v_1V1_1_INTS_M
#    Modification time : Mon Apr  7 23:49:38 2014

@<TRIPOS>MOLECULE
4l0v_1V1_1_INTS_M
   51     0     6     0     0
SMALL
NO_CHARGES


@<TRIPOS>ATOM
      1 CA         -8.7410  -36.9075   12.2020 C.3       2 GLC5        0.0000 
      2 CA         -7.3710  -38.0050   12.9100 C.3       6 GLL5        0.0000 
      3 CA        -10.1110  -35.8100   11.4940 C.3       4 GLP5        0.0000 
      4 N          -9.2970  -39.1440   14.6875 N.am      1 SEC2        0.0000 
      5 N          -8.1600  -38.2750   14.9950 N.am      5 SEL2        0.0000 
      6 N         -10.4340  -40.0130   14.3800 N.am      3 SEP2        0.0000 
      7 N          -8.8345  -38.2295   16.2405 N.am      1 SEC2        0.0000 
      8 N          -9.5090  -38.1840   17.4860 N.am      3 SEP2        0.0000 
      9 CA         -5.4985  -38.0775   16.8540 C.3       2 GLC5        0.0000 
     10 CA         -6.3640  -36.4240   16.0480 C.3       6 GLL5        0.0000 
     11 CA         -4.6330  -39.7310   17.6600 C.3       4 GLP5        0.0000 
     12 CA         -6.2410  -33.3530   16.2885 C.3       2 GLC5        0.0000 
     13 CA         -4.8080  -34.6040   15.5070 C.3       6 GLL5        0.0000 
     14 CA         -7.6740  -32.1020   17.0700 C.3       4 GLP5        0.0000 
     15 CA         -4.7760  -37.4825   13.0190 C.3       2 GLC5        0.0000 
     16 CA         -6.5900  -37.3270   12.0220 C.3       6 GLL5        0.0000 
     17 CA         -2.9620  -37.6380   14.0160 C.3       4 GLP5        0.0000 
     18 CA         -7.8265  -36.0540   11.8785 C.3       2 GLC5        0.0000 
     19 CA         -9.0630  -34.7810   11.7350 C.3       4 GLP5        0.0000 
     20 CA         -7.1540  -39.6480    5.3840 C.3       2 GLC5        0.0000 
     21 CA         -6.4610  -38.1020    6.1170 C.3       6 GLL5        0.0000 
     22 CA         -7.8470  -41.1940    4.6510 C.3       4 GLP5        0.0000 
     23 CA         -6.2355  -36.0395    5.6895 C.3       2 GLC5        0.0000 
     24 CA         -6.0100  -33.9770    5.2620 C.3       4 GLP5        0.0000 
     25 CA         -9.2045  -39.0460    7.8630 C.3       2 GLC5        0.0000 
     26 CA         -7.2290  -38.8080    8.6320 C.3       6 GLL5        0.0000 
     27 CA        -11.1800  -39.2840    7.0940 C.3       4 GLP5        0.0000 
     28 CA         -6.6978  -39.6135   12.4595 C.3       2 GLC5        0.0000 
     29 CA         -6.4150  -41.5610   12.4530 C.3       4 GLP5        0.0000 
     30 CA         -4.6982  -37.0980   14.6992 C.3       2 GLC5        0.0000 
     31 CA         -6.5050  -36.6920   14.7170 C.3       6 GLL5        0.0000 
     32 CA         -6.5913  -36.1668   17.9692 C.3       2 GLC5        0.0000 
     33 CA         -7.2420  -36.4360   19.6910 C.3       4 GLP5        0.0000 
     34 CA         -6.8797  -34.5673   17.1552 C.3       2 GLC5        0.0000 
     35 CA         -7.8190  -33.2370   18.0630 C.3       4 GLP5        0.0000 
     36 CA         -4.0623  -36.3127   14.9965 C.3       2 GLC5        0.0000 
     37 CA         -5.5170  -35.3710   16.4470 C.3       6 GLL5        0.0000 
     38 CA         -4.5098  -34.2917   17.8385 C.3       2 GLC5        0.0000 
     39 CA         -3.8570  -33.5960   19.7000 C.3       4 GLP5        0.0000 
     40 CA         -4.1723  -36.5260   13.9875 C.3       2 GLC5        0.0000 
     41 CA         -4.9580  -34.8980   14.1400 C.3       6 GLL5        0.0000 
     42 CA         -8.5185  -36.9515   10.9078 C.3       2 GLC5        0.0000 
     43 CA         -6.5800  -37.5590   10.6240 C.3       6 GLL5        0.0000 
     44 CA         -4.1135  -36.6245    9.1743 C.3       2 GLC5        0.0000 
     45 CA         -5.8560  -36.6710    9.8080 C.3       6 GLL5        0.0000 
     46 CA         -2.3800  -36.4940    9.2330 C.3       4 GLP5        0.0000 
     47 CA         -6.5370  -35.5652    7.2855 C.3       2 GLC5        0.0000 
     48 CA         -5.8380  -36.8390    8.4230 C.3       6 GLL5        0.0000 
     49 CA         -6.9020  -33.7540    6.4370 C.3       4 GLP5        0.0000 
     50 CA         -8.7293  -40.1573    9.5332 C.3       2 GLC5        0.0000 
     51 CA        -10.2080  -41.5970    9.7410 C.3       4 GLP5        0.0000 
@<TRIPOS>BOND
@<TRIPOS>SUBSTRUCTURE
     1 SEC2        4 GROUP        1 X    SEC  0     ROOT SEC X 2
     2 GLC5        1 GROUP        1 X    GLC  0     **** GLC X 6
     3 SEP2        6 GROUP        1 Y    SEP  0     ROOT SEP Y 9
     4 GLP5        3 GROUP        1 Y    GLP  0     **** GLP Y 13
     5 SEL2        5 GROUP        1 Z    SEL  0     ROOT SEL Z 16
     6 GLL5        2 GROUP        1 Z    GLL  0     **** GLL Z 20
@<TRIPOS>SET

