#    Name: 4l0v_1V1_1_ligand
#    Modification time : Mon Apr  7 23:49:38 2014

@<TRIPOS>MOLECULE
4l0v_1V1_1_ligand
   27    29     1     0     0
SMALL
NO_CHARGES


@<TRIPOS>ATOM
      1 CAB        -7.3710  -38.0050   12.9100 C.2       1 1V11201     0.0000 
      2 CAD        -7.3570  -37.7030   14.2630 C.2       1 1V11201     0.0000 
      3 OAH        -8.1600  -38.2750   14.9950 O.2       1 1V11201     0.0000 
      4 CAE        -6.5050  -36.6920   14.7170 C.ar      1 1V11201     0.0000 
      5 CAO        -6.3640  -36.4240   16.0480 C.ar      1 1V11201     0.0000 
      6 CAQ        -5.5170  -35.3710   16.4470 C.ar      1 1V11201     0.0000 
      7 CAR        -4.8080  -34.6040   15.5070 C.ar      1 1V11201     0.0000 
      8 CAP        -4.9580  -34.8980   14.1400 C.ar      1 1V11201     0.0000 
      9 CAF        -5.8070  -35.9300   13.7780 C.ar      1 1V11201     0.0000 
     10 OAC        -5.8910  -36.2240   12.4520 O.3       1 1V11201     0.0000 
     11 CAA        -6.5900  -37.3270   12.0220 C.2       1 1V11201     0.0000 
     12 CAG        -6.5800  -37.5590   10.6240 C.ar      1 1V11201     0.0000 
     13 CAI        -5.8560  -36.6710    9.8080 C.ar      1 1V11201     0.0000 
     14 CAM        -5.8380  -36.8390    8.4230 C.ar      1 1V11201     0.0000 
     15 CAK        -6.5060  -37.9140    7.8450 C.ar      1 1V11201     0.0000 
     16 CL1        -6.4610  -38.1020    6.1170 Cl        1 1V11201     0.0000 
     17 CAL        -7.2290  -38.8080    8.6320 C.ar      1 1V11201     0.0000 
     18 CAJ        -7.2720  -38.6270   10.0190 C.ar      1 1V11201     0.0000 
     19 H          -7.9965  -38.7698   12.5740 H         1 1V11201     0.0000 
     20 H          -6.8569  -36.9675   16.7605 H         1 1V11201     0.0000 
     21 H          -5.4161  -35.1595   17.4532 H         1 1V11201     0.0000 
     22 H          -4.1982  -33.8509   15.8089 H         1 1V11201     0.0000 
     23 H          -4.4515  -34.3606   13.4431 H         1 1V11201     0.0000 
     24 H          -5.3385  -35.8949   10.2396 H         1 1V11201     0.0000 
     25 H          -5.3316  -36.1688    7.8322 H         1 1V11201     0.0000 
     26 H          -7.7258  -39.5919    8.2017 H         1 1V11201     0.0000 
     27 H          -7.8117  -39.2763   10.6050 H         1 1V11201     0.0000 
@<TRIPOS>BOND
     1    2    1 1    
     2   11    1 2    
     3   19    1 1    
     4    3    2 2    
     5    4    2 1    
     6    5    4 ar   
     7    9    4 ar   
     8    6    5 ar   
     9   20    5 1    
    10    7    6 ar   
    11   21    6 1    
    12    8    7 ar   
    13   22    7 1    
    14    9    8 ar   
    15   23    8 1    
    16   10    9 1    
    17   11   10 1    
    18   12   11 1    
    19   13   12 ar   
    20   18   12 ar   
    21   14   13 ar   
    22   24   13 1    
    23   15   14 ar   
    24   25   14 1    
    25   16   15 1    
    26   17   15 ar   
    27   18   17 ar   
    28   26   17 1    
    29   27   18 1    
@<TRIPOS>SUBSTRUCTURE
     1 1V11201     1 GROUP   
@<TRIPOS>SET

