#    Name: 3uo5_0BX_1_INTS_M
#    Modification time : Mon Mar 24 23:07:45 2014

@<TRIPOS>MOLECULE
3uo5_0BX_1_INTS_M
   69     0    12     0     0
SMALL
NO_CHARGES


@<TRIPOS>ATOM
      1 CA         -1.8895  -31.4425    6.3985 C.3       4 GLC5        0.0000 
      2 CA         -2.9730  -33.1120    5.8760 C.3      12 GLL5        0.0000 
      3 CA         -0.8060  -29.7730    6.9210 C.3       8 GLP5        0.0000 
      4 O          -3.1325  -34.2295    7.6915 O.2       1 ALC1        0.0000 
      5 O          -3.3290  -32.9430    7.2600 O.2       9 ALL1        0.0000 
      6 O          -2.9360  -35.5160    8.1230 O.2       5 ALP1        0.0000 
      7 CA         -2.3995  -30.8035    7.3930 C.3       4 GLC5        0.0000 
      8 CA         -3.9930  -31.8340    7.8650 C.3      12 GLL5        0.0000 
      9 CA         -4.5475  -33.5645    8.9405 C.3       4 GLC5        0.0000 
     10 CA         -5.1020  -35.2950   10.0160 C.3       8 GLP5        0.0000 
     11 CA         -5.4255  -32.6430    7.2375 C.3       4 GLC5        0.0000 
     12 CA         -6.8580  -33.4520    6.6100 C.3       8 GLP5        0.0000 
     13 N          -3.5460  -32.9260   10.0305 N.am      2 SEC2        0.0000 
     14 N          -3.9490  -31.7430    9.1930 N.am     10 SEL2        0.0000 
     15 N          -3.1430  -34.1090   10.8680 N.am      6 SEP2        0.0000 
     16 CA         -3.2960  -31.6340   11.0965 C.3       4 GLC5        0.0000 
     17 CA         -4.5450  -30.7290    9.8430 C.3      12 GLL5        0.0000 
     18 CA         -2.0470  -32.5390   12.3500 C.3       8 GLP5        0.0000 
     19 CA         -5.5610  -27.8960   10.3110 C.3       4 GLC5        0.0000 
     20 CA         -5.2200  -29.7640    9.1100 C.3      12 GLL5        0.0000 
     21 CA         -5.9020  -26.0280   11.5120 C.3       8 GLP5        0.0000 
     22 CA         -5.5170  -27.2990    5.9340 C.3       4 GLC5        0.0000 
     23 CA         -6.1920  -29.2000    5.5590 C.3      12 GLL5        0.0000 
     24 CA         -4.8420  -25.3980    6.3090 C.3       8 GLP5        0.0000 
     25 CA         -4.2710  -27.4950    5.4290 C.3       4 GLC5        0.0000 
     26 CA         -5.1580  -29.0750    4.6430 C.3      12 GLL5        0.0000 
     27 CA         -3.3840  -25.9150    6.2150 C.3       8 GLP5        0.0000 
     28 NZ          0.6320  -33.0650    1.6290 N.4       3 LYC4        0.0000 
     29 NZ         -0.5740  -34.1790    1.6200 N.4      11 LYL4        0.0000 
     30 NZ          2.4540  -32.7020    2.5360 N.4       7 LYP4        0.0000 
     31 NZ         -1.6095  -35.6385    0.9365 N.4       3 LYC4        0.0000 
     32 NZ         -2.6450  -37.0980    0.2530 N.4       7 LYP4        0.0000 
     33 N           0.6320  -33.0650    1.6290 N.am      2 SEC2        0.0000 
     34 N          -0.5740  -34.1790    1.6200 N.am     10 SEL2        0.0000 
     35 N           1.8380  -31.9510    1.6380 N.am      6 SEP2        0.0000 
     36 N           0.6190  -33.9440    2.3635 N.am      2 SEC2        0.0000 
     37 N           1.8120  -33.7090    3.1070 N.am      6 SEP2        0.0000 
     38 NZ         -2.6145  -35.3610    0.5905 N.4       3 LYC4        0.0000 
     39 NZ         -2.5840  -33.6240    0.9280 N.4      11 LYL4        0.0000 
     40 CA         -3.2395  -35.1248    4.0373 C.3       4 GLC5        0.0000 
     41 CA         -1.4650  -34.1310    4.2860 C.3      12 GLL5        0.0000 
     42 CA         -4.6560  -36.4080    4.3030 C.3       8 GLP5        0.0000 
     43 CA         -0.5873  -32.3096    4.9121 C.3       4 GLC5        0.0000 
     44 CA         -2.1810  -33.5520    3.2570 C.3      12 GLL5        0.0000 
     45 CA          0.6690  -30.7460    5.1420 C.3       8 GLP5        0.0000 
     46 CA         -3.5372  -34.9583    5.0188 C.3       4 GLC5        0.0000 
     47 CA         -1.8640  -33.9050    5.5930 C.3      12 GLL5        0.0000 
     48 CA         -5.0950  -33.1420    5.9815 C.3       4 GLC5        0.0000 
     49 CA         -2.4103  -31.0188    4.3273 C.3       4 GLC5        0.0000 
     50 CA         -3.6910  -32.5520    4.8300 C.3      12 GLL5        0.0000 
     51 CA         -1.3310  -29.3780    4.4790 C.3       8 GLP5        0.0000 
     52 CA         -4.0727  -34.5338    4.2393 C.3       4 GLC5        0.0000 
     53 CA         -3.2902  -29.3862   10.0832 C.3       4 GLC5        0.0000 
     54 CA         -1.6980  -28.5260   10.6900 C.3       8 GLP5        0.0000 
     55 CA         -6.2313  -30.4348   10.7147 C.3       4 GLC5        0.0000 
     56 CA         -7.5800  -30.6230   11.9530 C.3       8 GLP5        0.0000 
     57 CA         -4.1143  -28.2957    7.9177 C.3       4 GLC5        0.0000 
     58 CA         -2.9890  -26.7690    7.4130 C.3       8 GLP5        0.0000 
     59 CA         -6.4564  -31.1549    8.5839 C.3       4 GLC5        0.0000 
     60 CA         -5.2590  -29.8810    7.7350 C.3      12 GLL5        0.0000 
     61 CA         -7.8420  -32.2460    8.5620 C.3       8 GLP5        0.0000 
     62 CA         -6.8400  -31.4222    5.9768 C.3       4 GLC5        0.0000 
     63 CA         -7.5766  -31.4159    3.2225 C.3       4 GLC5        0.0000 
     64 CA         -6.6270  -29.7230    2.8670 C.3      12 GLL5        0.0000 
     65 CA         -8.0610  -33.1130    2.7840 C.3       8 GLP5        0.0000 
     66 CA         -3.2988  -29.2918    4.2245 C.3       4 GLC5        0.0000 
     67 CA         -5.3750  -29.3360    3.2970 C.3      12 GLL5        0.0000 
     68 CA         -4.5702  -28.1261    2.6677 C.3       4 GLC5        0.0000 
     69 CA         -3.5610  -26.9500    1.4730 C.3       8 GLP5        0.0000 
@<TRIPOS>BOND
@<TRIPOS>SUBSTRUCTURE
     1 ALC1        4 GROUP        1 X    ALC  0     ROOT ALC X 1
     2 SEC2       13 GROUP        1 X    SEC  0     **** SEC X 2
     3 LYC4       28 GROUP        1 X    LYC  0     **** LYC X 4
     4 GLC5        1 GROUP        1 X    GLC  0     **** GLC X 6
     5 ALP1        6 GROUP        1 Y    ALP  0     ROOT ALP Y 8
     6 SEP2       15 GROUP        1 Y    SEP  0     **** SEP Y 9
     7 LYP4       30 GROUP        1 Y    LYP  0     **** LYP Y 11
     8 GLP5        3 GROUP        1 Y    GLP  0     **** GLP Y 13
     9 ALL1        5 GROUP        1 Z    ALL  0     ROOT ALL Z 15
    10 SEL2       14 GROUP        1 Z    SEL  0     **** SEL Z 16
    11 LYL4       29 GROUP        1 Z    LYL  0     **** LYL Z 18
    12 GLL5        2 GROUP        1 Z    GLL  0     **** GLL Z 20
@<TRIPOS>SET

