#    Name: 3uo5_0BX_1_ligand
#    Modification time : Mon Mar 24 23:07:45 2014

@<TRIPOS>MOLECULE
3uo5_0BX_1_ligand
   36    38     1     0     0
SMALL
NO_CHARGES


@<TRIPOS>ATOM
      1 C06        -2.1810  -33.5520    3.2570 C.ar      1 0BX501      0.0000 
      2 C11        -1.7540  -33.7930    1.8580 C.2       1 0BX501      0.0000 
      3 C05        -1.4650  -34.1310    4.2860 C.ar      1 0BX501      0.0000 
      4 C10        -1.8640  -33.9050    5.5930 C.ar      1 0BX501      0.0000 
      5 C09        -2.9730  -33.1120    5.8760 C.ar      1 0BX501      0.0000 
      6 C08        -3.6910  -32.5520    4.8300 C.ar      1 0BX501      0.0000 
      7 C07        -3.2880  -32.7670    3.5210 C.ar      1 0BX501      0.0000 
      8 N01        -3.3290  -32.9430    7.2600 N.pl3     1 0BX501      0.0000 
      9 C12        -3.9930  -31.8340    7.8650 C.ar      1 0BX501      0.0000 
     10 N03        -3.9490  -31.7430    9.1930 N.ar      1 0BX501      0.0000 
     11 C15        -4.5450  -30.7290    9.8430 C.ar      1 0BX501      0.0000 
     12 C14        -5.2200  -29.7640    9.1100 C.ar      1 0BX501      0.0000 
     13 C13        -5.2590  -29.8810    7.7350 C.ar      1 0BX501      0.0000 
     14 N02        -4.6420  -30.9120    7.1480 N.ar      1 0BX501      0.0000 
     15 N04        -5.9520  -28.9190    6.9430 N.pl3     1 0BX501      0.0000 
     16 C16        -6.1920  -29.2000    5.5590 C.ar      1 0BX501      0.0000 
     17 C17        -7.4520  -29.5850    5.1280 C.ar      1 0BX501      0.0000 
     18 C18        -7.6630  -29.8440    3.7820 C.ar      1 0BX501      0.0000 
     19 C19        -6.6270  -29.7230    2.8670 C.ar      1 0BX501      0.0000 
     20 C20        -5.3750  -29.3360    3.2970 C.ar      1 0BX501      0.0000 
     21 C21        -5.1580  -29.0750    4.6430 C.ar      1 0BX501      0.0000 
     22 O22        -0.5740  -34.1790    1.6200 O.co2     1 0BX501      0.0000 
     23 O23        -2.5840  -33.6240    0.9280 O.co2     1 0BX501      0.0000 
     24 H          -0.6505  -34.7193    4.0877 H         1 0BX501      0.0000 
     25 H          -1.3321  -34.3304    6.3730 H         1 0BX501      0.0000 
     26 H          -4.5221  -31.9774    5.0254 H         1 0BX501      0.0000 
     27 H          -3.8155  -32.3403    2.7449 H         1 0BX501      0.0000 
     28 H          -3.0611  -33.7505    7.9124 H         1 0BX501      0.0000 
     29 H          -4.5125  -30.6517   10.8697 H         1 0BX501      0.0000 
     30 H          -5.6788  -28.9823    9.5818 H         1 0BX501      0.0000 
     31 H          -6.2700  -28.0520    7.3487 H         1 0BX501      0.0000 
     32 H          -8.2224  -29.6777    5.7991 H         1 0BX501      0.0000 
     33 H          -8.6020  -30.1303    3.4567 H         1 0BX501      0.0000 
     34 H          -6.7960  -29.9222    1.8716 H         1 0BX501      0.0000 
     35 H          -4.6013  -29.2398    2.6251 H         1 0BX501      0.0000 
     36 H          -4.2203  -28.7859    4.9640 H         1 0BX501      0.0000 
@<TRIPOS>BOND
     1    2    1 1    
     2    3    1 ar   
     3    7    1 ar   
     4   22    2 ar   
     5   23    2 ar   
     6    4    3 ar   
     7   24    3 1    
     8    5    4 ar   
     9   25    4 1    
    10    6    5 ar   
    11    8    5 1    
    12    7    6 ar   
    13   26    6 1    
    14   27    7 1    
    15    9    8 1    
    16   28    8 1    
    17   10    9 ar   
    18   14    9 ar   
    19   11   10 ar   
    20   12   11 ar   
    21   29   11 1    
    22   13   12 ar   
    23   30   12 1    
    24   14   13 ar   
    25   15   13 1    
    26   16   15 1    
    27   31   15 1    
    28   17   16 ar   
    29   21   16 ar   
    30   18   17 ar   
    31   32   17 1    
    32   19   18 ar   
    33   33   18 1    
    34   20   19 ar   
    35   34   19 1    
    36   21   20 ar   
    37   35   20 1    
    38   36   21 1    
@<TRIPOS>SUBSTRUCTURE
     1 0BX501      1 GROUP   
@<TRIPOS>SET

