#    Name: 2wv2_TPF_1_INTS_M
#    Modification time : Tue Mar 25 04:42:35 2014

@<TRIPOS>MOLECULE
2wv2_TPF_1_INTS_M
   29     0     6     0     0
SMALL
NO_CHARGES


@<TRIPOS>ATOM
      1 O         -50.5035   10.6775   -0.2925 O.2       1 ALC1        0.0000 
      2 O         -48.9870   10.5010   -0.4780 O.2       5 ALL1        0.0000 
      3 O         -52.0200   10.8540   -0.1070 O.2       3 ALP1        0.0000 
      4 CA        -47.4045   10.6860   -2.5605 C.3       2 GLC5        0.0000 
      5 CA        -47.3090    9.1940   -1.3300 C.3       6 GLL5        0.0000 
      6 CA        -47.5000   12.1780   -3.7910 C.3       4 GLP5        0.0000 
      7 CA        -51.1690    8.9115   -0.0435 C.3       2 GLC5        0.0000 
      8 CA        -49.4590    7.9540   -0.4790 C.3       6 GLL5        0.0000 
      9 CA        -52.8790    9.8690    0.3920 C.3       4 GLP5        0.0000 
     10 CA        -49.6075    6.1825   -0.0065 C.3       2 GLC5        0.0000 
     11 CA        -49.7560    4.4110    0.4660 C.3       4 GLP5        0.0000 
     12 CA        -46.0210    6.4660    4.2765 C.3       2 GLC5        0.0000 
     13 CA        -47.0990    7.9580    2.9990 C.3       6 GLL5        0.0000 
     14 CA        -44.9430    4.9740    5.5540 C.3       4 GLP5        0.0000 
     15 CA        -48.4075    6.6495    4.4015 C.3       2 GLC5        0.0000 
     16 CA        -47.8990    8.4930    5.2140 C.3       6 GLL5        0.0000 
     17 CA        -48.9160    4.8060    3.5890 C.3       4 GLP5        0.0000 
     18 CA        -49.9955    8.8835    5.1045 C.3       2 GLC5        0.0000 
     19 CA        -52.0920    9.2740    4.9950 C.3       4 GLP5        0.0000 
     20 CA        -48.0365    9.6860    6.9890 C.3       2 GLC5        0.0000 
     21 CA        -48.1740   10.8790    8.7640 C.3       4 GLP5        0.0000 
     22 CA        -46.7500    7.1220    5.9440 C.3       2 GLC5        0.0000 
     23 CA        -45.6010    5.7510    6.6740 C.3       4 GLP5        0.0000 
     24 CA        -51.4525   10.0765    1.5785 C.3       2 GLC5        0.0000 
     25 CA        -49.9340   10.3710    1.3690 C.3       6 GLL5        0.0000 
     26 CA        -52.9710    9.7820    1.7880 C.3       4 GLP5        0.0000 
     27 CA        -51.0130    9.8225    3.1820 C.3       2 GLC5        0.0000 
     28 CA        -45.5037    8.3564    1.9332 C.3       2 GLC5        0.0000 
     29 CA        -43.6610    8.4960    1.6940 C.3       4 GLP5        0.0000 
@<TRIPOS>BOND
@<TRIPOS>SUBSTRUCTURE
     1 ALC1        1 GROUP        1 X    ALC  0     ROOT ALC X 1
     2 GLC5        4 GROUP        1 X    GLC  0     **** GLC X 6
     3 ALP1        3 GROUP        1 Y    ALP  0     ROOT ALP Y 8
     4 GLP5        6 GROUP        1 Y    GLP  0     **** GLP Y 13
     5 ALL1        2 GROUP        1 Z    ALL  0     ROOT ALL Z 15
     6 GLL5        5 GROUP        1 Z    GLL  0     **** GLL Z 20
@<TRIPOS>SET

