#    Name: 2wv2_TPF_1_ligand
#    Modification time : Tue Mar 25 04:42:35 2014

@<TRIPOS>MOLECULE
2wv2_TPF_1_ligand
   34    36     1     0     0
SMALL
NO_CHARGES


@<TRIPOS>ATOM
      1 O         -48.9870   10.5010   -0.4780 O.3       1 TPF1        0.0000 
      2 C1        -48.4300    9.1710   -0.2970 C.3       1 TPF1        0.0000 
      3 C2        -47.3090    9.1940   -1.3300 C.3       1 TPF1        0.0000 
      4 C5        -49.4590    7.9540   -0.4790 C.3       1 TPF1        0.0000 
      5 C8        -48.0620    8.9190    1.1250 C.ar      1 TPF1        0.0000 
      6 N1        -46.3970   10.2170   -0.9060 N.pl3     1 TPF1        0.0000 
      7 C3        -46.5630   11.3120   -0.1500 C.2       1 TPF1        0.0000 
      8 N3        -45.0680    9.9510   -1.3740 N.2       1 TPF1        0.0000 
      9 N2        -45.3140   11.8170   -0.1340 N.2       1 TPF1        0.0000 
     10 C4        -44.4060   11.0280   -0.8540 C.2       1 TPF1        0.0000 
     11 N4        -49.7770    7.9620   -1.9120 N.pl3     1 TPF1        0.0000 
     12 C6        -50.6280    8.7460   -2.6760 C.2       1 TPF1        0.0000 
     13 N6        -48.9670    7.0520   -2.6840 N.2       1 TPF1        0.0000 
     14 N5        -50.4190    8.2960   -3.9670 N.2       1 TPF1        0.0000 
     15 C7        -49.4210    7.2990   -3.9660 C.2       1 TPF1        0.0000 
     16 C9        -47.1260    8.0320    1.5670 C.ar      1 TPF1        0.0000 
     17 C13       -49.0140    9.5820    2.0370 C.ar      1 TPF1        0.0000 
     18 C10       -47.0990    7.9580    2.9990 C.ar      1 TPF1        0.0000 
     19 C11       -47.9930    8.6270    3.8710 C.ar      1 TPF1        0.0000 
     20 F1        -47.8990    8.4930    5.2140 F         1 TPF1        0.0000 
     21 C12       -48.9830    9.4510    3.4270 C.ar      1 TPF1        0.0000 
     22 F2        -49.9340   10.3710    1.3690 F         1 TPF1        0.0000 
     23 H         -47.7425    9.4142   -2.2956 H         1 TPF1        0.0000 
     24 H         -46.8429    8.2187   -1.3461 H         1 TPF1        0.0000 
     25 H         -50.3044    8.1713    0.1254 H         1 TPF1        0.0000 
     26 H         -48.9493    7.0714   -0.1815 H         1 TPF1        0.0000 
     27 H         -47.3281   11.6372    0.2541 H         1 TPF1        0.0000 
     28 H         -43.4767   11.2282   -0.9536 H         1 TPF1        0.0000 
     29 H         -51.1984    9.4107   -2.3887 H         1 TPF1        0.0000 
     30 H         -49.1070    6.8567   -4.7641 H         1 TPF1        0.0000 
     31 H         -46.5344    7.4998    1.0138 H         1 TPF1        0.0000 
     32 H         -46.3494    7.3541    3.4321 H         1 TPF1        0.0000 
     33 H         -49.6238    9.9174    4.0153 H         1 TPF1        0.0000 
     34 H         -49.9627   10.4016   -0.2827 H         1 TPF1        0.0000 
@<TRIPOS>BOND
     1    2    1 1    
     2   34    1 1    
     3    3    2 1    
     4    4    2 1    
     5    5    2 1    
     6    6    3 1    
     7   23    3 1    
     8   24    3 1    
     9   11    4 1    
    10   25    4 1    
    11   26    4 1    
    12   16    5 ar   
    13   17    5 ar   
    14    7    6 1    
    15    8    6 1    
    16    9    7 2    
    17   27    7 1    
    18   10    8 2    
    19   10    9 1    
    20   28   10 1    
    21   12   11 1    
    22   13   11 1    
    23   14   12 2    
    24   29   12 1    
    25   15   13 2    
    26   15   14 1    
    27   30   15 1    
    28   18   16 ar   
    29   31   16 1    
    30   21   17 ar   
    31   22   17 1    
    32   19   18 ar   
    33   32   18 1    
    34   20   19 1    
    35   21   19 ar   
    36   33   21 1    
@<TRIPOS>SUBSTRUCTURE
     1 TPF1        1 GROUP   
@<TRIPOS>SET

