#    Name: 2cvd_HQL_1_INTS_M
#    Modification time : Tue Mar 25 01:16:06 2014

@<TRIPOS>MOLECULE
2cvd_HQL_1_INTS_M
   51     0     3     0     0
SMALL
NO_CHARGES


@<TRIPOS>ATOM
      1 CA          8.4495    6.1975   37.1355 C.3       1 GLC5        0.0000 
      2 CA          6.7070    7.3040   36.7770 C.3       3 GLL5        0.0000 
      3 CA         10.1920    5.0910   37.4940 C.3       2 GLP5        0.0000 
      4 CA          1.3695   11.1320   36.5055 C.3       1 GLC5        0.0000 
      5 CA          1.5590   12.8680   36.8110 C.3       3 GLL5        0.0000 
      6 CA          1.1800    9.3960   36.2000 C.3       2 GLP5        0.0000 
      7 CA          2.0375   15.1395   38.6960 C.3       1 GLC5        0.0000 
      8 CA          0.9290   13.4320   38.0260 C.3       3 GLL5        0.0000 
      9 CA          3.1460   16.8470   39.3660 C.3       2 GLP5        0.0000 
     10 CA          3.5085   15.5095   38.3025 C.3       1 GLC5        0.0000 
     11 CA          3.8710   14.1720   37.2390 C.3       3 GLL5        0.0000 
     12 CA          3.6335   13.2340   38.9485 C.3       1 GLC5        0.0000 
     13 CA          3.3960   12.2960   40.6580 C.3       2 GLP5        0.0000 
     14 CA          3.9695   16.1480   37.1510 C.3       1 GLC5        0.0000 
     15 CA          5.1130   14.6000   36.4320 C.3       3 GLL5        0.0000 
     16 CA          2.8260   17.6960   37.8700 C.3       2 GLP5        0.0000 
     17 CA         12.4405   11.5095   33.7305 C.3       1 GLC5        0.0000 
     18 CA         10.8200   12.7780   33.7150 C.3       3 GLL5        0.0000 
     19 CA         14.0610   10.2410   33.7460 C.3       2 GLP5        0.0000 
     20 CA         12.3820   13.5335   35.8980 C.3       1 GLC5        0.0000 
     21 CA         10.5050   12.7770   35.1650 C.3       3 GLL5        0.0000 
     22 CA         14.2590   14.2900   36.6310 C.3       2 GLP5        0.0000 
     23 CA          8.5780    8.1340   35.7970 C.3       1 GLC5        0.0000 
     24 CA         10.3900    8.8220   35.5560 C.3       2 GLP5        0.0000 
     25 CA          8.5340    9.1675   35.3877 C.3       1 GLC5        0.0000 
     26 CA          6.6930    8.9310   34.7530 C.3       3 GLL5        0.0000 
     27 CA          5.3773    6.8963   34.5968 C.3       1 GLC5        0.0000 
     28 CA          4.0250    5.6040   33.7980 C.3       2 GLP5        0.0000 
     29 CA          6.7995   15.1260   36.3000 C.3       1 GLC5        0.0000 
     30 CA          5.4810   13.6180   35.2560 C.3       3 GLL5        0.0000 
     31 CA          8.3020   16.1430   36.7560 C.3       2 GLP5        0.0000 
     32 CA          2.9725   11.0400   34.4870 C.3       1 GLC5        0.0000 
     33 CA          4.2150   13.2210   34.2720 C.3       3 GLL5        0.0000 
     34 CA          2.2820    9.2240   34.2600 C.3       2 GLP5        0.0000 
     35 CA          2.3200   12.7230   39.0382 C.3       1 GLC5        0.0000 
     36 CA          0.2618   11.3915   37.5985 C.3       1 GLC5        0.0000 
     37 CA          0.2880    9.5480   37.2710 C.3       2 GLP5        0.0000 
     38 CA          9.5072   10.4892   35.3477 C.3       1 GLC5        0.0000 
     39 CA          8.1070   11.9230   34.6410 C.3       3 GLL5        0.0000 
     40 CA          9.4030   10.3495   32.5640 C.3       1 GLC5        0.0000 
     41 CA          9.7770   12.3600   32.7020 C.3       3 GLL5        0.0000 
     42 CA          9.7160    8.5410   32.1960 C.3       2 GLP5        0.0000 
     43 CA          8.8985   13.9550   32.5413 C.3       1 GLC5        0.0000 
     44 CA          8.4030   11.9560   33.1620 C.3       3 GLL5        0.0000 
     45 CA          7.8420   15.4420   31.7590 C.3       2 GLP5        0.0000 
     46 CA         10.5263   10.7997   34.9980 C.3       1 GLC5        0.0000 
     47 CA          9.0628   14.3633   36.0787 C.3       1 GLC5        0.0000 
     48 CA          8.4827    8.9875   36.5117 C.3       1 GLC5        0.0000 
     49 CA          6.5810    9.8630   37.2030 C.3       3 GLL5        0.0000 
     50 CA          7.7257    9.6440   38.6502 C.3       1 GLC5        0.0000 
     51 CA          8.8760   10.1350   39.8330 C.3       2 GLP5        0.0000 
@<TRIPOS>BOND
@<TRIPOS>SUBSTRUCTURE
     1 GLC5        1 GROUP        1 X    GLC  0     ROOT GLC X 6
     2 GLP5        3 GROUP        1 Y    GLP  0     ROOT GLP Y 13
     3 GLL5        2 GROUP        1 Z    GLL  0     ROOT GLL Z 20
@<TRIPOS>SET

