#    Name: 2cvd_HQL_1_ligand
#    Modification time : Tue Mar 25 01:16:06 2014

@<TRIPOS>MOLECULE
2cvd_HQL_1_ligand
   56    59     1     0     0
SMALL
NO_CHARGES


@<TRIPOS>ATOM
      1 C1          6.7070    7.3040   36.7770 C.ar      1 HQL2201     0.0000 
      2 C2          6.8250    7.5880   35.2990 C.ar      1 HQL2201     0.0000 
      3 C3          6.6930    8.9310   34.7530 C.ar      1 HQL2201     0.0000 
      4 C4          6.6630   10.0950   35.6860 C.ar      1 HQL2201     0.0000 
      5 C5          6.6890   11.4810   35.0690 C.3       1 HQL2201     0.0000 
      6 O1          6.0440   12.4640   35.9510 O.3       1 HQL2201     0.0000 
      7 C6          5.4810   13.6180   35.2560 C.3       1 HQL2201     0.0000 
      8 C7          4.2150   13.2210   34.2720 C.3       1 HQL2201     0.0000 
      9 C8          3.1110   12.4910   35.1560 C.3       1 HQL2201     0.0000 
     10 N1          2.7810   13.5780   36.2830 N.4       1 HQL2201     0.0000 
     11 C9          1.5590   12.8680   36.8110 C.3       1 HQL2201     0.0000 
     12 C10         0.9290   13.4320   38.0260 C.3       1 HQL2201     0.0000 
     13 C11        -0.4580   13.0380   37.8260 C.3       1 HQL2201     0.0000 
     14 C12        -1.3330   13.4360   38.9060 C.2       1 HQL2201     0.0000 
     15 N2         -2.6030   13.5900   38.7490 N.2       1 HQL2201     0.0000 
     16 N3         -3.1150   13.9490   39.8810 N.2       1 HQL2201     0.0000 
     17 N4         -2.1640   14.0130   40.7880 N.2       1 HQL2201     0.0000 
     18 N5         -1.0290   13.6960   40.2350 N.pl3     1 HQL2201     0.0000 
     19 C13         3.8710   14.1720   37.2390 C.3       1 HQL2201     0.0000 
     20 C14         5.1130   14.6000   36.4320 C.3       1 HQL2201     0.0000 
     21 C15         8.1070   11.9230   34.6410 C.ar      1 HQL2201     0.0000 
     22 C16         8.4030   11.9560   33.1620 C.ar      1 HQL2201     0.0000 
     23 C17         9.7770   12.3600   32.7020 C.ar      1 HQL2201     0.0000 
     24 C18        10.8200   12.7780   33.7150 C.ar      1 HQL2201     0.0000 
     25 C19        10.5050   12.7770   35.1650 C.ar      1 HQL2201     0.0000 
     26 C20         9.1420   12.3900   35.6380 C.ar      1 HQL2201     0.0000 
     27 C21         6.5810    9.8630   37.2030 C.ar      1 HQL2201     0.0000 
     28 C22         6.5700    8.4430   37.7320 C.ar      1 HQL2201     0.0000 
     29 H           6.7211    6.3724   37.1010 H         1 HQL2201     0.0000 
     30 H           7.0025    6.8010   34.6835 H         1 HQL2201     0.0000 
     31 H           6.6226    9.0876   33.7736 H         1 HQL2201     0.0000 
     32 H           6.0864   11.4217   34.1267 H         1 HQL2201     0.0000 
     33 H           6.2273   14.0979   34.6552 H         1 HQL2201     0.0000 
     34 H           4.5819   12.5574   33.5352 H         1 HQL2201     0.0000 
     35 H           3.8236   14.1214   33.8798 H         1 HQL2201     0.0000 
     36 H           3.5312   11.6519   35.6079 H         1 HQL2201     0.0000 
     37 H           2.2582   12.3316   34.5795 H         1 HQL2201     0.0000 
     38 H           2.3339   14.4274   35.6494 H         1 HQL2201     0.0000 
     39 H           1.8306   11.7947   36.9980 H         1 HQL2201     0.0000 
     40 H           0.7980   12.8198   35.9867 H         1 HQL2201     0.0000 
     41 H           1.0295   14.4906   38.0319 H         1 HQL2201     0.0000 
     42 H           1.3360   12.9737   38.8950 H         1 HQL2201     0.0000 
     43 H          -0.5112   11.9305   37.6867 H         1 HQL2201     0.0000 
     44 H          -0.8289   13.4670   36.8631 H         1 HQL2201     0.0000 
     45 H          -0.1600   13.6396   40.6094 H         1 HQL2201     0.0000 
     46 H           4.1490   13.4144   37.9577 H         1 HQL2201     0.0000 
     47 H           3.4542   15.0307   37.7456 H         1 HQL2201     0.0000 
     48 H           4.9430   15.5940   36.0033 H         1 HQL2201     0.0000 
     49 H           5.9772   14.6653   37.1024 H         1 HQL2201     0.0000 
     50 H           7.7077   11.7169   32.5109 H         1 HQL2201     0.0000 
     51 H          10.0020   12.3536   31.7394 H         1 HQL2201     0.0000 
     52 H          11.7218   13.0540   33.3935 H         1 HQL2201     0.0000 
     53 H          11.2026   13.0349   35.8293 H         1 HQL2201     0.0000 
     54 H           8.9105   12.4366   36.5985 H         1 HQL2201     0.0000 
     55 H           6.5369   10.6264   37.8099 H         1 HQL2201     0.0000 
     56 H           6.4727    8.2833   38.7001 H         1 HQL2201     0.0000 
@<TRIPOS>BOND
     1    2    1 ar   
     2   28    1 ar   
     3   29    1 1    
     4    3    2 ar   
     5   30    2 1    
     6    4    3 ar   
     7   31    3 1    
     8    5    4 1    
     9   27    4 ar   
    10    6    5 1    
    11   21    5 1    
    12   32    5 1    
    13    7    6 1    
    14    8    7 1    
    15   20    7 1    
    16   33    7 1    
    17    9    8 1    
    18   34    8 1    
    19   35    8 1    
    20   10    9 1    
    21   36    9 1    
    22   37    9 1    
    23   11   10 1    
    24   19   10 1    
    25   38   10 1    
    26   12   11 1    
    27   39   11 1    
    28   40   11 1    
    29   13   12 1    
    30   41   12 1    
    31   42   12 1    
    32   14   13 1    
    33   43   13 1    
    34   44   13 1    
    35   15   14 2    
    36   18   14 1    
    37   16   15 1    
    38   17   16 2    
    39   18   17 1    
    40   45   18 1    
    41   20   19 1    
    42   46   19 1    
    43   47   19 1    
    44   48   20 1    
    45   49   20 1    
    46   22   21 ar   
    47   26   21 ar   
    48   23   22 ar   
    49   50   22 1    
    50   24   23 ar   
    51   51   23 1    
    52   25   24 ar   
    53   52   24 1    
    54   26   25 ar   
    55   53   25 1    
    56   54   26 1    
    57   28   27 ar   
    58   55   27 1    
    59   56   28 1    
@<TRIPOS>SUBSTRUCTURE
     1 HQL2201     1 GROUP   
@<TRIPOS>SET

