#    Name: 3wd9_QPC_2_INTS_M
#    Modification time : Tue Mar 25 02:31:45 2014

@<TRIPOS>MOLECULE
3wd9_QPC_2_INTS_M
   64     0     9     0     0
SMALL
NO_CHARGES


@<TRIPOS>ATOM
      1 CA         23.6545  -21.6720  -13.5855 C.3       3 GLC5        0.0000 
      2 CA         22.8000  -23.4800  -14.0250 C.3       9 GLL5        0.0000 
      3 CA         24.5090  -19.8640  -13.1460 C.3       6 GLP5        0.0000 
      4 N          23.8580  -24.4140  -12.2860 N.am      2 SEC2        0.0000 
      5 N          22.5900  -23.8810  -12.7620 N.am      8 SEL2        0.0000 
      6 N          25.1260  -24.9470  -11.8100 N.am      5 SEP2        0.0000 
      7 CA         22.9855  -25.9940   -7.9515 C.3       3 GLC5        0.0000 
      8 CA         21.4520  -25.4430   -8.9710 C.3       9 GLL5        0.0000 
      9 CA         24.5190  -26.5450   -6.9320 C.3       6 GLP5        0.0000 
     10 CA         18.1485  -22.7535  -16.0005 C.3       3 GLC5        0.0000 
     11 CA         18.4890  -21.2910  -14.3570 C.3       9 GLL5        0.0000 
     12 CA         17.8080  -24.2160  -17.6440 C.3       6 GLP5        0.0000 
     13 CA         14.2100  -20.5590  -13.6130 C.3       3 GLC5        0.0000 
     14 CA         15.1430  -19.2710  -12.5980 C.3       9 GLL5        0.0000 
     15 CA         13.2770  -21.8470  -14.6280 C.3       6 GLP5        0.0000 
     16 N          21.4455  -22.4725  -18.3770 N.am      2 SEC2        0.0000 
     17 N          21.3070  -22.1700  -17.0080 N.am      8 SEL2        0.0000 
     18 N          21.5840  -22.7750  -19.7460 N.am      5 SEP2        0.0000 
     19 O          23.6900  -21.8065  -17.8705 O.2       1 ALC1        0.0000 
     20 O          23.5240  -22.3940  -16.5240 O.2       7 ALL1        0.0000 
     21 O          23.8560  -21.2190  -19.2170 O.2       4 ALP1        0.0000 
     22 CA         15.3735  -16.5150   -9.3980 C.3       3 GLC5        0.0000 
     23 CA         17.1770  -17.0400  -10.1740 C.3       9 GLL5        0.0000 
     24 CA         13.5700  -15.9900   -8.6220 C.3       6 GLP5        0.0000 
     25 CA         20.9430  -17.2920  -12.2590 C.3       3 GLC5        0.0000 
     26 CA         19.3640  -16.2800  -11.1390 C.3       9 GLL5        0.0000 
     27 CA         22.5220  -18.3040  -13.3790 C.3       6 GLP5        0.0000 
     28 CA         20.4610  -14.7190  -11.3490 C.3       3 GLC5        0.0000 
     29 CA         21.5580  -13.1580  -11.5590 C.3       6 GLP5        0.0000 
     30 CA         19.5530  -18.0235  -10.6120 C.3       3 GLC5        0.0000 
     31 CA         19.7420  -19.7670  -10.0850 C.3       6 GLP5        0.0000 
     32 CA         16.6950  -13.4145  -10.4595 C.3       3 GLC5        0.0000 
     33 CA         17.3180  -14.9210  -11.5100 C.3       9 GLL5        0.0000 
     34 CA         16.0720  -11.9080   -9.4090 C.3       6 GLP5        0.0000 
     35 CA         15.4150  -14.8355  -10.5160 C.3       3 GLC5        0.0000 
     36 CA         13.5120  -14.7500   -9.5220 C.3       6 GLP5        0.0000 
     37 CA         17.2340  -13.4570   -9.3590 C.3       3 GLC5        0.0000 
     38 CA         18.3960  -15.0060   -9.3090 C.3       9 GLL5        0.0000 
     39 CA         19.9770  -14.0820  -10.4340 C.3       3 GLC5        0.0000 
     40 CA         19.3145  -16.7330   -8.7125 C.3       3 GLC5        0.0000 
     41 CA         20.2330  -18.4600   -8.1160 C.3       6 GLP5        0.0000 
     42 CA         18.7340  -14.1805   -7.6075 C.3       3 GLC5        0.0000 
     43 CA         19.0720  -13.3550   -5.9060 C.3       6 GLP5        0.0000 
     44 CA         21.2492  -25.9400  -11.7495 C.3       3 GLC5        0.0000 
     45 CA         21.0350  -24.0390  -10.9060 C.3       9 GLL5        0.0000 
     46 CA         21.2940  -28.0550  -11.9060 C.3       6 GLP5        0.0000 
     47 CA         21.4145  -20.9670  -14.3313 C.3       3 GLC5        0.0000 
     48 CA         20.6280  -22.5910  -14.2320 C.3       9 GLL5        0.0000 
     49 CA         21.5850  -19.2240  -14.1430 C.3       6 GLP5        0.0000 
     50 CA         21.4540  -26.6412  -10.7568 C.3       3 GLC5        0.0000 
     51 CA         21.7760  -25.0120  -10.2440 C.3       9 GLL5        0.0000 
     52 CA         20.1188  -26.8405   -8.3692 C.3       3 GLC5        0.0000 
     53 CA         20.3650  -24.9010   -8.3180 C.3       9 GLL5        0.0000 
     54 CA         19.3290  -28.5090   -8.0940 C.3       6 GLP5        0.0000 
     55 CA         18.2360  -24.6527   -7.9220 C.3       3 GLC5        0.0000 
     56 CA         16.4830  -24.8900   -7.2070 C.3       6 GLP5        0.0000 
     57 CA         21.1034  -23.8145   -7.0616 C.3       3 GLC5        0.0000 
     58 CA         19.6130  -23.9300   -8.9560 C.3       9 GLL5        0.0000 
     59 CA         21.9460  -23.0780   -5.3230 C.3       6 GLP5        0.0000 
     60 CA         19.9093  -19.9720  -14.3912 C.3       3 GLC5        0.0000 
     61 CA         14.9853  -21.1376  -13.9214 C.3       3 GLC5        0.0000 
     62 CA         16.8930  -19.5050  -14.3560 C.3       9 GLL5        0.0000 
     63 CA         18.4720  -17.8215   -9.6130 C.3       3 GLC5        0.0000 
     64 CA         19.3320  -19.2100   -8.8690 C.3       6 GLP5        0.0000 
@<TRIPOS>BOND
@<TRIPOS>SUBSTRUCTURE
     1 ALC1       19 GROUP        1 X    ALC  0     ROOT ALC X 1
     2 SEC2        4 GROUP        1 X    SEC  0     **** SEC X 2
     3 GLC5        1 GROUP        1 X    GLC  0     **** GLC X 6
     4 ALP1       21 GROUP        1 Y    ALP  0     ROOT ALP Y 8
     5 SEP2        6 GROUP        1 Y    SEP  0     **** SEP Y 9
     6 GLP5        3 GROUP        1 Y    GLP  0     **** GLP Y 13
     7 ALL1       20 GROUP        1 Z    ALL  0     ROOT ALL Z 15
     8 SEL2        5 GROUP        1 Z    SEL  0     **** SEL Z 16
     9 GLL5        2 GROUP        1 Z    GLL  0     **** GLL Z 20
@<TRIPOS>SET

