#    Name: 3wd9_QPC_2_ligand
#    Modification time : Tue Mar 25 02:31:45 2014

@<TRIPOS>MOLECULE
3wd9_QPC_2_ligand
   58    60     1     0     0
SMALL
NO_CHARGES


@<TRIPOS>ATOM
      1 C1         22.8000  -23.4800  -14.0250 C.ar      1 QPC901      0.0000 
      2 N1         22.5900  -23.8810  -12.7620 N.ar      1 QPC901      0.0000 
      3 C2         21.3740  -23.6110  -12.2800 C.ar      1 QPC901      0.0000 
      4 N2         20.4050  -22.9910  -12.9730 N.ar      1 QPC901      0.0000 
      5 C3         20.6280  -22.5910  -14.2320 C.ar      1 QPC901      0.0000 
      6 C4         21.8600  -22.8290  -14.8070 C.ar      1 QPC901      0.0000 
      7 C5         21.0350  -24.0390  -10.9060 C.ar      1 QPC901      0.0000 
      8 C6         21.7760  -25.0120  -10.2440 C.ar      1 QPC901      0.0000 
      9 C7         21.4520  -25.4430   -8.9710 C.ar      1 QPC901      0.0000 
     10 C8         20.3650  -24.9010   -8.3180 C.ar      1 QPC901      0.0000 
     11 C9         19.6130  -23.9300   -8.9560 C.ar      1 QPC901      0.0000 
     12 C10        19.9390  -23.5110  -10.2310 C.ar      1 QPC901      0.0000 
     13 N3         19.6010  -21.9370  -14.9610 N.pl3     1 QPC901      0.0000 
     14 C11        18.4890  -21.2910  -14.3570 C.ar      1 QPC901      0.0000 
     15 C12        17.9780  -20.1490  -14.9220 C.ar      1 QPC901      0.0000 
     16 C13        16.8930  -19.5050  -14.3560 C.ar      1 QPC901      0.0000 
     17 C14        16.2950  -19.9740  -13.2130 C.ar      1 QPC901      0.0000 
     18 C15        16.7930  -21.1170  -12.6450 C.ar      1 QPC901      0.0000 
     19 C16        17.8740  -21.7540  -13.2190 C.ar      1 QPC901      0.0000 
     20 C17        15.1430  -19.2710  -12.5980 C.3       1 QPC901      0.0000 
     21 C18        15.4840  -18.4090  -11.3930 C.2       1 QPC901      0.0000 
     22 N4         16.8000  -17.9700  -11.2460 N.am      1 QPC901      0.0000 
     23 O1         14.5900  -18.1170  -10.6130 O.2       1 QPC901      0.0000 
     24 C19        22.1880  -22.4230  -16.2060 C.2       1 QPC901      0.0000 
     25 O2         21.3070  -22.1700  -17.0080 O.2       1 QPC901      0.0000 
     26 N5         23.5240  -22.3940  -16.5240 N.am      1 QPC901      0.0000 
     27 C20        17.1770  -17.0400  -10.1740 C.3       1 QPC901      0.0000 
     28 C21        18.0470  -15.8260  -10.5400 C.3       1 QPC901      0.0000 
     29 C22        19.3640  -16.2800  -11.1390 C.3       1 QPC901      0.0000 
     30 C23        17.3180  -14.9210  -11.5100 C.3       1 QPC901      0.0000 
     31 C24        18.3960  -15.0060   -9.3090 C.3       1 QPC901      0.0000 
     32 H          23.7512  -23.6673  -14.4740 H         1 QPC901      0.0000 
     33 H          22.6032  -25.4283  -10.7270 H         1 QPC901      0.0000 
     34 H          22.0228  -26.1682   -8.5121 H         1 QPC901      0.0000 
     35 H          20.1157  -25.2113   -7.3737 H         1 QPC901      0.0000 
     36 H          18.7977  -23.5141   -8.4713 H         1 QPC901      0.0000 
     37 H          19.3578  -22.7884  -10.6984 H         1 QPC901      0.0000 
     38 H          19.6659  -21.9297  -16.0055 H         1 QPC901      0.0000 
     39 H          18.4075  -19.7612  -15.7833 H         1 QPC901      0.0000 
     40 H          16.5234  -18.6423  -14.8121 H         1 QPC901      0.0000 
     41 H          16.3636  -21.5042  -11.7897 H         1 QPC901      0.0000 
     42 H          18.2401  -22.6290  -12.7652 H         1 QPC901      0.0000 
     43 H          14.3728  -20.0124  -12.2888 H         1 QPC901      0.0000 
     44 H          14.6477  -18.6264  -13.3581 H         1 QPC901      0.0000 
     45 H          17.5394  -18.2837  -11.8810 H         1 QPC901      0.0000 
     46 H          24.1574  -22.6222  -15.7845 H         1 QPC901      0.0000 
     47 H          23.7466  -22.1473  -17.4672 H         1 QPC901      0.0000 
     48 H          17.7124  -17.5978   -9.3541 H         1 QPC901      0.0000 
     49 H          16.2514  -16.6451   -9.6669 H         1 QPC901      0.0000 
     50 H          19.9464  -15.5054  -11.3857 H         1 QPC901      0.0000 
     51 H          19.8856  -16.8477  -10.5021 H         1 QPC901      0.0000 
     52 H          19.2277  -16.8204  -11.9693 H         1 QPC901      0.0000 
     53 H          17.8680  -14.1239  -11.7592 H         1 QPC901      0.0000 
     54 H          17.0881  -15.3956  -12.3596 H         1 QPC901      0.0000 
     55 H          16.4614  -14.5774  -11.1252 H         1 QPC901      0.0000 
     56 H          18.9066  -15.5430   -8.6375 H         1 QPC901      0.0000 
     57 H          18.9592  -14.2123   -9.5389 H         1 QPC901      0.0000 
     58 H          17.5781  -14.6615   -8.8481 H         1 QPC901      0.0000 
@<TRIPOS>BOND
     1    2    1 ar   
     2    6    1 ar   
     3   32    1 1    
     4    3    2 ar   
     5    4    3 ar   
     6    7    3 1    
     7    5    4 ar   
     8    6    5 ar   
     9   13    5 1    
    10   24    6 1    
    11    8    7 ar   
    12   12    7 ar   
    13    9    8 ar   
    14   33    8 1    
    15   10    9 ar   
    16   34    9 1    
    17   11   10 ar   
    18   35   10 1    
    19   12   11 ar   
    20   36   11 1    
    21   37   12 1    
    22   14   13 1    
    23   38   13 1    
    24   15   14 ar   
    25   19   14 ar   
    26   16   15 ar   
    27   39   15 1    
    28   17   16 ar   
    29   40   16 1    
    30   18   17 ar   
    31   20   17 1    
    32   19   18 ar   
    33   41   18 1    
    34   42   19 1    
    35   21   20 1    
    36   43   20 1    
    37   44   20 1    
    38   22   21 am   
    39   23   21 2    
    40   27   22 1    
    41   45   22 1    
    42   25   24 2    
    43   26   24 am   
    44   46   26 1    
    45   47   26 1    
    46   28   27 1    
    47   48   27 1    
    48   49   27 1    
    49   29   28 1    
    50   30   28 1    
    51   31   28 1    
    52   50   29 1    
    53   51   29 1    
    54   52   29 1    
    55   53   30 1    
    56   54   30 1    
    57   55   30 1    
    58   56   31 1    
    59   57   31 1    
    60   58   31 1    
@<TRIPOS>SUBSTRUCTURE
     1 QPC901      1 GROUP   
@<TRIPOS>SET

