#    Name: 4dp3_MMV_2_INTS_M
#    Modification time : Tue Mar 25 09:59:40 2014

@<TRIPOS>MOLECULE
4dp3_MMV_2_INTS_M
   86     0    12     0     0
SMALL
NO_CHARGES


@<TRIPOS>ATOM
      1 CA         27.5915  -28.5190   11.0095 C.3       4 GLC5        0.0000 
      2 CA         27.9460  -28.2080    8.8760 C.3      12 GLL5        0.0000 
      3 CA         27.2370  -28.8300   13.1430 C.3       8 GLP5        0.0000 
      4 CA         26.2325  -27.4905    9.1520 C.3       4 GLC5        0.0000 
      5 CA         24.5190  -26.7730    9.4280 C.3       8 GLP5        0.0000 
      6 CA         27.7400  -26.1450   11.0855 C.3       4 GLC5        0.0000 
      7 CA         28.3440  -25.9610    9.0470 C.3      12 GLL5        0.0000 
      8 CA         27.1360  -26.3290   13.1240 C.3       8 GLP5        0.0000 
      9 CA         26.4315  -26.3670    9.2375 C.3       4 GLC5        0.0000 
     10 CA         27.4175  -25.0320    7.6770 C.3       4 GLC5        0.0000 
     11 CA         26.4910  -24.1030    6.3070 C.3       8 GLP5        0.0000 
     12 CA         30.1135  -25.8845    9.9445 C.3       4 GLC5        0.0000 
     13 CA         31.8830  -25.8080   10.8420 C.3       8 GLP5        0.0000 
     14 N          29.7185  -24.8770    7.5625 N.am      2 SEC2        0.0000 
     15 N          29.2460  -26.0130    8.0970 N.am     10 SEL2        0.0000 
     16 N          30.1910  -23.7410    7.0280 N.am      6 SEP2        0.0000 
     17 CA         28.0095  -25.6310    6.9065 C.3       4 GLC5        0.0000 
     18 CA         29.5280  -27.1590    7.5060 C.3      12 GLL5        0.0000 
     19 CA         30.7055  -26.4835    9.1740 C.3       4 GLC5        0.0000 
     20 O          26.2985  -29.0405   10.1815 O.2       1 ALC1        0.0000 
     21 O          27.2400  -29.2440    9.3370 O.2       9 ALL1        0.0000 
     22 O          25.3570  -28.8370   11.0260 O.2       5 ALP1        0.0000 
     23 O          28.6265  -23.5890    9.0295 O.2       1 ALC1        0.0000 
     24 O          28.0690  -24.7970    9.6370 O.2       9 ALL1        0.0000 
     25 O          29.1840  -22.3810    8.4220 O.2       5 ALP1        0.0000 
     26 CA         30.4960  -27.6030    3.3255 C.3       4 GLC5        0.0000 
     27 CA         30.0120  -27.1580    5.0030 C.3      12 GLL5        0.0000 
     28 CA         30.9800  -28.0480    1.6480 C.3       8 GLP5        0.0000 
     29 CA         28.8915  -25.8035    3.7150 C.3       4 GLC5        0.0000 
     30 CA         27.7710  -24.4490    2.4270 C.3       8 GLP5        0.0000 
     31 CA         30.6965  -30.2710    9.5085 C.3       4 GLC5        0.0000 
     32 CA         29.9840  -30.4700    7.9290 C.3      12 GLL5        0.0000 
     33 CA         31.4090  -30.0720   11.0880 C.3       8 GLP5        0.0000 
     34 CA         28.0735  -30.6570    7.0485 C.3       4 GLC5        0.0000 
     35 CA         26.1630  -30.8440    6.1680 C.3       8 GLP5        0.0000 
     36 CA         28.1815  -31.9345    6.4595 C.3       4 GLC5        0.0000 
     37 CA         30.0110  -31.6840    7.0130 C.3      12 GLL5        0.0000 
     38 CA         26.3520  -32.1850    5.9060 C.3       8 GLP5        0.0000 
     39 CA         32.0370  -33.3930    6.2445 C.3       4 GLC5        0.0000 
     40 CA         31.1870  -31.6860    6.0340 C.3      12 GLL5        0.0000 
     41 CA         32.8870  -35.1000    6.4550 C.3       8 GLP5        0.0000 
     42 CA         34.4645  -28.9320    6.9810 C.3       4 GLC5        0.0000 
     43 CA         35.0780  -30.5980    7.6440 C.3      12 GLL5        0.0000 
     44 CA         33.8510  -27.2660    6.3180 C.3       8 GLP5        0.0000 
     45 CA         33.8400  -30.0630    9.1375 C.3       4 GLC5        0.0000 
     46 CA         32.6020  -29.5280   10.6310 C.3       8 GLP5        0.0000 
     47 CA         35.9945  -28.5365    7.4815 C.3       4 GLC5        0.0000 
     48 CA         36.5370  -30.3460    8.1200 C.3      12 GLL5        0.0000 
     49 CA         35.4520  -26.7270    6.8430 C.3       8 GLP5        0.0000 
     50 CA         37.8250  -31.8215    7.2115 C.3       4 GLC5        0.0000 
     51 CA         39.1130  -33.2970    6.3030 C.3       8 GLP5        0.0000 
     52 NZ         35.5895  -30.6595   11.7365 N.4       3 LYC4        0.0000 
     53 NZ         35.9450  -30.5260   10.4640 N.4      11 LYL4        0.0000 
     54 NZ         36.3660  -31.3640   13.3970 N.4       7 LYP4        0.0000 
     55 N          35.5895  -30.6595   11.7365 N.am      2 SEC2        0.0000 
     56 N          35.9450  -30.5260   10.4640 N.am     10 SEL2        0.0000 
     57 N          35.2340  -30.7930   13.0090 N.am      6 SEP2        0.0000 
     58 N          36.7065  -30.8700   11.5685 N.am      2 SEC2        0.0000 
     59 N          37.4680  -31.2140   12.6730 N.am      6 SEP2        0.0000 
     60 NZ         38.6130  -28.6650    9.5150 N.4       3 LYC4        0.0000 
     61 NZ         38.0710  -30.1230    9.8730 N.4      11 LYL4        0.0000 
     62 NZ         39.1550  -27.2070    9.1570 N.4       7 LYP4        0.0000 
     63 N          37.7695  -30.6685   11.2730 N.am      2 SEC2        0.0000 
     64 N          38.0710  -30.1230    9.8730 N.am     10 SEL2        0.0000 
     65 CA         31.9428  -27.2005    6.1514 C.3       4 GLC5        0.0000 
     66 CA         30.5860  -27.0650    6.4270 C.3      12 GLL5        0.0000 
     67 CA         29.0882  -32.1855    9.0860 C.3       4 GLC5        0.0000 
     68 CA         28.1790  -33.2940   10.7010 C.3       8 GLP5        0.0000 
     69 CA         33.9928  -28.9865    6.0957 C.3       4 GLC5        0.0000 
     70 CA         33.4780  -30.8440    5.6140 C.3      12 GLL5        0.0000 
     71 CA         33.1653  -32.8700    4.9292 C.3       4 GLC5        0.0000 
     72 CA         32.9360  -34.9290    4.9510 C.3       8 GLP5        0.0000 
     73 CA         35.3670  -32.5295    5.3225 C.3       4 GLC5        0.0000 
     74 CA         34.7910  -30.5700    6.1330 C.3      12 GLL5        0.0000 
     75 CA         35.4190  -34.6460    4.9600 C.3       8 GLP5        0.0000 
     76 CA         34.7938  -28.7480    5.4330 C.3       4 GLC5        0.0000 
     77 CA         35.8390  -30.2560    5.2370 C.3      12 GLL5        0.0000 
     78 CA         35.8877  -31.6540    3.1435 C.3       4 GLC5        0.0000 
     79 CA         36.0390  -33.0780    1.7390 C.3       8 GLP5        0.0000 
     80 CA         32.4070  -29.3347    2.7092 C.3       4 GLC5        0.0000 
     81 CA         34.3570  -30.4650    3.3400 C.3      12 GLL5        0.0000 
     82 CA         33.8425  -28.9437    5.0442 C.3       4 GLC5        0.0000 
     83 CA         33.3110  -30.7780    4.2010 C.3      12 GLL5        0.0000 
     84 CA         34.9365  -31.8498    2.7547 C.3       4 GLC5        0.0000 
     85 CA         35.9387  -32.4120    8.7050 C.3       4 GLC5        0.0000 
     86 CA         36.0700  -34.3520    9.5280 C.3       8 GLP5        0.0000 
@<TRIPOS>BOND
@<TRIPOS>SUBSTRUCTURE
     1 ALC1       20 GROUP        1 X    ALC  0     ROOT ALC X 1
     2 SEC2       14 GROUP        1 X    SEC  0     **** SEC X 2
     3 LYC4       52 GROUP        1 X    LYC  0     **** LYC X 4
     4 GLC5        1 GROUP        1 X    GLC  0     **** GLC X 6
     5 ALP1       22 GROUP        1 Y    ALP  0     ROOT ALP Y 8
     6 SEP2       16 GROUP        1 Y    SEP  0     **** SEP Y 9
     7 LYP4       54 GROUP        1 Y    LYP  0     **** LYP Y 11
     8 GLP5        3 GROUP        1 Y    GLP  0     **** GLP Y 13
     9 ALL1       21 GROUP        1 Z    ALL  0     ROOT ALL Z 15
    10 SEL2       15 GROUP        1 Z    SEL  0     **** SEL Z 16
    11 LYL4       53 GROUP        1 Z    LYL  0     **** LYL Z 18
    12 GLL5        2 GROUP        1 Z    GLL  0     **** GLL Z 20
@<TRIPOS>SET

