#    Name: 4dp3_MMV_2_ligand
#    Modification time : Tue Mar 25 09:59:40 2014

@<TRIPOS>MOLECULE
4dp3_MMV_2_ligand
   49    50     1     0     0
SMALL
NO_CHARGES


@<TRIPOS>ATOM
      1 C1         27.9460  -28.2080    8.8760 C.ar      1 MMV701      0.0000 
      2 N2         27.7040  -27.0360    9.4300 N.ar      1 MMV701      0.0000 
      3 C3         28.3440  -25.9610    9.0470 C.ar      1 MMV701      0.0000 
      4 N4         29.2460  -26.0130    8.0970 N.ar      1 MMV701      0.0000 
      5 C5         29.5280  -27.1590    7.5060 C.ar      1 MMV701      0.0000 
      6 C6         28.8840  -28.3610    7.8650 C.ar      1 MMV701      0.0000 
      7 N7         27.2400  -29.2440    9.3370 N.pl3     1 MMV701      0.0000 
      8 N8         28.0690  -24.7970    9.6370 N.pl3     1 MMV701      0.0000 
      9 C9         30.5860  -27.0650    6.4270 C.3       1 MMV701      0.0000 
     10 C10        30.0120  -27.1580    5.0030 C.3       1 MMV701      0.0000 
     11 O11        29.2190  -29.5210    7.2210 O.3       1 MMV701      0.0000 
     12 C12        29.9840  -30.4700    7.9290 C.3       1 MMV701      0.0000 
     13 C13        30.0110  -31.6840    7.0130 C.3       1 MMV701      0.0000 
     14 C14        31.1870  -31.6860    6.0340 C.3       1 MMV701      0.0000 
     15 O15        32.4410  -31.1550    6.4950 O.3       1 MMV701      0.0000 
     16 C16        33.4780  -30.8440    5.6140 C.ar      1 MMV701      0.0000 
     17 C17        34.7910  -30.5700    6.1330 C.ar      1 MMV701      0.0000 
     18 C18        35.8390  -30.2560    5.2370 C.ar      1 MMV701      0.0000 
     19 C19        35.6340  -30.2040    3.8590 C.ar      1 MMV701      0.0000 
     20 C20        34.3570  -30.4650    3.3400 C.ar      1 MMV701      0.0000 
     21 C21        33.3110  -30.7780    4.2010 C.ar      1 MMV701      0.0000 
     22 C22        35.0780  -30.5980    7.6440 C.3       1 MMV701      0.0000 
     23 C23        36.5370  -30.3460    8.1200 C.3       1 MMV701      0.0000 
     24 C24        36.7750  -30.3520    9.6020 C.2       1 MMV701      0.0000 
     25 O25        35.9450  -30.5260   10.4640 O.co2     1 MMV701      0.0000 
     26 O26        38.0710  -30.1230    9.8730 O.co2     1 MMV701      0.0000 
     27 H          26.3173  -29.0377    9.6628 H         1 MMV701      0.0000 
     28 H          27.6975  -30.1330    9.3149 H         1 MMV701      0.0000 
     29 H          27.3583  -24.8172   10.3402 H         1 MMV701      0.0000 
     30 H          28.5982  -24.0087    9.3231 H         1 MMV701      0.0000 
     31 H          31.3200  -27.8729    6.5615 H         1 MMV701      0.0000 
     32 H          31.1260  -26.1119    6.5247 H         1 MMV701      0.0000 
     33 H          29.5261  -30.7625    8.8590 H         1 MMV701      0.0000 
     34 H          30.9996  -30.1490    8.0893 H         1 MMV701      0.0000 
     35 H          29.0719  -31.7250    6.4396 H         1 MMV701      0.0000 
     36 H          30.0576  -32.5979    7.6255 H         1 MMV701      0.0000 
     37 H          30.8434  -31.1399    5.1072 H         1 MMV701      0.0000 
     38 H          31.3155  -32.7498    5.6776 H         1 MMV701      0.0000 
     39 H          36.7803  -30.0609    5.6230 H         1 MMV701      0.0000 
     40 H          36.4058  -29.9778    3.2281 H         1 MMV701      0.0000 
     41 H          34.2011  -30.4237    2.3277 H         1 MMV701      0.0000 
     42 H          32.3660  -30.9735    3.8127 H         1 MMV701      0.0000 
     43 H          34.7496  -31.5861    8.0505 H         1 MMV701      0.0000 
     44 H          34.4183  -29.8479    8.1456 H         1 MMV701      0.0000 
     45 H          36.8655  -29.3700    7.6921 H         1 MMV701      0.0000 
     46 H          37.1854  -31.1119    7.6337 H         1 MMV701      0.0000 
     47 H          30.7285  -27.0912    4.3087 H         1 MMV701      0.0000 
     48 H          29.5357  -28.0240    4.8504 H         1 MMV701      0.0000 
     49 H          29.3559  -26.4262    4.8185 H         1 MMV701      0.0000 
@<TRIPOS>BOND
     1    2    1 ar   
     2    6    1 ar   
     3    7    1 1    
     4    3    2 ar   
     5    4    3 ar   
     6    8    3 1    
     7    5    4 ar   
     8    6    5 ar   
     9    9    5 1    
    10   11    6 1    
    11   27    7 1    
    12   28    7 1    
    13   29    8 1    
    14   30    8 1    
    15   10    9 1    
    16   31    9 1    
    17   32    9 1    
    18   47   10 1    
    19   48   10 1    
    20   49   10 1    
    21   12   11 1    
    22   13   12 1    
    23   33   12 1    
    24   34   12 1    
    25   14   13 1    
    26   35   13 1    
    27   36   13 1    
    28   15   14 1    
    29   37   14 1    
    30   38   14 1    
    31   16   15 1    
    32   17   16 ar   
    33   21   16 ar   
    34   18   17 ar   
    35   22   17 1    
    36   19   18 ar   
    37   39   18 1    
    38   20   19 ar   
    39   40   19 1    
    40   21   20 ar   
    41   41   20 1    
    42   42   21 1    
    43   23   22 1    
    44   43   22 1    
    45   44   22 1    
    46   24   23 1    
    47   45   23 1    
    48   46   23 1    
    49   25   24 ar   
    50   26   24 ar   
@<TRIPOS>SUBSTRUCTURE
     1 MMV701      1 GROUP   
@<TRIPOS>SET

