#    Name: 2brb_PFQ_1_INTS_M
#    Modification time : Mon Mar 24 21:31:51 2014

@<TRIPOS>MOLECULE
2brb_PFQ_1_INTS_M
   60     0     6     0     0
SMALL
NO_CHARGES


@<TRIPOS>ATOM
      1 CA         13.8635   -0.3660    8.0355 C.3       2 GLC5        0.0000 
      2 CA         14.3110    0.2600    9.6510 C.3       6 GLL5        0.0000 
      3 CA         13.4160   -0.9920    6.4200 C.3       4 GLP5        0.0000 
      4 CA         14.7685    1.6135    7.9685 C.3       2 GLC5        0.0000 
      5 CA         15.2260    2.9670    6.2860 C.3       4 GLP5        0.0000 
      6 CA         15.2130    0.4350   11.2555 C.3       2 GLC5        0.0000 
      7 CA         16.1150    0.6100   12.8600 C.3       4 GLP5        0.0000 
      8 N          16.2510    1.7445    8.5330 N.am      1 SEC2        0.0000 
      9 N          15.5150    0.4240    9.1270 N.am      5 SEL2        0.0000 
     10 N          16.9870    3.0650    7.9390 N.am      3 SEP2        0.0000 
     11 CA         16.7905   -1.7695    7.5030 C.3       2 GLC5        0.0000 
     12 CA         16.4650   -0.5070    9.2980 C.3       6 GLL5        0.0000 
     13 CA         17.1160   -3.0320    5.7080 C.3       4 GLP5        0.0000 
     14 CA         14.9405   -0.7495    7.8590 C.3       2 GLC5        0.0000 
     15 CA         17.0975    1.4950    9.7675 C.3       2 GLC5        0.0000 
     16 CA         17.7300    3.4970   10.2370 C.3       4 GLP5        0.0000 
     17 CA         14.1670   -1.3955    8.4945 C.3       2 GLC5        0.0000 
     18 CA         14.9180   -1.7990   10.5690 C.3       6 GLL5        0.0000 
     19 CA         18.1040   -2.0130   13.0160 C.3       2 GLC5        0.0000 
     20 CA         18.1030   -3.7740   11.9320 C.3       6 GLL5        0.0000 
     21 CA         18.1050   -0.2520   14.1000 C.3       4 GLP5        0.0000 
     22 CA         16.7470   -0.9065   11.4470 C.3       2 GLC5        0.0000 
     23 CA         17.3790   -2.4230   10.0340 C.3       6 GLL5        0.0000 
     24 CA         13.0865   -0.9340   14.2095 C.3       2 GLC5        0.0000 
     25 CA         12.6900   -2.5010   12.8800 C.3       6 GLL5        0.0000 
     26 CA         13.4830    0.6330   15.5390 C.3       4 GLP5        0.0000 
     27 CA         13.2270   -4.8360   10.6985 C.3       2 GLC5        0.0000 
     28 CA         13.1250   -3.1390   11.5520 C.3       6 GLL5        0.0000 
     29 CA         13.3290   -6.5330    9.8450 C.3       4 GLP5        0.0000 
     30 CA         21.1795   -0.5265   10.0230 C.3       2 GLC5        0.0000 
     31 CA         19.6470   -1.9520    8.9490 C.3       6 GLL5        0.0000 
     32 CA         22.3900    0.3930   11.4510 C.3       4 GLP5        0.0000 
     33 CA         19.6852   -3.5027    7.5503 C.3       2 GLC5        0.0000 
     34 CA         20.3240   -3.1340    9.2430 C.3       6 GLL5        0.0000 
     35 CA         18.3820   -3.8040    6.0610 C.3       4 GLP5        0.0000 
     36 CA         22.1710   -0.6280    9.7218 C.3       2 GLC5        0.0000 
     37 CA         22.2900   -2.2420    8.1380 C.3       6 GLL5        0.0000 
     38 CA         21.1382    1.0620    7.4530 C.3       2 GLC5        0.0000 
     39 CA         21.6140   -1.0560    7.8470 C.3       6 GLL5        0.0000 
     40 CA         21.3240    3.1220    6.8620 C.3       4 GLP5        0.0000 
     41 CA         19.0099   -2.5935    7.3710 C.3       2 GLC5        0.0000 
     42 CA         20.2910   -0.9400    8.2410 C.3       6 GLL5        0.0000 
     43 CA         17.5085   -5.2858    8.5598 C.3       2 GLC5        0.0000 
     44 CA         16.9690   -4.8120   10.0740 C.3       6 GLL5        0.0000 
     45 CA         18.0150   -5.1320    6.7400 C.3       4 GLP5        0.0000 
     46 CA         15.5040   -5.8407    9.4447 C.3       2 GLC5        0.0000 
     47 CA         14.0060   -6.2420    8.5100 C.3       4 GLP5        0.0000 
     48 CA         17.9210   -7.5633   10.2888 C.3       2 GLC5        0.0000 
     49 CA         17.0350   -6.0670   10.6850 C.3       6 GLL5        0.0000 
     50 CA         18.5020   -9.0040    9.2670 C.3       4 GLP5        0.0000 
     51 CA         19.5508   -3.4813   13.5932 C.3       2 GLC5        0.0000 
     52 CA         18.1740   -5.0270   12.5490 C.3       6 GLL5        0.0000 
     53 CA         20.9630   -2.5620   14.9460 C.3       4 GLP5        0.0000 
     54 CA         14.6367   -3.2710    9.1848 C.3       2 GLC5        0.0000 
     55 CA         16.2030   -1.6630   10.0320 C.3       6 GLL5        0.0000 
     56 CA         13.7130   -4.8110    8.0690 C.3       4 GLP5        0.0000 
     57 CA         15.8705   -0.4160   11.4885 C.3       2 GLC5        0.0000 
     58 CA         17.7273   -4.0883    8.5478 C.3       2 GLC5        0.0000 
     59 CA         11.0772   -2.0355   11.2875 C.3       2 GLC5        0.0000 
     60 CA          9.2470   -1.2510   10.3590 C.3       4 GLP5        0.0000 
@<TRIPOS>BOND
@<TRIPOS>SUBSTRUCTURE
     1 SEC2        8 GROUP        1 X    SEC  0     ROOT SEC X 2
     2 GLC5        1 GROUP        1 X    GLC  0     **** GLC X 6
     3 SEP2       10 GROUP        1 Y    SEP  0     ROOT SEP Y 9
     4 GLP5        3 GROUP        1 Y    GLP  0     **** GLP Y 13
     5 SEL2        9 GROUP        1 Z    SEL  0     ROOT SEL Z 16
     6 GLL5        2 GROUP        1 Z    GLL  0     **** GLL Z 20
@<TRIPOS>SET

