#    Name: 2brb_PFQ_1_ligand
#    Modification time : Mon Mar 24 21:31:51 2014

@<TRIPOS>MOLECULE
2brb_PFQ_1_ligand
   42    45     1     0     0
SMALL
NO_CHARGES


@<TRIPOS>ATOM
      1 C2         14.3110    0.2600    9.6510 C.ar      1 PFQ1277     0.0000 
      2 C10        18.3220   -1.7000    9.2930 C.2       1 PFQ1277     0.0000 
      3 C11        19.6470   -1.9520    8.9490 C.ar      1 PFQ1277     0.0000 
      4 C12        20.3240   -3.1340    9.2430 C.ar      1 PFQ1277     0.0000 
      5 C13        21.6530   -3.2690    8.8360 C.ar      1 PFQ1277     0.0000 
      6 C14        22.2900   -2.2420    8.1380 C.ar      1 PFQ1277     0.0000 
      7 C15        21.6140   -1.0560    7.8470 C.ar      1 PFQ1277     0.0000 
      8 C16        20.2910   -0.9400    8.2410 C.ar      1 PFQ1277     0.0000 
      9 C19        16.9690   -4.8120   10.0740 C.ar      1 PFQ1277     0.0000 
     10 C20        17.0350   -6.0670   10.6850 C.ar      1 PFQ1277     0.0000 
     11 C21        17.6450   -6.1780   11.9360 C.ar      1 PFQ1277     0.0000 
     12 C22        18.1740   -5.0270   12.5490 C.ar      1 PFQ1277     0.0000 
     13 N1         15.5150    0.4240    9.1270 N.ar      1 PFQ1277     0.0000 
     14 C6         16.4650   -0.5070    9.2980 C.ar      1 PFQ1277     0.0000 
     15 O6         17.7520   -0.5450    8.8630 O.3       1 PFQ1277     0.0000 
     16 C5         16.2030   -1.6630   10.0320 C.ar      1 PFQ1277     0.0000 
     17 N9         14.5520   -2.8610   11.2950 N.pl3     1 PFQ1277     0.0000 
     18 C4         14.9180   -1.7990   10.5690 C.ar      1 PFQ1277     0.0000 
     19 N3         14.0200   -0.8210   10.3510 N.ar      1 PFQ1277     0.0000 
     20 C17        18.1030   -3.7740   11.9320 C.ar      1 PFQ1277     0.0000 
     21 C1         17.3790   -2.4230   10.0340 C.2       1 PFQ1277     0.0000 
     22 C18        17.5000   -3.6660   10.6770 C.ar      1 PFQ1277     0.0000 
     23 C23        12.6900   -2.5010   12.8800 C.3       1 PFQ1277     0.0000 
     24 C8         13.1250   -3.1390   11.5520 C.3       1 PFQ1277     0.0000 
     25 O24        12.1850   -1.1800   12.6450 O.3       1 PFQ1277     0.0000 
     26 H          13.5747    1.0037    9.5068 H         1 PFQ1277     0.0000 
     27 H          19.8585   -3.8877    9.7463 H         1 PFQ1277     0.0000 
     28 H          22.1678   -4.1351    9.0532 H         1 PFQ1277     0.0000 
     29 H          23.2678   -2.3602    7.8348 H         1 PFQ1277     0.0000 
     30 H          22.0849   -0.2993    7.3581 H         1 PFQ1277     0.0000 
     31 H          19.7619   -0.0759    8.0035 H         1 PFQ1277     0.0000 
     32 H          16.5123   -4.7260    9.1443 H         1 PFQ1277     0.0000 
     33 H          16.6442   -6.8874   10.2246 H         1 PFQ1277     0.0000 
     34 H          17.7090   -7.0813   12.4047 H         1 PFQ1277     0.0000 
     35 H          18.6244   -5.1136   13.4761 H         1 PFQ1277     0.0000 
     36 H          15.2228   -3.5252   11.7037 H         1 PFQ1277     0.0000 
     37 H          18.4873   -2.9494   12.3938 H         1 PFQ1277     0.0000 
     38 H          13.5611   -2.4905   13.5440 H         1 PFQ1277     0.0000 
     39 H          11.9314   -3.1519   13.3279 H         1 PFQ1277     0.0000 
     40 H          12.9466   -4.2139   11.6138 H         1 PFQ1277     0.0000 
     41 H          12.5026   -2.7289   10.7549 H         1 PFQ1277     0.0000 
     42 H          12.7045   -0.8401   11.8611 H         1 PFQ1277     0.0000 
@<TRIPOS>BOND
     1   13    1 ar   
     2   19    1 ar   
     3   26    1 1    
     4    3    2 1    
     5   15    2 1    
     6   21    2 2    
     7    4    3 ar   
     8    8    3 ar   
     9    5    4 ar   
    10   27    4 1    
    11    6    5 ar   
    12   28    5 1    
    13    7    6 ar   
    14   29    6 1    
    15    8    7 ar   
    16   30    7 1    
    17   31    8 1    
    18   10    9 ar   
    19   22    9 ar   
    20   32    9 1    
    21   11   10 ar   
    22   33   10 1    
    23   12   11 ar   
    24   34   11 1    
    25   20   12 ar   
    26   35   12 1    
    27   14   13 ar   
    28   15   14 1    
    29   16   14 ar   
    30   18   16 ar   
    31   21   16 1    
    32   18   17 1    
    33   24   17 1    
    34   36   17 1    
    35   19   18 ar   
    36   22   20 ar   
    37   37   20 1    
    38   22   21 1    
    39   24   23 1    
    40   25   23 1    
    41   38   23 1    
    42   39   23 1    
    43   40   24 1    
    44   41   24 1    
    45   42   25 1    
@<TRIPOS>SUBSTRUCTURE
     1 PFQ1277     1 GROUP   
@<TRIPOS>SET

