#    Name: 1e3l_NAD_2_INTS_M
#    Modification time : Mon Mar 24 22:49:26 2014

@<TRIPOS>MOLECULE
1e3l_NAD_2_INTS_M
   70     0     9     0     0
SMALL
NO_CHARGES


@<TRIPOS>ATOM
      1 CA         61.6350   28.0865   49.9050 C.3       3 GLC5        0.0000 
      2 CA         61.4560   27.1100   51.5020 C.3       9 GLL5        0.0000 
      3 CA         61.8140   29.0630   48.3080 C.3       6 GLP5        0.0000 
      4 CA         60.6325   28.9365   52.5020 C.3       3 GLC5        0.0000 
      5 CA         59.8090   30.7630   53.5020 C.3       6 GLP5        0.0000 
      6 O          58.7385   27.1775   50.3855 O.2       1 ALC1        0.0000 
      7 O          58.9840   27.0430   51.6870 O.2       7 ALL1        0.0000 
      8 O          58.4930   27.3120   49.0840 O.2       4 ALP1        0.0000 
      9 O          58.4005   24.8865   49.6200 O.2       1 ALC1        0.0000 
     10 O          59.0620   24.4520   50.6680 O.2       7 ALL1        0.0000 
     11 O          57.7390   25.3210   48.5720 O.2       4 ALP1        0.0000 
     12 O          58.7775   25.8820   49.8760 O.2       1 ALC1        0.0000 
     13 CA         61.4290   27.3225   49.0450 C.3       3 GLC5        0.0000 
     14 CA         61.0440   25.5820   49.7820 C.3       9 GLL5        0.0000 
     15 CA         61.0915   22.0810   47.8180 C.3       3 GLC5        0.0000 
     16 CA         62.4340   23.3660   47.2800 C.3       9 GLL5        0.0000 
     17 CA         59.7490   20.7960   48.3560 C.3       6 GLP5        0.0000 
     18 CA         60.9490   22.3735   45.6525 C.3       3 GLC5        0.0000 
     19 CA         62.5420   23.1200   45.8830 C.3       9 GLL5        0.0000 
     20 CA         59.3560   21.6270   45.4220 C.3       6 GLP5        0.0000 
     21 CA         59.6615   25.7525   45.6610 C.3       3 GLC5        0.0000 
     22 CA         61.2470   25.0960   45.5390 C.3       9 GLL5        0.0000 
     23 CA         58.0760   26.4090   45.7830 C.3       6 GLP5        0.0000 
     24 CA         60.3015   23.3615   45.4805 C.3       3 GLC5        0.0000 
     25 CA         63.3535   24.9025   45.2715 C.3       3 GLC5        0.0000 
     26 CA         65.4600   24.7090   45.0040 C.3       6 GLP5        0.0000 
     27 CA         60.2630   23.1890   47.7670 C.3       3 GLC5        0.0000 
     28 CA         61.7060   24.4980   47.6500 C.3       9 GLL5        0.0000 
     29 CA         58.8200   21.8800   47.8840 C.3       6 GLP5        0.0000 
     30 N          62.9245   31.6755   58.0245 N.am      2 SEC2        0.0000 
     31 N          63.5790   30.9030   56.7890 N.am      8 SEL2        0.0000 
     32 N          62.2700   32.4480   59.2600 N.am      5 SEP2        0.0000 
     33 N          62.6980   32.5565   54.4315 N.am      2 SEC2        0.0000 
     34 N          62.7500   30.9460   54.5240 N.am      8 SEL2        0.0000 
     35 N          62.6460   34.1670   54.3390 N.am      5 SEP2        0.0000 
     36 CA         65.6025   31.8680   54.2430 C.3       3 GLC5        0.0000 
     37 CA         65.7430   30.0120   53.7130 C.3       9 GLL5        0.0000 
     38 CA         65.4620   33.7240   54.7730 C.3       6 GLP5        0.0000 
     39 CA         68.5525   29.8605   52.3395 C.3       3 GLC5        0.0000 
     40 CA         67.2080   29.6970   53.6590 C.3       9 GLL5        0.0000 
     41 CA         69.8970   30.0240   51.0200 C.3       6 GLP5        0.0000 
     42 CA         67.3950   27.4755   56.1700 C.3       3 GLC5        0.0000 
     43 CA         67.7290   28.7630   54.7720 C.3       9 GLL5        0.0000 
     44 CA         67.0610   26.1880   57.5680 C.3       6 GLP5        0.0000 
     45 CA         67.4955   28.5610   56.9370 C.3       3 GLC5        0.0000 
     46 CA         68.5370   29.7140   55.6810 C.3       9 GLL5        0.0000 
     47 CA         66.4540   27.4080   58.1930 C.3       6 GLP5        0.0000 
     48 N          70.1945   29.4060   57.9140 N.am      2 SEC2        0.0000 
     49 N          69.5180   29.0530   56.4600 N.am      8 SEL2        0.0000 
     50 N          70.8710   29.7590   59.3680 N.am      5 SEP2        0.0000 
     51 CA         69.4955   30.3825   52.8640 C.3       3 GLC5        0.0000 
     52 CA         69.0940   30.7410   54.7080 C.3       9 GLL5        0.0000 
     53 N          73.1195   37.0350   55.1765 N.am      2 SEC2        0.0000 
     54 N          72.7310   35.7140   55.1450 N.am      8 SEL2        0.0000 
     55 N          73.5080   38.3560   55.2080 N.am      5 SEP2        0.0000 
     56 O          71.9085   33.3800   52.5435 O.2       1 ALC1        0.0000 
     57 O          72.7010   34.3550   53.3230 O.2       7 ALL1        0.0000 
     58 O          71.1160   32.4050   51.7640 O.2       4 ALP1        0.0000 
     59 O          73.7315   35.0935   52.4860 O.2       1 ALC1        0.0000 
     60 O          74.7620   35.8320   51.6490 O.2       4 ALP1        0.0000 
     61 CA         63.6585   25.2870   47.7650 C.3       3 GLC5        0.0000 
     62 CA         65.2470   26.6420   48.0650 C.3       6 GLP5        0.0000 
     63 CA         63.9740   23.9760   45.7927 C.3       3 GLC5        0.0000 
     64 CA         69.0385   34.8518   58.1635 C.3       3 GLC5        0.0000 
     65 CA         70.2200   34.7140   56.0860 C.3       9 GLL5        0.0000 
     66 CA         68.4280   35.3280   59.9850 C.3       6 GLP5        0.0000 
     67 CA         69.2290   35.8439   55.5806 C.3       3 GLC5        0.0000 
     68 CA         69.0780   34.0370   56.5980 C.3       9 GLL5        0.0000 
     69 CA         68.6260   37.4970   55.0700 C.3       6 GLP5        0.0000 
     70 CA         67.1578   33.5650   55.5943 C.3       3 GLC5        0.0000 
@<TRIPOS>BOND
@<TRIPOS>SUBSTRUCTURE
     1 ALC1        6 GROUP        1 X    ALC  0     ROOT ALC X 1
     2 SEC2       30 GROUP        1 X    SEC  0     **** SEC X 2
     3 GLC5        1 GROUP        1 X    GLC  0     **** GLC X 6
     4 ALP1        8 GROUP        1 Y    ALP  0     ROOT ALP Y 8
     5 SEP2       32 GROUP        1 Y    SEP  0     **** SEP Y 9
     6 GLP5        3 GROUP        1 Y    GLP  0     **** GLP Y 13
     7 ALL1        7 GROUP        1 Z    ALL  0     ROOT ALL Z 15
     8 SEL2       31 GROUP        1 Z    SEL  0     **** SEL Z 16
     9 GLL5        2 GROUP        1 Z    GLL  0     **** GLL Z 20
@<TRIPOS>SET

