#    Name: 1e3l_NAD_2_ligand
#    Modification time : Mon Mar 24 22:49:26 2014

@<TRIPOS>MOLECULE
1e3l_NAD_2_ligand
   70    74     1     0     0
SMALL
NO_CHARGES


@<TRIPOS>ATOM
      1 PA         62.4160   27.6840   55.1250 P.3       1 NAD378      0.0000 
      2 O1A        62.7890   26.3090   55.3950 O.co2     1 NAD378      0.0000 
      3 O2A        61.1300   28.0830   55.7500 O.co2     1 NAD378      0.0000 
      4 O5B        62.3220   27.9600   53.5580 O.3       1 NAD378      0.0000 
      5 C5B        62.5760   27.0310   52.4810 C.3       1 NAD378      0.0000 
      6 C4B        61.4560   27.1100   51.5020 C.3       1 NAD378      0.0000 
      7 O4B        61.9230   26.5700   50.2290 O.3       1 NAD378      0.0000 
      8 C3B        60.1870   26.3200   51.8640 C.3       1 NAD378      0.0000 
      9 O3B        58.9840   27.0430   51.6870 O.3       1 NAD378      0.0000 
     10 C2B        60.2910   25.0740   51.0080 C.3       1 NAD378      0.0000 
     11 O2B        59.0620   24.4520   50.6680 O.3       1 NAD378      0.0000 
     12 C1B        61.0440   25.5820   49.7820 C.3       1 NAD378      0.0000 
     13 N9A        61.7230   24.5330   49.0390 N.pl3     1 NAD378      0.0000 
     14 C8A        62.4540   23.4430   49.4360 C.2       1 NAD378      0.0000 
     15 N7A        62.9070   22.7020   48.3890 N.2       1 NAD378      0.0000 
     16 C5A        62.4340   23.3660   47.2800 C.ar      1 NAD378      0.0000 
     17 C6A        62.5420   23.1200   45.8830 C.ar      1 NAD378      0.0000 
     18 N6A        63.1890   22.0900   45.3490 N.pl3     1 NAD378      0.0000 
     19 N1A        61.9370   24.0080   45.0290 N.ar      1 NAD378      0.0000 
     20 C2A        61.2470   25.0960   45.5390 C.ar      1 NAD378      0.0000 
     21 N3A        61.0910   25.3980   46.8030 N.ar      1 NAD378      0.0000 
     22 C4A        61.7060   24.4980   47.6500 C.ar      1 NAD378      0.0000 
     23 O3         63.5740   28.7370   55.4580 O.3       1 NAD378      0.0000 
     24 PN         63.7270   30.3270   55.4330 P.3       1 NAD378      0.0000 
     25 O1N        63.5790   30.9030   56.7890 O.co2     1 NAD378      0.0000 
     26 O2N        62.7500   30.9460   54.5240 O.co2     1 NAD378      0.0000 
     27 O5D        65.2800   30.4670   54.9720 O.3       1 NAD378      0.0000 
     28 C5D        65.7430   30.0120   53.7130 C.3       1 NAD378      0.0000 
     29 C4D        67.2080   29.6970   53.6590 C.3       1 NAD378      0.0000 
     30 O4D        68.0790   30.8750   53.7010 O.3       1 NAD378      0.0000 
     31 C3D        67.7290   28.7630   54.7720 C.3       1 NAD378      0.0000 
     32 O3D        68.4520   27.6900   54.1720 O.3       1 NAD378      0.0000 
     33 C2D        68.5370   29.7140   55.6810 C.3       1 NAD378      0.0000 
     34 O2D        69.5180   29.0530   56.4600 O.3       1 NAD378      0.0000 
     35 C1D        69.0940   30.7410   54.7080 C.3       1 NAD378      0.0000 
     36 N1N        69.4290   32.1040   55.2210 N.pl3     1 NAD378      0.0000 
     37 C2N        70.5520   32.7040   54.6750 C.ar      1 NAD378      0.0000 
     38 C3N        70.9520   33.9750   55.0830 C.ar      1 NAD378      0.0000 
     39 C7N        72.2180   34.7680   54.5280 C.2       1 NAD378      0.0000 
     40 O7N        72.7310   35.7140   55.1450 O.2       1 NAD378      0.0000 
     41 N7N        72.7010   34.3550   53.3230 N.am      1 NAD378      0.0000 
     42 C4N        70.2200   34.7140   56.0860 C.ar      1 NAD378      0.0000 
     43 C5N        69.0780   34.0370   56.5980 C.ar      1 NAD378      0.0000 
     44 C6N        68.6290   32.7750   56.2330 C.ar      1 NAD378      0.0000 
     45 H          62.6483   26.0065   52.8589 H         1 NAD378      0.0000 
     46 H          63.5137   27.2725   51.9710 H         1 NAD378      0.0000 
     47 H          61.1706   28.1468   51.3472 H         1 NAD378      0.0000 
     48 H          60.3299   25.9914   52.9029 H         1 NAD378      0.0000 
     49 H          60.9813   24.3972   51.5184 H         1 NAD378      0.0000 
     50 H          60.2744   26.0483   49.1317 H         1 NAD378      0.0000 
     51 H          62.6298   23.2240   50.3833 H         1 NAD378      0.0000 
     52 H          63.1842   22.0372   44.3504 H         1 NAD378      0.0000 
     53 H          63.6224   21.4605   45.9938 H         1 NAD378      0.0000 
     54 H          60.8006   25.7473   44.7896 H         1 NAD378      0.0000 
     55 H          65.5275   30.7657   52.9107 H         1 NAD378      0.0000 
     56 H          65.1857   29.0940   53.3891 H         1 NAD378      0.0000 
     57 H          67.4260   29.1630   52.7034 H         1 NAD378      0.0000 
     58 H          66.8603   28.4422   55.3197 H         1 NAD378      0.0000 
     59 H          67.7941   30.2374   56.2926 H         1 NAD378      0.0000 
     60 H          69.9785   30.3019   54.2301 H         1 NAD378      0.0000 
     61 H          71.1028   32.2053   53.9553 H         1 NAD378      0.0000 
     62 H          72.2216   33.5882   52.8962 H         1 NAD378      0.0000 
     63 H          73.4925   34.8550   52.9714 H         1 NAD378      0.0000 
     64 H          70.4945   35.6011   56.3797 H         1 NAD378      0.0000 
     65 H          68.5156   34.5663   57.3407 H         1 NAD378      0.0000 
     66 H          67.8325   32.3387   56.6118 H         1 NAD378      0.0000 
     67 H          58.8856   27.1431   50.6969 H         1 NAD378      0.0000 
     68 H          58.7500   24.9279   49.8457 H         1 NAD378      0.0000 
     69 H          68.4508   27.8929   53.1928 H         1 NAD378      0.0000 
     70 H          69.7379   28.2222   55.9486 H         1 NAD378      0.0000 
@<TRIPOS>BOND
     1    2    1 ar   
     2    3    1 ar   
     3    4    1 1    
     4   23    1 1    
     5    5    4 1    
     6    6    5 1    
     7   45    5 1    
     8   46    5 1    
     9    7    6 1    
    10    8    6 1    
    11   47    6 1    
    12   12    7 1    
    13    9    8 1    
    14   10    8 1    
    15   48    8 1    
    16   67    9 1    
    17   11   10 1    
    18   12   10 1    
    19   49   10 1    
    20   68   11 1    
    21   13   12 1    
    22   50   12 1    
    23   14   13 1    
    24   22   13 1    
    25   15   14 2    
    26   51   14 1    
    27   16   15 1    
    28   17   16 ar   
    29   22   16 ar   
    30   18   17 1    
    31   19   17 ar   
    32   52   18 1    
    33   53   18 1    
    34   20   19 ar   
    35   21   20 ar   
    36   54   20 1    
    37   22   21 ar   
    38   24   23 1    
    39   25   24 ar   
    40   26   24 ar   
    41   27   24 1    
    42   28   27 1    
    43   29   28 1    
    44   55   28 1    
    45   56   28 1    
    46   30   29 1    
    47   31   29 1    
    48   57   29 1    
    49   35   30 1    
    50   32   31 1    
    51   33   31 1    
    52   58   31 1    
    53   69   32 1    
    54   34   33 1    
    55   35   33 1    
    56   59   33 1    
    57   70   34 1    
    58   36   35 1    
    59   60   35 1    
    60   37   36 ar   
    61   44   36 ar   
    62   38   37 ar   
    63   61   37 1    
    64   39   38 1    
    65   42   38 ar   
    66   40   39 2    
    67   41   39 am   
    68   62   41 1    
    69   63   41 1    
    70   43   42 ar   
    71   64   42 1    
    72   44   43 ar   
    73   65   43 1    
    74   66   44 1    
@<TRIPOS>SUBSTRUCTURE
     1 NAD378      1 GROUP   
@<TRIPOS>SET

