#    Name: 1RFG_1_CAVITY_N1_6.mol2
#    Modification time : Tue Mar 11 05:51:36 2014

@<TRIPOS>MOLECULE
1RFG_1_CAVITY_N1_6.mol2
   92     0     6     0     0
SMALL
NO_CHARGES


@<TRIPOS>ATOM
      1 N          54.6295  132.3389   60.3750 N.2       2 ALA2        0.0000 
      2 CZ         53.8507  132.1866   59.1021 C.ar      4 PHE5        0.0000 
      3 CA         52.6469  132.7856   59.7670 C.3       5 GLY6        0.0000 
      4 CZ         55.1257  129.9326   53.2889 C.ar      4 PHE5        0.0000 
      5 N          54.1887  130.9722   60.8083 N.2       2 ALA2        0.0000 
      6 DU         52.9849  131.5712   61.4731 H         6 CUB7        0.0000 
      7 CZ         54.6137  130.2208   58.8705 C.ar      4 PHE5        0.0000 
      8 CZ         53.4099  130.8199   59.5354 C.ar      4 PHE5        0.0000 
      9 CZ         52.6311  130.6676   58.2625 C.ar      4 PHE5        0.0000 
     10 NZ         55.8886  127.9668   53.0573 N.2       3 LYS4        0.0000 
     11 CZ         54.6848  128.5659   53.7221 C.ar      4 PHE5        0.0000 
     12 CZ         53.4811  129.1649   54.3870 C.ar      4 PHE5        0.0000 
     13 CZ         51.0735  130.3630   55.7167 C.ar      4 PHE5        0.0000 
     14 O          53.9060  128.4136   52.4492 O.2       2 ALA2        0.0000 
     15 N          52.7023  129.0126   53.1141 N.2       2 ALA2        0.0000 
     16 N          51.4985  129.6117   53.7789 N.2       2 ALA2        0.0000 
     17 N          50.2947  130.2107   54.4438 N.2       2 ALA2        0.0000 
     18 CA         49.0909  130.8098   55.1086 C.3       5 GLY6        0.0000 
     19 OG         53.7478  129.6054   61.2415 O.2       1 SER1        0.0000 
     20 OG         52.5440  130.2045   61.9064 O.2       1 SER1        0.0000 
     21 CA         54.1728  128.8541   59.3038 C.3       5 GLY6        0.0000 
     22 OG         52.9690  129.4531   59.9686 O.2       1 SER1        0.0000 
     23 O          51.7652  130.0522   60.6335 O.2       2 ALA2        0.0000 
     24 O          50.5614  130.6512   61.2983 O.2       2 ALA2        0.0000 
     25 CZ         53.3940  128.7018   58.0309 C.ar      4 PHE5        0.0000 
     26 O          52.1902  129.3009   58.6957 O.2       2 ALA2        0.0000 
     27 CA         55.0228  127.3514   55.4283 C.3       5 GLY6        0.0000 
     28 CA         53.8190  127.9505   56.0931 C.3       5 GLY6        0.0000 
     29 CZ         52.6152  128.5495   56.7580 C.ar      4 PHE5        0.0000 
     30 O          51.4114  129.1486   57.4228 O.2       2 ALA2        0.0000 
     31 N          54.2440  127.1992   54.1553 N.2       2 ALA2        0.0000 
     32 CZ         53.0402  127.7982   54.8202 C.ar      4 PHE5        0.0000 
     33 CZ         51.8364  128.3972   55.4851 C.ar      4 PHE5        0.0000 
     34 CZ         50.6326  128.9963   56.1499 C.ar      4 PHE5        0.0000 
     35 O          49.4288  129.5953   56.8148 O.2       2 ALA2        0.0000 
     36 N          53.4652  127.0469   52.8824 N.2       2 ALA2        0.0000 
     37 CA         52.2614  127.6459   53.5473 C.3       5 GLY6        0.0000 
     38 OG         51.0576  128.2450   54.2121 O.2       1 SER1        0.0000 
     39 OG         49.8538  128.8440   54.8770 O.2       1 SER1        0.0000 
     40 OG         48.6500  129.4431   55.5418 O.2       1 SER1        0.0000 
     41 OG         50.8994  129.4368   63.0044 O.2       1 SER1        0.0000 
     42 OG         51.3244  128.6855   61.0667 O.2       1 SER1        0.0000 
     43 O          50.1206  129.2845   61.7315 O.2       2 ALA2        0.0000 
     44 OG         52.9532  127.3351   58.4641 O.2       1 SER1        0.0000 
     45 OG         51.7494  127.9341   59.1289 O.2       1 SER1        0.0000 
     46 O          50.5456  128.5332   59.7938 O.2       2 ALA2        0.0000 
     47 O          49.3418  129.1322   60.4586 O.2       2 ALA2        0.0000 
     48 CA         54.5819  125.9847   55.8615 C.3       5 GLY6        0.0000 
     49 CA         53.3781  126.5838   56.5263 C.3       5 GLY6        0.0000 
     50 DU         52.1744  127.1828   57.1912 H         6 CUB7        0.0000 
     51 DU         50.9706  127.7818   57.8560 H         6 CUB7        0.0000 
     52 O          49.7668  128.3809   58.5209 O.2       2 ALA2        0.0000 
     53 CA         53.8031  125.8324   54.5886 C.3       5 GLY6        0.0000 
     54 N          52.5993  126.4315   55.2534 N.2       2 ALA2        0.0000 
     55 N          51.3956  127.0305   55.9183 N.2       2 ALA2        0.0000 
     56 CA         50.1918  127.6296   56.5831 C.3       5 GLY6        0.0000 
     57 OG         48.9880  128.2286   57.2480 O.2       1 SER1        0.0000 
     58 CA         49.4130  127.4773   55.3102 C.3       5 GLY6        0.0000 
     59 CA         48.2092  128.0763   55.9751 C.3       5 GLY6        0.0000 
     60 OG         50.4585  128.0700   63.4377 O.2       1 SER1        0.0000 
     61 OG         49.6797  127.9178   62.1648 O.2       1 SER1        0.0000 
     62 DU         48.4759  128.5168   62.8296 H         6 CUB7        0.0000 
     63 CA         53.7161  125.3693   58.2325 C.3       5 GLY6        0.0000 
     64 OG         52.5123  125.9683   58.8973 O.2       1 SER1        0.0000 
     65 OG         51.3085  126.5674   59.5622 O.2       1 SER1        0.0000 
     66 OG         50.1047  127.1664   60.2270 O.2       1 SER1        0.0000 
     67 CA         48.9009  127.7655   60.8919 C.3       5 GLY6        0.0000 
     68 OG         47.6971  128.3645   61.5567 O.2       1 SER1        0.0000 
     69 O          52.9373  125.2170   56.9596 O.2       2 ALA2        0.0000 
     70 N          51.7335  125.8161   57.6244 N.2       2 ALA2        0.0000 
     71 CA         50.5297  126.4151   58.2893 C.3       5 GLY6        0.0000 
     72 CA         49.3259  127.0142   58.9541 C.3       5 GLY6        0.0000 
     73 CA         49.7509  126.2628   57.0164 C.3       5 GLY6        0.0000 
     74 OG         50.0177  126.7033   63.8709 O.2       1 SER1        0.0000 
     75 N          49.2389  126.5510   62.5980 N.2       2 ALA2        0.0000 
     76 DU         48.0351  127.1501   63.2629 H         6 CUB7        0.0000 
     77 N          52.0714  124.6016   59.3306 N.2       2 ALA2        0.0000 
     78 N          49.6639  125.7997   60.6603 N.2       2 ALA2        0.0000 
     79 CA         48.4601  126.3988   61.3251 C.3       5 GLY6        0.0000 
     80 CA         47.2563  126.9978   61.9900 C.3       5 GLY6        0.0000 
     81 O          52.4964  123.8503   57.3928 O.2       2 ALA2        0.0000 
     82 N          51.2926  124.4493   58.0577 N.2       2 ALA2        0.0000 
     83 CA         50.0889  125.0484   58.7225 C.3       5 GLY6        0.0000 
     84 CA         49.3101  124.8961   57.4496 C.3       5 GLY6        0.0000 
     85 O          49.5768  125.3366   64.3042 O.2       2 ALA2        0.0000 
     86 N          48.7980  125.1843   63.0313 N.2       2 ALA2        0.0000 
     87 N          49.2230  124.4330   61.0935 N.2       2 ALA2        0.0000 
     88 CA         48.0192  125.0320   61.7583 C.3       5 GLY6        0.0000 
     89 OG         50.8518  123.0826   58.4909 O.2       1 SER1        0.0000 
     90 O          49.6480  123.6816   59.1557 O.2       2 ALA2        0.0000 
     91 O          50.0730  122.9303   57.2180 O.2       2 ALA2        0.0000 
     92 O          47.5784  123.6653   62.1916 O.2       2 ALA2        0.0000 
@<TRIPOS>BOND
@<TRIPOS>SUBSTRUCTURE
     1 SER1       19 GROUP   
     2 ALA2        1 GROUP   
     3 LYS4       10 GROUP   
     4 PHE5        2 GROUP   
     5 GLY6        3 GROUP   
     6 CUB7        6 GROUP   
@<TRIPOS>SET

