#    Name: 1rfg_GMP_1_INTS_M
#    Modification time : Tue Mar 25 00:37:48 2014

@<TRIPOS>MOLECULE
1rfg_GMP_1_INTS_M
   39     0     9     0     0
SMALL
NO_CHARGES


@<TRIPOS>ATOM
      1 CA         52.4690  130.4630   56.4890 C.3       3 GLC5        0.0000 
      2 CA         51.2420  129.5310   57.2160 C.3       9 GLL5        0.0000 
      3 CA         53.6960  131.3950   55.7620 C.3       6 GLP5        0.0000 
      4 CA         50.9585  131.1780   57.4685 C.3       3 GLC5        0.0000 
      5 CA         50.6750  132.8250   57.7210 C.3       6 GLP5        0.0000 
      6 N          52.4755  126.5810   60.4715 N.am      2 SEC2        0.0000 
      7 N          51.8690  126.1940   59.0000 N.am      8 SEL2        0.0000 
      8 N          53.0820  126.9680   61.9430 N.am      5 SEP2        0.0000 
      9 N          54.2775  124.2125   56.6545 N.am      2 SEC2        0.0000 
     10 N          52.9880  125.0500   56.7280 N.am      8 SEL2        0.0000 
     11 N          55.5670  123.3750   56.5810 N.am      5 SEP2        0.0000 
     12 O          51.8615  124.7240   55.6475 O.2       1 ALC1        0.0000 
     13 O          52.9880  125.0500   56.7280 O.2       7 ALL1        0.0000 
     14 O          50.7350  124.3980   54.5670 O.2       4 ALP1        0.0000 
     15 CA         49.8775  126.1365   55.2300 C.3       3 GLC5        0.0000 
     16 CA         51.8400  126.7900   55.5420 C.3       9 GLL5        0.0000 
     17 CA         47.9150  125.4830   54.9180 C.3       6 GLP5        0.0000 
     18 CA         51.6495  125.7700   53.7470 C.3       3 GLC5        0.0000 
     19 CA         51.4590  124.7500   51.9520 C.3       6 GLP5        0.0000 
     20 N          52.1410  129.6605   51.0865 N.am      2 SEC2        0.0000 
     21 N          52.1570  128.9150   52.4810 N.am      8 SEL2        0.0000 
     22 N          52.1250  130.4060   49.6920 N.am      5 SEP2        0.0000 
     23 CA         53.1775  127.7550   50.9830 C.3       3 GLC5        0.0000 
     24 CA         53.4770  128.4770   52.6870 C.3       9 GLL5        0.0000 
     25 CA         52.8780  127.0330   49.2790 C.3       6 GLP5        0.0000 
     26 N          53.3825  129.9940   50.2670 N.am      2 SEC2        0.0000 
     27 N          54.6400  129.5820   50.8420 N.am      8 SEL2        0.0000 
     28 O          56.9400  128.5540   52.0485 O.2       1 ALC1        0.0000 
     29 O          55.7760  128.2380   52.3640 O.2       7 ALL1        0.0000 
     30 O          58.1040  128.8700   51.7330 O.2       4 ALP1        0.0000 
     31 O          58.2810  127.4805   53.5335 O.2       1 ALC1        0.0000 
     32 O          57.1490  126.8900   53.8450 O.2       7 ALL1        0.0000 
     33 O          59.4130  128.0710   53.2220 O.2       4 ALP1        0.0000 
     34 O          57.6265  127.8800   52.7890 O.2       1 ALC1        0.0000 
     35 CA         54.5065  127.0923   57.8425 C.3       3 GLC5        0.0000 
     36 CA         52.8690  126.5250   56.6460 C.3       9 GLL5        0.0000 
     37 CA         56.4610  127.3190   58.3750 C.3       6 GLP5        0.0000 
     38 CA         52.5000  126.4133   52.5910 C.3       3 GLC5        0.0000 
     39 CA         53.6050  127.6760   53.7730 C.3       9 GLL5        0.0000 
@<TRIPOS>BOND
@<TRIPOS>SUBSTRUCTURE
     1 ALC1       12 GROUP        1 X    ALC  0     ROOT ALC X 1
     2 SEC2        6 GROUP        1 X    SEC  0     **** SEC X 2
     3 GLC5        1 GROUP        1 X    GLC  0     **** GLC X 6
     4 ALP1       14 GROUP        1 Y    ALP  0     ROOT ALP Y 8
     5 SEP2        8 GROUP        1 Y    SEP  0     **** SEP Y 9
     6 GLP5        3 GROUP        1 Y    GLP  0     **** GLP Y 13
     7 ALL1       13 GROUP        1 Z    ALL  0     ROOT ALL Z 15
     8 SEL2        7 GROUP        1 Z    SEL  0     **** SEL Z 16
     9 GLL5        2 GROUP        1 Z    GLL  0     **** GLL Z 20
@<TRIPOS>SET

