#    Name: 1rfg_GMP_1_ligand
#    Modification time : Tue Mar 25 00:37:48 2014

@<TRIPOS>MOLECULE
1rfg_GMP_1_ligand
   33    35     1     0     0
SMALL
NO_CHARGES


@<TRIPOS>ATOM
      1 O5'        50.3000  130.1250   56.2620 O.3       1 GMP290      0.0000 
      2 C5'        51.2420  129.5310   57.2160 C.3       1 GMP290      0.0000 
      3 C4'        51.0050  128.0230   57.4680 C.3       1 GMP290      0.0000 
      4 O4'        50.6940  127.5240   56.1460 O.3       1 GMP290      0.0000 
      5 C3'        52.2350  127.2060   57.9740 C.3       1 GMP290      0.0000 
      6 O3'        51.8690  126.1940   59.0000 O.3       1 GMP290      0.0000 
      7 C2'        52.8690  126.5250   56.6460 C.3       1 GMP290      0.0000 
      8 O2'        52.9880  125.0500   56.7280 O.3       1 GMP290      0.0000 
      9 C1'        51.8400  126.7900   55.5420 C.3       1 GMP290      0.0000 
     10 N9         52.2820  127.5470   54.3460 N.pl3     1 GMP290      0.0000 
     11 C8         51.4320  128.2860   53.5720 C.2       1 GMP290      0.0000 
     12 N7         52.1570  128.9150   52.4810 N.2       1 GMP290      0.0000 
     13 C5         53.4770  128.4770   52.6870 C.2       1 GMP290      0.0000 
     14 C6         54.6240  128.8410   51.8590 C.2       1 GMP290      0.0000 
     15 O6         54.6400  129.5820   50.8420 O.2       1 GMP290      0.0000 
     16 N1         55.7760  128.2380   52.3640 N.am      1 GMP290      0.0000 
     17 C2         55.8580  127.4210   53.4700 C.2       1 GMP290      0.0000 
     18 N2         57.1490  126.8900   53.8450 N.pl3     1 GMP290      0.0000 
     19 N3         54.7620  127.1230   54.1830 N.2       1 GMP290      0.0000 
     20 C4         53.6050  127.6760   53.7730 C.2       1 GMP290      0.0000 
     21 H          51.1839  130.0448   58.1941 H         1 GMP290      0.0000 
     22 H          52.2836  129.6494   56.8621 H         1 GMP290      0.0000 
     23 H          50.1846  127.8920   58.1117 H         1 GMP290      0.0000 
     24 H          52.9688  127.9003   58.3277 H         1 GMP290      0.0000 
     25 H          53.7555  127.0069   56.4130 H         1 GMP290      0.0000 
     26 H          51.4404  125.8094   55.2183 H         1 GMP290      0.0000 
     27 H          50.4902  128.4024   53.6912 H         1 GMP290      0.0000 
     28 H          56.6902  128.4352   51.8307 H         1 GMP290      0.0000 
     29 H          57.9253  127.1867   53.2888 H         1 GMP290      0.0000 
     30 H          57.1587  126.2700   54.6295 H         1 GMP290      0.0000 
     31 H          49.9486  129.3538   55.7311 H         1 GMP290      0.0000 
     32 H          52.2588  125.3354   58.6670 H         1 GMP290      0.0000 
     33 H          52.3294  124.6999   56.0619 H         1 GMP290      0.0000 
@<TRIPOS>BOND
     1    2    1 1    
     2   31    1 1    
     3    3    2 1    
     4   21    2 1    
     5   22    2 1    
     6    4    3 1    
     7    5    3 1    
     8   23    3 1    
     9    9    4 1    
    10    6    5 1    
    11    7    5 1    
    12   24    5 1    
    13   32    6 1    
    14    8    7 1    
    15    9    7 1    
    16   25    7 1    
    17   33    8 1    
    18   10    9 1    
    19   26    9 1    
    20   11   10 1    
    21   20   10 1    
    22   12   11 2    
    23   27   11 1    
    24   13   12 1    
    25   14   13 1    
    26   20   13 2    
    27   15   14 2    
    28   16   14 am   
    29   17   16 1    
    30   28   16 1    
    31   18   17 1    
    32   19   17 2    
    33   29   18 1    
    34   30   18 1    
    35   20   19 1    
@<TRIPOS>SUBSTRUCTURE
     1 GMP290      1 GROUP   
@<TRIPOS>SET

