#    Name: 4itl_ACP_1_INTS_M
#    Modification time : Tue Mar 25 04:35:31 2014

@<TRIPOS>MOLECULE
4itl_ACP_1_INTS_M
   73     0    12     0     0
SMALL
NO_CHARGES


@<TRIPOS>ATOM
      1 N          10.4640   -2.9790   -5.8150 N.am      2 SEC2        0.0000 
      2 N           9.5360   -1.9090   -5.9570 N.am     10 SEL2        0.0000 
      3 N          11.3920   -4.0490   -5.6730 N.am      6 SEP2        0.0000 
      4 NZ          6.8000   -2.0885   -7.8425 N.4       3 LYC4        0.0000 
      5 NZ          7.0820   -1.6300   -6.6200 N.4      11 LYL4        0.0000 
      6 NZ          6.5180   -2.5470   -9.0650 N.4       7 LYP4        0.0000 
      7 N           6.8000   -2.0885   -7.8425 N.am      2 SEC2        0.0000 
      8 N           7.0820   -1.6300   -6.6200 N.am     10 SEL2        0.0000 
      9 N           6.5180   -2.5470   -9.0650 N.am      6 SEP2        0.0000 
     10 N           6.4660   -7.0075   -4.9470 N.am      2 SEC2        0.0000 
     11 N           6.4850   -5.8680   -4.2520 N.am     10 SEL2        0.0000 
     12 N           6.4470   -8.1470   -5.6420 N.am      6 SEP2        0.0000 
     13 N           7.0570   -6.9115   -3.6885 N.am      2 SEC2        0.0000 
     14 N           7.6290   -7.9550   -3.1250 N.am      6 SEP2        0.0000 
     15 N           4.0390   -3.2175   -5.0565 N.am      2 SEC2        0.0000 
     16 N           5.2310   -3.9980   -5.1720 N.am     10 SEL2        0.0000 
     17 N           2.8470   -2.4370   -4.9410 N.am      6 SEP2        0.0000 
     18 N           4.5970   -5.3640   -5.4930 N.am      2 SEC2        0.0000 
     19 N           3.9630   -6.7300   -5.8140 N.am      6 SEP2        0.0000 
     20 CA          6.7555   -3.7285   -6.9145 C.3       4 GLC5        0.0000 
     21 CA          7.9550   -3.9390   -5.2690 C.3      12 GLL5        0.0000 
     22 CA          5.5560   -3.5180   -8.5600 C.3       8 GLP5        0.0000 
     23 CA          8.5770   -5.6710   -5.0370 C.3       4 GLC5        0.0000 
     24 CA          9.1990   -7.4030   -4.8050 C.3       8 GLP5        0.0000 
     25 N           3.3930   -4.7750   -2.7925 N.am      2 SEC2        0.0000 
     26 N           4.2300   -4.4910   -1.5750 N.am     10 SEL2        0.0000 
     27 N           2.5560   -5.0590   -4.0100 N.am      6 SEP2        0.0000 
     28 N           3.1330   -3.7570   -1.6015 N.am      2 SEC2        0.0000 
     29 N           2.0360   -3.0230   -1.6280 N.am      6 SEP2        0.0000 
     30 O           7.8040   -8.2225   -1.7540 O.2       1 ALC1        0.0000 
     31 O           7.9790   -8.4900   -0.3830 O.2       9 ALL1        0.0000 
     32 O           7.6290   -7.9550   -3.1250 O.2       5 ALP1        0.0000 
     33 CA          8.5885   -8.2900    3.7565 C.3       4 GLC5        0.0000 
     34 CA          7.8710   -7.6320    1.8130 C.3      12 GLL5        0.0000 
     35 CA          9.3060   -8.9480    5.7000 C.3       8 GLP5        0.0000 
     36 CA          6.3120   -8.7995    2.5710 C.3       4 GLC5        0.0000 
     37 CA          4.7530   -9.9670    3.3290 C.3       8 GLP5        0.0000 
     38 N          10.5565   -7.7405    2.8685 N.am      2 SEC2        0.0000 
     39 N           9.0870   -8.2310    2.1380 N.am     10 SEL2        0.0000 
     40 N          12.0260   -7.2500    3.5990 N.am      6 SEP2        0.0000 
     41 CA          8.4205   -4.2060    2.4985 C.3       4 GLC5        0.0000 
     42 CA          7.8650   -6.2400    2.3130 C.3      12 GLL5        0.0000 
     43 CA          8.9760   -2.1720    2.6840 C.3       8 GLP5        0.0000 
     44 CA          8.4300   -5.9245    4.1300 C.3       4 GLC5        0.0000 
     45 CA          8.9950   -5.6090    5.9470 C.3       8 GLP5        0.0000 
     46 N           3.3260   -5.4200    2.5130 N.am      2 SEC2        0.0000 
     47 N           4.6750   -4.6600    3.0080 N.am     10 SEL2        0.0000 
     48 N           1.9770   -6.1800    2.0180 N.am      6 SEP2        0.0000 
     49 N           3.9900   -3.3490    2.9155 N.am      2 SEC2        0.0000 
     50 N           3.3050   -2.0380    2.8230 N.am      6 SEP2        0.0000 
     51 CA          5.8175   -3.5725    3.9790 C.3       4 GLC5        0.0000 
     52 CA          4.7590   -5.5000    4.0490 C.3      12 GLL5        0.0000 
     53 CA          6.8760   -1.6450    3.9090 C.3       8 GLP5        0.0000 
     54 CA          6.4150   -5.0000    5.2355 C.3       4 GLC5        0.0000 
     55 CA          8.0710   -4.5000    6.4220 C.3       8 GLP5        0.0000 
     56 CA          4.0980   -3.7450    6.0155 C.3       4 GLC5        0.0000 
     57 CA          3.9410   -5.7930    5.1400 C.3      12 GLL5        0.0000 
     58 CA          4.2550   -1.6970    6.8910 C.3       8 GLP5        0.0000 
     59 O           2.0565   -4.1460    4.3600 O.2       1 ALC1        0.0000 
     60 O           2.6860   -5.1030    5.3130 O.2       9 ALL1        0.0000 
     61 O           1.4270   -3.1890    3.4070 O.2       5 ALP1        0.0000 
     62 CA          6.7710   -5.9630    6.1450 C.3       4 GLC5        0.0000 
     63 CA          5.4710   -7.4260    5.8680 C.3      12 GLL5        0.0000 
     64 CA          7.3885   -8.1870    5.7840 C.3       4 GLC5        0.0000 
     65 CA          7.4775   -5.9210    4.9325 C.3       4 GLC5        0.0000 
     66 CA          5.9600   -6.2330    3.9180 C.3      12 GLL5        0.0000 
     67 CA          9.7492   -4.7017   -0.1110 C.3       4 GLC5        0.0000 
     68 CA          8.4220   -6.1780    0.0980 C.3      12 GLL5        0.0000 
     69 CA         11.3200   -3.6950    0.2290 C.3       8 GLP5        0.0000 
     70 CA          9.8577   -7.8327   -0.1095 C.3       4 GLC5        0.0000 
     71 CA         11.6950   -8.8730   -0.4470 C.3       8 GLP5        0.0000 
     72 CA          9.8005   -6.2050    1.9855 C.3       4 GLC5        0.0000 
     73 CA         11.7330   -5.4740    1.9080 C.3       8 GLP5        0.0000 
@<TRIPOS>BOND
@<TRIPOS>SUBSTRUCTURE
     1 ALC1       30 GROUP        1 X    ALC  0     ROOT ALC X 1
     2 SEC2        1 GROUP        1 X    SEC  0     **** SEC X 2
     3 LYC4        4 GROUP        1 X    LYC  0     **** LYC X 4
     4 GLC5       20 GROUP        1 X    GLC  0     **** GLC X 6
     5 ALP1       32 GROUP        1 Y    ALP  0     ROOT ALP Y 8
     6 SEP2        3 GROUP        1 Y    SEP  0     **** SEP Y 9
     7 LYP4        6 GROUP        1 Y    LYP  0     **** LYP Y 11
     8 GLP5       22 GROUP        1 Y    GLP  0     **** GLP Y 13
     9 ALL1       31 GROUP        1 Z    ALL  0     ROOT ALL Z 15
    10 SEL2        2 GROUP        1 Z    SEL  0     **** SEL Z 16
    11 LYL4        5 GROUP        1 Z    LYL  0     **** LYL Z 18
    12 GLL5       21 GROUP        1 Z    GLL  0     **** GLL Z 20
@<TRIPOS>SET

