#    Name: 4itl_ACP_1_ligand
#    Modification time : Tue Mar 25 04:35:31 2014

@<TRIPOS>MOLECULE
4itl_ACP_1_ligand
   45    47     1     0     0
SMALL
NO_CHARGES


@<TRIPOS>ATOM
      1 PG          8.0890   -2.1240   -5.5600 P.3       1 ACP401      0.0000 
      2 O1G         9.5360   -1.9090   -5.9570 O.co2     1 ACP401      0.0000 
      3 O2G         7.0820   -1.6300   -6.6200 O.co2     1 ACP401      0.0000 
      4 O3G         7.8380   -1.3150   -4.2480 O.co2     1 ACP401      0.0000 
      5 PB          6.4530   -4.3550   -4.3250 P.3       1 ACP401      0.0000 
      6 O1B         6.4850   -5.8680   -4.2520 O.co2     1 ACP401      0.0000 
      7 O2B         5.2310   -3.9980   -5.1720 O.co2     1 ACP401      0.0000 
      8 C3B         7.9550   -3.9390   -5.2690 C.3       1 ACP401      0.0000 
      9 PA          5.6940   -4.1080   -1.6330 P.3       1 ACP401      0.0000 
     10 O1A         4.2300   -4.4910   -1.5750 O.co2     1 ACP401      0.0000 
     11 O2A         6.0630   -2.9650   -0.7570 O.co2     1 ACP401      0.0000 
     12 O3A         6.1860   -3.4920   -3.0410 O.3       1 ACP401      0.0000 
     13 O5'         6.5440   -5.3960   -1.2240 O.3       1 ACP401      0.0000 
     14 C5'         7.9350   -5.2390   -1.0000 C.3       1 ACP401      0.0000 
     15 C4'         8.4220   -6.1780    0.0980 C.3       1 ACP401      0.0000 
     16 O4'         8.3390   -5.4100    1.3000 O.3       1 ACP401      0.0000 
     17 C3'         7.6190   -7.4070    0.3580 C.3       1 ACP401      0.0000 
     18 O3'         7.9790   -8.4900   -0.3830 O.3       1 ACP401      0.0000 
     19 C2'         7.8710   -7.6320    1.8130 C.3       1 ACP401      0.0000 
     20 O2'         9.0870   -8.2310    2.1380 O.3       1 ACP401      0.0000 
     21 C1'         7.8650   -6.2400    2.3130 C.3       1 ACP401      0.0000 
     22 N9          6.5660   -5.7680    2.7860 N.pl3     1 ACP401      0.0000 
     23 C8          5.7820   -4.8030    2.2460 C.2       1 ACP401      0.0000 
     24 N7          4.6750   -4.6600    3.0080 N.2       1 ACP401      0.0000 
     25 C5          4.7590   -5.5000    4.0490 C.ar      1 ACP401      0.0000 
     26 C6          3.9410   -5.7930    5.1400 C.ar      1 ACP401      0.0000 
     27 N6          2.6860   -5.1030    5.3130 N.pl3     1 ACP401      0.0000 
     28 N1          4.3130   -6.7360    6.0140 N.ar      1 ACP401      0.0000 
     29 C2          5.4710   -7.4260    5.8680 C.ar      1 ACP401      0.0000 
     30 N3          6.3030   -7.1780    4.8330 N.ar      1 ACP401      0.0000 
     31 C4          5.9600   -6.2330    3.9180 C.ar      1 ACP401      0.0000 
     32 H           8.7606   -4.1964   -4.6827 H         1 ACP401      0.0000 
     33 H           7.8576   -4.3726   -6.1972 H         1 ACP401      0.0000 
     34 H           8.1873   -4.2099   -0.6931 H         1 ACP401      0.0000 
     35 H           8.5235   -5.4556   -1.9076 H         1 ACP401      0.0000 
     36 H           9.4491   -6.4320   -0.0845 H         1 ACP401      0.0000 
     37 H           6.5716   -7.1308    0.2684 H         1 ACP401      0.0000 
     38 H           7.0125   -8.1219    2.2321 H         1 ACP401      0.0000 
     39 H           8.5797   -6.1976    3.1677 H         1 ACP401      0.0000 
     40 H           5.9841   -4.2996    1.4450 H         1 ACP401      0.0000 
     41 H           2.2449   -4.7758    4.4773 H         1 ACP401      0.0000 
     42 H           2.3615   -5.0093    6.2543 H         1 ACP401      0.0000 
     43 H           5.7224   -8.1621    6.5696 H         1 ACP401      0.0000 
     44 H           7.7872   -8.2311   -1.3297 H         1 ACP401      0.0000 
     45 H           9.4359   -8.5936    1.2739 H         1 ACP401      0.0000 
@<TRIPOS>BOND
     1    2    1 ar   
     2    3    1 ar   
     3    4    1 ar   
     4    8    1 1    
     5    6    5 ar   
     6    7    5 ar   
     7    8    5 1    
     8   12    5 1    
     9   32    8 1    
    10   33    8 1    
    11   10    9 ar   
    12   11    9 ar   
    13   12    9 1    
    14   13    9 1    
    15   14   13 1    
    16   15   14 1    
    17   34   14 1    
    18   35   14 1    
    19   16   15 1    
    20   17   15 1    
    21   36   15 1    
    22   21   16 1    
    23   18   17 1    
    24   19   17 1    
    25   37   17 1    
    26   44   18 1    
    27   20   19 1    
    28   21   19 1    
    29   38   19 1    
    30   45   20 1    
    31   22   21 1    
    32   39   21 1    
    33   23   22 1    
    34   31   22 1    
    35   24   23 2    
    36   40   23 1    
    37   25   24 1    
    38   26   25 ar   
    39   31   25 ar   
    40   27   26 1    
    41   28   26 ar   
    42   41   27 1    
    43   42   27 1    
    44   29   28 ar   
    45   30   29 ar   
    46   43   29 1    
    47   31   30 ar   
@<TRIPOS>SUBSTRUCTURE
     1 ACP401      1 GROUP   
@<TRIPOS>SET

