#    Name: 3LC3_1_CAVITY_N1_6.mol2
#    Modification time : Tue Mar 11 11:10:35 2014

@<TRIPOS>MOLECULE
3LC3_1_CAVITY_N1_6.mol2
   75     0     4     0     0
SMALL
NO_CHARGES


@<TRIPOS>ATOM
      1 N          25.4907  -21.9806   20.6693 N.2       2 ALA2        0.0000 
      2 N          25.6936  -21.7395   19.2028 N.2       2 ALA2        0.0000 
      3 N          26.6249  -19.8836   19.6369 N.2       2 ALA2        0.0000 
      4 O          26.8279  -19.6424   18.1704 O.2       2 ALA2        0.0000 
      5 CA         27.0309  -19.4012   16.7039 C.3       3 GLY6        0.0000 
      6 O          24.8112  -20.8093   22.3022 O.2       2 ALA2        0.0000 
      7 N          25.0142  -20.5681   20.8357 N.2       2 ALA2        0.0000 
      8 DU         25.2172  -20.3269   19.3692 H         4 CUB7        0.0000 
      9 DU         25.4201  -20.0857   17.9027 H         4 CUB7        0.0000 
     10 N          23.4035  -21.2526   22.0345 N.2       2 ALA2        0.0000 
     11 N          23.6064  -21.0114   20.5679 N.2       2 ALA2        0.0000 
     12 DU         23.8094  -20.7702   19.1014 H         4 CUB7        0.0000 
     13 CA         25.9455  -18.7122   21.2698 C.3       3 GLY6        0.0000 
     14 N          26.1485  -18.4710   19.8033 N.2       2 ALA2        0.0000 
     15 N          26.3514  -18.2299   18.3368 N.2       2 ALA2        0.0000 
     16 O          24.3348  -19.3967   22.4686 O.2       2 ALA2        0.0000 
     17 N          24.5377  -19.1555   21.0021 N.2       2 ALA2        0.0000 
     18 DU         24.7407  -18.9143   19.5356 H         4 CUB7        0.0000 
     19 N          24.9437  -18.6732   18.0691 N.2       2 ALA2        0.0000 
     20 CA         25.1956  -15.6459   20.1360 C.3       3 GLY6        0.0000 
     21 N          25.3985  -15.4047   18.6695 N.2       2 ALA2        0.0000 
     22 O          23.7878  -16.0892   19.8683 O.2       2 ALA2        0.0000 
     23 N          23.9908  -15.8481   18.4018 N.2       2 ALA2        0.0000 
     24 CA         22.5830  -16.2914   18.1340 C.3       3 GLY6        0.0000 
     25 N          22.7860  -16.0502   16.6675 N.2       2 ALA2        0.0000 
     26 CA         22.9889  -15.8090   15.2010 C.3       3 GLY6        0.0000 
     27 CA         20.9723  -16.9759   19.3328 C.3       3 GLY6        0.0000 
     28 CA         21.1752  -16.7347   17.8663 C.3       3 GLY6        0.0000 
     29 DU         21.3782  -16.4935   16.3998 H         4 CUB7        0.0000 
     30 CA         21.5812  -16.2523   14.9333 C.3       3 GLY6        0.0000 
     31 O          19.7675  -17.1780   17.5986 O.2       2 ALA2        0.0000 
     32 OG         19.9704  -16.9368   16.1321 O.2       1 SER1        0.0000 
     33 O          16.5460  -18.5470   19.9961 O.2       2 ALA2        0.0000 
     34 O          24.7191  -14.2334   20.3024 O.2       2 ALA2        0.0000 
     35 O          24.9221  -13.9922   18.8359 O.2       2 ALA2        0.0000 
     36 O          23.5143  -14.4355   18.5682 O.2       2 ALA2        0.0000 
     37 OG         22.1065  -14.8788   18.3004 O.2       1 SER1        0.0000 
     38 CA         22.3095  -14.6376   16.8339 C.3       3 GLY6        0.0000 
     39 CA         20.4958  -15.5633   19.4992 C.3       3 GLY6        0.0000 
     40 OG         20.6988  -15.3221   18.0327 O.2       1 SER1        0.0000 
     41 N          20.9017  -15.0809   16.5662 N.2       2 ALA2        0.0000 
     42 CA         19.0881  -16.0066   19.2314 C.3       3 GLY6        0.0000 
     43 N          19.2910  -15.7654   17.7649 N.2       2 ALA2        0.0000 
     44 N          19.4940  -15.5242   16.2984 N.2       2 ALA2        0.0000 
     45 O          17.2744  -16.9323   21.8967 O.2       2 ALA2        0.0000 
     46 O          17.4773  -16.6911   20.4302 O.2       2 ALA2        0.0000 
     47 O          17.6803  -16.4499   18.9637 O.2       2 ALA2        0.0000 
     48 N          17.8833  -16.2087   17.4972 N.2       2 ALA2        0.0000 
     49 O          15.8666  -17.3756   21.6289 O.2       2 ALA2        0.0000 
     50 O          16.0696  -17.1344   20.1624 O.2       2 ALA2        0.0000 
     51 CA         16.2725  -16.8932   18.6959 C.3       3 GLY6        0.0000 
     52 CA         16.4755  -16.6520   17.2294 C.3       3 GLY6        0.0000 
     53 N          23.1300  -19.5988   20.7343 N.2       2 ALA2        0.0000 
     54 N          23.3330  -19.3577   19.2678 N.2       2 ALA2        0.0000 
     55 DU         23.5359  -19.1165   17.8013 H         4 CUB7        0.0000 
     56 N          23.7389  -18.8753   16.3348 N.2       2 ALA2        0.0000 
     57 CA         25.6720  -17.0585   19.9697 C.3       3 GLY6        0.0000 
     58 CA         24.0613  -17.7430   21.1684 C.3       3 GLY6        0.0000 
     59 CA         24.2643  -17.5018   19.7019 C.3       3 GLY6        0.0000 
     60 N          24.4672  -17.2606   18.2354 N.2       2 ALA2        0.0000 
     61 CA         22.8565  -17.9451   19.4342 C.3       3 GLY6        0.0000 
     62 N          23.0595  -17.7039   17.9677 N.2       2 ALA2        0.0000 
     63 N          23.2624  -17.4627   16.5012 N.2       2 ALA2        0.0000 
     64 N          23.4654  -17.2215   15.0347 N.2       2 ALA2        0.0000 
     65 N          21.4487  -18.3884   19.1664 N.2       2 ALA2        0.0000 
     66 DU         21.6517  -18.1472   17.6999 H         4 CUB7        0.0000 
     67 DU         21.8547  -17.9060   16.2334 H         4 CUB7        0.0000 
     68 DU         22.0576  -17.6649   14.7669 H         4 CUB7        0.0000 
     69 OG         23.0378  -13.0229   18.7345 O.2       1 SER1        0.0000 
     70 O          18.4086  -14.8352   20.8643 O.2       2 ALA2        0.0000 
     71 OG         18.6116  -14.5941   19.3978 O.2       1 SER1        0.0000 
     72 N          17.0009  -15.2786   20.5966 N.2       2 ALA2        0.0000 
     73 N          17.2038  -15.0374   19.1301 N.2       2 ALA2        0.0000 
     74 N          15.5931  -15.7219   20.3288 N.2       2 ALA2        0.0000 
     75 CA         15.7961  -15.4807   18.8623 C.3       3 GLY6        0.0000 
@<TRIPOS>BOND
@<TRIPOS>SUBSTRUCTURE
     1 SER1       32 GROUP   
     2 ALA2        1 GROUP   
     3 GLY6        5 GROUP   
     4 CUB7        8 GROUP   
@<TRIPOS>SET

