#    Name: 3lc3_IYX_1_INTS_M
#    Modification time : Mon Mar 24 21:24:45 2014

@<TRIPOS>MOLECULE
3lc3_IYX_1_INTS_M
   53     0    12     0     0
SMALL
NO_CHARGES


@<TRIPOS>ATOM
      1 CA         20.2670  -12.5060   18.9370 C.3       4 GLC5        0.0000 
      2 CA         22.1760  -13.6090   18.8060 C.3      12 GLL5        0.0000 
      3 CA         18.3580  -11.4030   19.0680 C.3       8 GLP5        0.0000 
      4 CA         25.1885  -10.6890   20.1940 C.3       4 GLC5        0.0000 
      5 CA         24.6580  -12.4430   18.9970 C.3      12 GLL5        0.0000 
      6 CA         25.7190   -8.9350   21.3910 C.3       8 GLP5        0.0000 
      7 CA         21.7545  -17.4570   20.3680 C.3       4 GLC5        0.0000 
      8 CA         21.9120  -18.4070   18.8080 C.3      12 GLL5        0.0000 
      9 CA         21.5970  -16.5070   21.9280 C.3       8 GLP5        0.0000 
     10 CA         20.7400  -18.3120   20.1905 C.3       4 GLC5        0.0000 
     11 CA         21.3220  -19.6560   18.6590 C.3      12 GLL5        0.0000 
     12 CA         20.1580  -16.9680   21.7220 C.3       8 GLP5        0.0000 
     13 CA         17.0175  -16.0215   15.9250 C.3       4 GLC5        0.0000 
     14 CA         17.6870  -17.8980   15.9600 C.3      12 GLL5        0.0000 
     15 CA         16.3480  -14.1450   15.8900 C.3       8 GLP5        0.0000 
     16 CA         18.0865  -17.0910   14.0720 C.3       4 GLC5        0.0000 
     17 CA         18.4860  -16.2840   12.1840 C.3       8 GLP5        0.0000 
     18 CA         26.9865  -13.5505   17.1420 C.3       4 GLC5        0.0000 
     19 CA         27.3940  -12.8940   18.8890 C.3      12 GLL5        0.0000 
     20 CA         26.5790  -14.2070   15.3950 C.3       8 GLP5        0.0000 
     21 CA         27.9670  -11.2700   17.7520 C.3       4 GLC5        0.0000 
     22 CA         28.5400   -9.6460   16.6150 C.3       8 GLP5        0.0000 
     23 N          26.8770  -10.5605   19.6020 N.am      2 SEC2        0.0000 
     24 N          27.6570  -11.6450   19.0610 N.am     10 SEL2        0.0000 
     25 N          26.0970   -9.4760   20.1430 N.am      6 SEP2        0.0000 
     26 OD1        29.5055  -12.9355   19.4865 O.co2     3 ASC3        0.0000 
     27 OD1        28.4720  -13.7380   18.7040 O.co2    11 ASL3        0.0000 
     28 OD1        30.5390  -12.1330   20.2690 O.co2     7 ASP3        0.0000 
     29 O          29.5055  -12.9355   19.4865 O.2       1 ALC1        0.0000 
     30 O          28.4720  -13.7380   18.7040 O.2       9 ALL1        0.0000 
     31 O          30.5390  -12.1330   20.2690 O.2       5 ALP1        0.0000 
     32 O          28.3840  -15.2005   18.4055 O.2       1 ALC1        0.0000 
     33 O          28.2960  -16.6630   18.1070 O.2       5 ALP1        0.0000 
     34 CA         22.8032  -14.6002   20.3775 C.3       4 GLC5        0.0000 
     35 CA         24.2260  -14.8210   18.5720 C.3      12 GLL5        0.0000 
     36 CA         21.7090  -14.9750   22.0740 C.3       8 GLP5        0.0000 
     37 CA         25.9682  -15.2097   20.2230 C.3       4 GLC5        0.0000 
     38 CA         25.6010  -14.6820   18.5940 C.3      12 GLL5        0.0000 
     39 CA         27.0230  -15.6680   21.8630 C.3       8 GLP5        0.0000 
     40 CA         22.2170  -16.2568   20.1370 C.3       4 GLC5        0.0000 
     41 CA         23.5320  -16.0040   18.3500 C.3      12 GLL5        0.0000 
     42 CA         21.7632  -14.5897   20.3833 C.3       4 GLC5        0.0000 
     43 CA         21.4590  -14.8000   18.5790 C.3      12 GLL5        0.0000 
     44 CA         22.4912  -13.4342   16.8747 C.3       4 GLC5        0.0000 
     45 CA         23.1650  -12.6640   15.0570 C.3       8 GLP5        0.0000 
     46 CA         26.8577  -14.4000   20.3627 C.3       4 GLC5        0.0000 
     47 CA         25.9910  -13.3700   18.8360 C.3      12 GLL5        0.0000 
     48 CA         23.7214  -12.9991   16.9480 C.3       4 GLC5        0.0000 
     49 CA         20.5235  -17.1720   19.7050 C.3       4 GLC5        0.0000 
     50 CA         21.4320  -17.2990   18.1180 C.3      12 GLL5        0.0000 
     51 CA         25.8490  -14.0180   17.0724 C.3       4 GLC5        0.0000 
     52 CA         24.9334  -13.2641   20.7326 C.3       4 GLC5        0.0000 
     53 CA         24.9120  -12.9970   22.6610 C.3       8 GLP5        0.0000 
@<TRIPOS>BOND
@<TRIPOS>SUBSTRUCTURE
     1 ALC1       29 GROUP        1 X    ALC  0     ROOT ALC X 1
     2 SEC2       23 GROUP        1 X    SEC  0     **** SEC X 2
     3 ASC3       26 GROUP        1 X    ASC  0     **** ASC X 3
     4 GLC5        1 GROUP        1 X    GLC  0     **** GLC X 6
     5 ALP1       31 GROUP        1 Y    ALP  0     ROOT ALP Y 8
     6 SEP2       25 GROUP        1 Y    SEP  0     **** SEP Y 9
     7 ASP3       28 GROUP        1 Y    ASP  0     **** ASP Y 10
     8 GLP5        3 GROUP        1 Y    GLP  0     **** GLP Y 13
     9 ALL1       30 GROUP        1 Z    ALL  0     ROOT ALL Z 15
    10 SEL2       24 GROUP        1 Z    SEL  0     **** SEL Z 16
    11 ASL3       27 GROUP        1 Z    ASL  0     **** ASL Z 17
    12 GLL5        2 GROUP        1 Z    GLL  0     **** GLL Z 20
@<TRIPOS>SET

