#    Name: 3lc3_IYX_1_ligand
#    Modification time : Mon Mar 24 21:24:45 2014

@<TRIPOS>MOLECULE
3lc3_IYX_1_ligand
   39    41     1     0     0
SMALL
NO_CHARGES


@<TRIPOS>ATOM
      1 C1         24.2260  -14.8210   18.5720 C.ar      1 IYX1        0.0000 
      2 C2         23.5690  -13.6300   18.7900 C.ar      1 IYX1        0.0000 
      3 C3         23.5320  -16.0040   18.3500 C.ar      1 IYX1        0.0000 
      4 C4         22.1760  -13.6090   18.8060 C.ar      1 IYX1        0.0000 
      5 C5         22.1420  -16.0090   18.3420 C.ar      1 IYX1        0.0000 
      6 C6         21.4590  -14.8000   18.5790 C.ar      1 IYX1        0.0000 
      7 C7         25.6010  -14.6820   18.5940 C.2       1 IYX1        0.0000 
      8 C8         25.9910  -13.3700   18.8360 C.2       1 IYX1        0.0000 
      9 S9         24.6580  -12.4430   18.9970 S.3       1 IYX1        0.0000 
     10 C10        21.4320  -17.2990   18.1180 C.ar      1 IYX1        0.0000 
     11 C11        21.9120  -18.4070   18.8080 C.ar      1 IYX1        0.0000 
     12 C12        20.3460  -17.4530   17.2580 C.ar      1 IYX1        0.0000 
     13 C13        21.3220  -19.6560   18.6590 C.ar      1 IYX1        0.0000 
     14 C14        19.7330  -18.7140   17.1150 C.ar      1 IYX1        0.0000 
     15 C15        20.2450  -19.8070   17.8150 C.ar      1 IYX1        0.0000 
     16 O16        18.6670  -18.9010   16.2670 O.3       1 IYX1        0.0000 
     17 C17        17.6870  -17.8980   15.9600 C.3       1 IYX1        0.0000 
     18 O18        19.7200  -21.0650   17.7390 O.3       1 IYX1        0.0000 
     19 C19        18.8850  -21.5650   16.6900 C.3       1 IYX1        0.0000 
     20 C20        27.3940  -12.8940   18.8890 C.3       1 IYX1        0.0000 
     21 N21        27.6570  -11.6450   19.0610 N.3       1 IYX1        0.0000 
     22 N22        28.4720  -13.7380   18.7040 N.4       1 IYX1        0.0000 
     23 H          24.0491  -16.8806   18.1907 H         1 IYX1        0.0000 
     24 H          21.6708  -12.7377   18.9808 H         1 IYX1        0.0000 
     25 H          20.4340  -14.7869   18.5863 H         1 IYX1        0.0000 
     26 H          26.2284  -15.4168   18.4562 H         1 IYX1        0.0000 
     27 H          22.7231  -18.2986   19.4436 H         1 IYX1        0.0000 
     28 H          19.9880  -16.6533   16.7264 H         1 IYX1        0.0000 
     29 H          21.6931  -20.4621   19.1804 H         1 IYX1        0.0000 
     30 H          27.4239  -13.1342   20.3010 H         1 IYX1        0.0000 
     31 H          18.1010  -17.0905   15.5398 H         1 IYX1        0.0000 
     32 H          16.9949  -18.2376   15.3230 H         1 IYX1        0.0000 
     33 H          17.2044  -17.5874   16.7789 H         1 IYX1        0.0000 
     34 H          19.3436  -21.5309   15.8020 H         1 IYX1        0.0000 
     35 H          18.6210  -22.5166   16.8471 H         1 IYX1        0.0000 
     36 H          18.0402  -21.0368   16.6040 H         1 IYX1        0.0000 
     37 H          28.2712  -14.6692   19.0083 H         1 IYX1        0.0000 
     38 H          28.7381  -13.7951   17.7418 H         1 IYX1        0.0000 
     39 H          29.2761  -13.4304   19.2127 H         1 IYX1        0.0000 
@<TRIPOS>BOND
     1    2    1 ar   
     2    3    1 ar   
     3    7    1 1    
     4    4    2 ar   
     5    9    2 1    
     6    5    3 ar   
     7   23    3 1    
     8    6    4 ar   
     9   24    4 1    
    10    6    5 ar   
    11   10    5 1    
    12   25    6 1    
    13    8    7 2    
    14   26    7 1    
    15    9    8 1    
    16   20    8 1    
    17   11   10 ar   
    18   12   10 ar   
    19   13   11 ar   
    20   27   11 1    
    21   14   12 ar   
    22   28   12 1    
    23   15   13 ar   
    24   29   13 1    
    25   15   14 ar   
    26   16   14 1    
    27   18   15 1    
    28   17   16 1    
    29   31   17 1    
    30   32   17 1    
    31   33   17 1    
    32   19   18 1    
    33   34   19 1    
    34   35   19 1    
    35   36   19 1    
    36   21   20 1    
    37   22   20 1    
    38   30   20 1    
    39   37   22 1    
    40   38   22 1    
    41   39   22 1    
@<TRIPOS>SUBSTRUCTURE
     1 IYX1        1 GROUP   
@<TRIPOS>SET

