#    Name: 3ha8_5JZ_1_INTS_M
#    Modification time : Tue Mar 25 13:48:21 2014

@<TRIPOS>MOLECULE
3ha8_5JZ_1_INTS_M
   89     0     6     0     0
SMALL
NO_CHARGES


@<TRIPOS>ATOM
      1 CA         -3.7780    7.2235   23.2505 C.3       2 GLC5        0.0000 
      2 CA         -5.1910    5.9170   23.6950 C.3       6 GLL5        0.0000 
      3 CA         -2.3650    8.5300   22.8060 C.3       4 GLP5        0.0000 
      4 CA          8.6655    9.5370   28.1520 C.3       2 GLC5        0.0000 
      5 CA          7.3380   11.0240   28.4320 C.3       6 GLL5        0.0000 
      6 CA          9.9930    8.0500   27.8720 C.3       4 GLP5        0.0000 
      7 CA          6.7240   10.0820   26.0510 C.3       2 GLC5        0.0000 
      8 CA          6.1650   11.1460   27.7170 C.3       6 GLL5        0.0000 
      9 CA          7.2830    9.0180   24.3850 C.3       4 GLP5        0.0000 
     10 CA          9.4905   11.4330   30.5620 C.3       2 GLC5        0.0000 
     11 CA          7.5180   11.7210   29.6040 C.3       6 GLL5        0.0000 
     12 CA         11.4630   11.1450   31.5200 C.3       4 GLP5        0.0000 
     13 CA          7.8015   13.8625   32.9535 C.3       2 GLC5        0.0000 
     14 CA          6.6680   13.3140   31.3250 C.3       6 GLL5        0.0000 
     15 CA          8.9350   14.4110   34.5820 C.3       4 GLP5        0.0000 
     16 CA          6.1515   12.3235   32.8715 C.3       2 GLC5        0.0000 
     17 CA          5.6350   11.3330   34.4180 C.3       4 GLP5        0.0000 
     18 CA          0.3990   17.2160   24.8445 C.3       2 GLC5        0.0000 
     19 CA          0.1600   15.4750   26.1180 C.3       6 GLL5        0.0000 
     20 CA          0.6380   18.9570   23.5710 C.3       4 GLP5        0.0000 
     21 CA          1.7135   14.5875   25.4305 C.3       2 GLC5        0.0000 
     22 CA          3.2670   13.7000   24.7430 C.3       4 GLP5        0.0000 
     23 CA         -1.0765   14.4295   33.0770 C.3       2 GLC5        0.0000 
     24 CA         -2.7290   13.1710   32.7180 C.3       6 GLL5        0.0000 
     25 CA          0.5760   15.6880   33.4360 C.3       4 GLP5        0.0000 
     26 CA          0.0660   13.1005   31.8330 C.3       2 GLC5        0.0000 
     27 CA         -1.6320   12.6360   30.6290 C.3       6 GLL5        0.0000 
     28 CA          1.7640   13.5650   33.0370 C.3       4 GLP5        0.0000 
     29 CA          1.2030    8.4255   31.7535 C.3       2 GLC5        0.0000 
     30 CA          2.1780    9.8630   30.3940 C.3       6 GLL5        0.0000 
     31 CA          0.2280    6.9880   33.1130 C.3       4 GLP5        0.0000 
     32 CA          8.1955   14.9320   31.8245 C.3       2 GLC5        0.0000 
     33 CA          6.1840   14.7290   31.1090 C.3       6 GLL5        0.0000 
     34 CA         10.2070   15.1350   32.5400 C.3       4 GLP5        0.0000 
     35 CA          5.6365   15.2885   28.4810 C.3       2 GLC5        0.0000 
     36 CA          4.8200   14.7830   30.4550 C.3       6 GLL5        0.0000 
     37 CA          6.4530   15.7940   26.5070 C.3       4 GLP5        0.0000 
     38 CA          3.2920   14.1740   31.7460 C.3       2 GLC5        0.0000 
     39 CA         -2.0545    8.4755   31.6325 C.3       2 GLC5        0.0000 
     40 CA         -2.9900   10.0060   30.8630 C.3       6 GLL5        0.0000 
     41 CA         -1.1190    6.9450   32.4020 C.3       4 GLP5        0.0000 
     42 CA         -2.2640    9.9320   32.7690 C.3       2 GLC5        0.0000 
     43 CA         -1.5380    9.8580   34.6750 C.3       4 GLP5        0.0000 
     44 CA          5.8960   14.2305   27.9290 C.3       2 GLC5        0.0000 
     45 CA          5.3390   12.6670   29.3510 C.3       6 GLL5        0.0000 
     46 CA         -1.7800   10.4925   24.5775 C.3       2 GLC5        0.0000 
     47 CA         -3.0390   10.8470   25.7530 C.3       6 GLL5        0.0000 
     48 CA         -0.5210   10.1380   23.4020 C.3       4 GLP5        0.0000 
     49 CA         -0.8310   10.5030   25.2065 C.3       2 GLC5        0.0000 
     50 CA         -1.1410   10.8680   27.0110 C.3       6 GLL5        0.0000 
     51 CA         -1.1190   11.4080   24.6235 C.3       2 GLC5        0.0000 
     52 CA         -1.7170   12.6780   25.8450 C.3       6 GLL5        0.0000 
     53 CA         -1.8410   13.3550   23.9760 C.3       2 GLC5        0.0000 
     54 CA         -1.9650   14.0320   22.1070 C.3       4 GLP5        0.0000 
     55 CA         -3.4720    8.7515   24.2915 C.3       2 GLC5        0.0000 
     56 CA         -4.5790    8.9730   25.7770 C.3       6 GLL5        0.0000 
     57 N           0.1325    7.1515   29.8835 N.am      1 SEC2        0.0000 
     58 N           0.3950    8.5640   29.2460 N.am      5 SEL2        0.0000 
     59 N          -0.1300    5.7390   30.5210 N.am      3 SEP2        0.0000 
     60 CA          9.0645   11.9677   28.5035 C.3       2 GLC5        0.0000 
     61 CA         10.7010   12.5630   27.9890 C.3       4 GLP5        0.0000 
     62 CA          6.2227    9.9315   29.4143 C.3       2 GLC5        0.0000 
     63 CA          5.6940    8.7780   30.7540 C.3       4 GLP5        0.0000 
     64 CA          4.2687   11.3930   26.3272 C.3       2 GLC5        0.0000 
     65 CA          2.8740   11.2270   24.7090 C.3       4 GLP5        0.0000 
     66 CA          4.7112    9.8270   27.6348 C.3       2 GLC5        0.0000 
     67 CA          5.1620   11.9720   28.1740 C.3       6 GLL5        0.0000 
     68 CA          3.7590    8.0950   27.3240 C.3       4 GLP5        0.0000 
     69 CA          6.3545   10.4550   30.2933 C.3       2 GLC5        0.0000 
     70 CA          6.5854   12.5778   26.7986 C.3       2 GLC5        0.0000 
     71 CA          7.2140   13.6270   25.4730 C.3       4 GLP5        0.0000 
     72 CA          5.4723   10.5488   29.7583 C.3       2 GLC5        0.0000 
     73 CA          2.1680   12.5875   31.5162 C.3       2 GLC5        0.0000 
     74 CA          2.7770   11.1060   30.4220 C.3       6 GLL5        0.0000 
     75 CA         -5.7330    9.1118   29.8157 C.3       2 GLC5        0.0000 
     76 CA         -4.3660    9.6410   28.8400 C.3       6 GLL5        0.0000 
     77 CA         -6.6580    8.3680   31.2750 C.3       4 GLP5        0.0000 
     78 CA          3.1182    9.2897   28.8660 C.3       2 GLC5        0.0000 
     79 CA          4.0857    9.6312   30.5810 C.3       2 GLC5        0.0000 
     80 CA          1.9630   11.2803   26.6762 C.3       2 GLC5        0.0000 
     81 CA          0.7570   10.7100   28.6370 C.3       6 GLL5        0.0000 
     82 CA          2.3567    9.1457   28.1908 C.3       2 GLC5        0.0000 
     83 CA         -5.6930   12.4660   31.2417 C.3       2 GLC5        0.0000 
     84 CA         -4.4200   11.7920   29.8540 C.3       6 GLL5        0.0000 
     85 CA         -6.5240   12.9220   33.1100 C.3       4 GLP5        0.0000 
     86 CA         -4.6545   12.8328   32.6048 C.3       2 GLC5        0.0000 
     87 CA         -2.8410   12.3160   31.4810 C.3       6 GLL5        0.0000 
     88 CA         -2.1615   11.3008   33.3873 C.3       2 GLC5        0.0000 
     89 CA         -5.1223    9.4715   30.8143 C.3       2 GLC5        0.0000 
@<TRIPOS>BOND
@<TRIPOS>SUBSTRUCTURE
     1 SEC2       57 GROUP        1 X    SEC  0     ROOT SEC X 2
     2 GLC5        1 GROUP        1 X    GLC  0     **** GLC X 6
     3 SEP2       59 GROUP        1 Y    SEP  0     ROOT SEP Y 9
     4 GLP5        3 GROUP        1 Y    GLP  0     **** GLP Y 13
     5 SEL2       58 GROUP        1 Z    SEL  0     ROOT SEL Z 16
     6 GLL5        2 GROUP        1 Z    GLL  0     **** GLL Z 20
@<TRIPOS>SET

