#    Name: 3ha8_5JZ_1_ligand
#    Modification time : Tue Mar 25 13:48:21 2014

@<TRIPOS>MOLECULE
3ha8_5JZ_1_ligand
   87    93     1     0     0
SMALL
NO_CHARGES


@<TRIPOS>ATOM
      1 C4         -5.1910    5.9170   23.6950 C.3       1 5JZ361      0.0000 
      2 C5          7.3380   11.0240   28.4320 C.ar      1 5JZ361      0.0000 
      3 C6          6.1650   11.1460   27.7170 C.ar      1 5JZ361      0.0000 
      4 C7          7.5180   11.7210   29.6040 C.ar      1 5JZ361      0.0000 
      5 C8          5.1620   11.9720   28.1740 C.ar      1 5JZ361      0.0000 
      6 C10         2.3670   12.1140   29.5690 C.ar      1 5JZ361      0.0000 
      7 C13        -4.3660    9.6410   28.8400 C.ar      1 5JZ361      0.0000 
      8 C15        -0.4420    8.8950   28.2880 C.2       1 5JZ361      0.0000 
      9 C17         6.6680   13.3140   31.3250 C.3       1 5JZ361      0.0000 
     10 C20        -5.6950    9.1440   26.7900 C.3       1 5JZ361      0.0000 
     11 C21        -5.2500   10.0700   27.8730 C.ar      1 5JZ361      0.0000 
     12 C22         2.7770   11.1060   30.4220 C.ar      1 5JZ361      0.0000 
     13 C24         0.7570   10.7100   28.6370 C.ar      1 5JZ361      0.0000 
     14 C26        -4.4200   11.7920   29.8540 C.ar      1 5JZ361      0.0000 
     15 C28         1.1520    9.6830   29.4780 C.ar      1 5JZ361      0.0000 
     16 C32         0.1600   15.4750   26.1180 C.3       1 5JZ361      0.0000 
     17 C2         -2.7290   13.1710   32.7180 C.3       1 5JZ361      0.0000 
     18 C3         -1.6320   12.6360   30.6290 C.3       1 5JZ361      0.0000 
     19 C9         -5.7140   11.3660   27.9020 C.ar      1 5JZ361      0.0000 
     20 C14         2.1780    9.8630   30.3940 C.ar      1 5JZ361      0.0000 
     21 C12        -5.3040   12.2280   28.8930 C.ar      1 5JZ361      0.0000 
     22 C11         1.3470   11.9570   28.6500 C.ar      1 5JZ361      0.0000 
     23 C16         6.1840   14.7290   31.1090 C.3       1 5JZ361      0.0000 
     24 C18         4.8200   14.7830   30.4550 C.3       1 5JZ361      0.0000 
     25 C19        -2.9900   10.0060   30.8630 C.3       1 5JZ361      0.0000 
     26 C1         -1.0800   14.7230   26.5380 C.3       1 5JZ361      0.0000 
     27 C23         6.5120   12.5430   30.0610 C.ar      1 5JZ361      0.0000 
     28 C25         5.3390   12.6670   29.3510 C.ar      1 5JZ361      0.0000 
     29 C27        -3.9460   10.4960   29.8340 C.ar      1 5JZ361      0.0000 
     30 C30        -3.0390   10.8470   25.7530 C.ar      1 5JZ361      0.0000 
     31 C31        -1.1410   10.8680   27.0110 C.ar      1 5JZ361      0.0000 
     32 C29        -1.7170   12.6780   25.8450 C.ar      1 5JZ361      0.0000 
     33 C36        -4.5790    8.9730   25.7770 C.3       1 5JZ361      0.0000 
     34 C33         3.0090   13.4430   29.6060 C.2       1 5JZ361      0.0000 
     35 C34        -5.1140    8.1850   24.6170 C.2       1 5JZ361      0.0000 
     36 C35        -2.8410   12.3160   31.4810 C.3       1 5JZ361      0.0000 
     37 N37         0.3950    8.5640   29.2460 N.2       1 5JZ361      0.0000 
     38 N40        -2.2180   10.1920   26.5860 N.ar      1 5JZ361      0.0000 
     39 N38        -2.8160   12.1020   25.3590 N.ar      1 5JZ361      0.0000 
     40 N39        -0.8280   12.1240   26.6730 N.ar      1 5JZ361      0.0000 
     41 N41        -4.7690    6.8580   24.7010 N.am      1 5JZ361      0.0000 
     42 N42        -4.2070   10.2650   25.2250 N.pl3     1 5JZ361      0.0000 
     43 N43        -0.2660   10.1870   27.8820 N.pl3     1 5JZ361      0.0000 
     44 N44         4.3590   13.5300   29.8850 N.am      1 5JZ361      0.0000 
     45 O46         2.3100   14.4250   29.4040 O.2       1 5JZ361      0.0000 
     46 O47        -5.7580    8.6900   23.7050 O.2       1 5JZ361      0.0000 
     47 O48        -2.8490   10.9560   31.9170 O.3       1 5JZ361      0.0000 
     48 O49        -4.0470   12.7120   30.8300 O.3       1 5JZ361      0.0000 
     49 O45        -1.5140   13.9750   25.4140 O.3       1 5JZ361      0.0000 
     50 H           8.0892   10.4015   28.0819 H         1 5JZ361      0.0000 
     51 H           6.0394   10.6176   26.8388 H         1 5JZ361      0.0000 
     52 H           8.3944   11.6298   30.1341 H         1 5JZ361      0.0000 
     53 H           4.2872   12.0698   27.6412 H         1 5JZ361      0.0000 
     54 H          -4.0149    8.6659   28.8178 H         1 5JZ361      0.0000 
     55 H          -1.1278    8.2995   27.8897 H         1 5JZ361      0.0000 
     56 H           6.0831   12.8529   32.1188 H         1 5JZ361      0.0000 
     57 H           7.7146   13.3353   31.6232 H         1 5JZ361      0.0000 
     58 H          -6.5718    9.5500   26.2885 H         1 5JZ361      0.0000 
     59 H          -5.9465    8.1717   27.2101 H         1 5JZ361      0.0000 
     60 H           3.5477   11.2882   31.0938 H         1 5JZ361      0.0000 
     61 H          -6.3742   11.6929   27.1749 H         1 5JZ361      0.0000 
     62 H           2.4699    9.1186   31.0089 H         1 5JZ361      0.0000 
     63 H          -5.6572   13.1964   28.9160 H         1 5JZ361      0.0000 
     64 H           1.0589   12.6930   28.0405 H         1 5JZ361      0.0000 
     65 H           6.9072   15.2674   30.4795 H         1 5JZ361      0.0000 
     66 H           6.1406   15.2490   32.0770 H         1 5JZ361      0.0000 
     67 H           4.8474   15.5788   29.6706 H         1 5JZ361      0.0000 
     68 H           4.0899   15.1547   31.2154 H         1 5JZ361      0.0000 
     69 H          -2.0188    9.8075   30.3750 H         1 5JZ361      0.0000 
     70 H          -3.3541    9.0367   31.2484 H         1 5JZ361      0.0000 
     71 H          -1.8263   15.4472   26.8592 H         1 5JZ361      0.0000 
     72 H          -0.8225   14.0828   27.3796 H         1 5JZ361      0.0000 
     73 H          -3.7637    8.4759   26.2027 H         1 5JZ361      0.0000 
     74 H          -4.2011    6.5018   25.4832 H         1 5JZ361      0.0000 
     75 H          -4.7545   10.6900   24.5234 H         1 5JZ361      0.0000 
     76 H          -4.8510    6.1655   22.7880 H         1 5JZ361      0.0000 
     77 H          -4.8608    4.9932   23.8888 H         1 5JZ361      0.0000 
     78 H          -6.1875    5.8645   23.6302 H         1 5JZ361      0.0000 
     79 H           0.5284   16.0298   26.8640 H         1 5JZ361      0.0000 
     80 H           0.8887   14.8557   25.8257 H         1 5JZ361      0.0000 
     81 H          -0.0221   16.0944   25.3544 H         1 5JZ361      0.0000 
     82 H          -1.8937   12.9740   33.2313 H         1 5JZ361      0.0000 
     83 H          -2.7133   14.1458   32.4955 H         1 5JZ361      0.0000 
     84 H          -3.4973   13.0250   33.3412 H         1 5JZ361      0.0000 
     85 H          -0.7770   12.4371   31.1079 H         1 5JZ361      0.0000 
     86 H          -1.6237   12.1050   29.7817 H         1 5JZ361      0.0000 
     87 H          -1.6051   13.6015   30.3701 H         1 5JZ361      0.0000 
@<TRIPOS>BOND
     1   41    1 1    
     2   76    1 1    
     3   77    1 1    
     4   78    1 1    
     5    3    2 ar   
     6    4    2 ar   
     7   50    2 1    
     8    5    3 ar   
     9   51    3 1    
    10   27    4 ar   
    11   52    4 1    
    12   28    5 ar   
    13   53    5 1    
    14   12    6 ar   
    15   22    6 ar   
    16   34    6 1    
    17   11    7 ar   
    18   29    7 ar   
    19   54    7 1    
    20   37    8 2    
    21   43    8 1    
    22   55    8 1    
    23   23    9 1    
    24   27    9 1    
    25   56    9 1    
    26   57    9 1    
    27   11   10 1    
    28   33   10 1    
    29   58   10 1    
    30   59   10 1    
    31   19   11 ar   
    32   20   12 ar   
    33   60   12 1    
    34   15   13 ar   
    35   22   13 ar   
    36   43   13 1    
    37   21   14 ar   
    38   29   14 ar   
    39   48   14 1    
    40   20   15 ar   
    41   37   15 1    
    42   26   16 1    
    43   79   16 1    
    44   80   16 1    
    45   81   16 1    
    46   36   17 1    
    47   82   17 1    
    48   83   17 1    
    49   84   17 1    
    50   36   18 1    
    51   85   18 1    
    52   86   18 1    
    53   87   18 1    
    54   21   19 ar   
    55   61   19 1    
    56   62   20 1    
    57   63   21 1    
    58   64   22 1    
    59   24   23 1    
    60   65   23 1    
    61   66   23 1    
    62   44   24 1    
    63   67   24 1    
    64   68   24 1    
    65   29   25 1    
    66   47   25 1    
    67   69   25 1    
    68   70   25 1    
    69   49   26 1    
    70   71   26 1    
    71   72   26 1    
    72   28   27 ar   
    73   44   28 1    
    74   38   30 ar   
    75   39   30 ar   
    76   42   30 1    
    77   38   31 ar   
    78   40   31 ar   
    79   43   31 1    
    80   39   32 ar   
    81   40   32 ar   
    82   49   32 1    
    83   35   33 1    
    84   42   33 1    
    85   73   33 1    
    86   44   34 am   
    87   45   34 2    
    88   41   35 am   
    89   46   35 2    
    90   47   36 1    
    91   48   36 1    
    92   74   41 1    
    93   75   42 1    
@<TRIPOS>SUBSTRUCTURE
     1 5JZ361      1 GROUP   
@<TRIPOS>SET

