#    Name: 2z3l_PHE_ARG_TYR_LEU_GLY_1_INTS_M
#    Modification time : Tue Mar 25 09:55:07 2014

@<TRIPOS>MOLECULE
2z3l_PHE_ARG_TYR_LEU_GLY_1_INTS_M
   86     0     9     0     0
SMALL
NO_CHARGES


@<TRIPOS>ATOM
      1 O         -43.4160  -45.9840   16.7125 O.2       1 ALC1        0.0000 
      2 O         -44.3520  -44.9470   17.2670 O.2       7 ALL1        0.0000 
      3 O         -42.4800  -47.0210   16.1580 O.2       4 ALP1        0.0000 
      4 CA        -49.3660  -40.8055   15.0340 C.3       3 GLC5        0.0000 
      5 CA        -47.4290  -41.2950   15.9450 C.3       9 GLL5        0.0000 
      6 CA        -51.3030  -40.3160   14.1230 C.3       6 GLP5        0.0000 
      7 O         -41.7310  -45.2135   18.6450 O.2       1 ALC1        0.0000 
      8 O         -42.7810  -45.8390   19.6000 O.2       7 ALL1        0.0000 
      9 O         -40.6810  -44.5880   17.6900 O.2       4 ALP1        0.0000 
     10 CA        -40.0625  -46.8610   18.1850 C.3       3 GLC5        0.0000 
     11 CA        -40.6530  -46.8300   20.2080 C.3       9 GLL5        0.0000 
     12 CA        -39.4720  -46.8920   16.1620 C.3       6 GLP5        0.0000 
     13 CA        -39.3615  -47.1915   22.2625 C.3       3 GLC5        0.0000 
     14 CA        -39.9020  -45.9450   21.1870 C.3       9 GLL5        0.0000 
     15 CA        -38.8210  -48.4380   23.3380 C.3       6 GLP5        0.0000 
     16 CA        -37.2830  -46.2190   19.5580 C.3       3 GLC5        0.0000 
     17 CA        -38.5340  -45.5680   20.6460 C.3       9 GLL5        0.0000 
     18 CA        -36.0320  -46.8700   18.4700 C.3       6 GLP5        0.0000 
     19 CA        -37.6730  -46.4705   21.8725 C.3       3 GLC5        0.0000 
     20 CA        -36.8120  -47.3730   23.0990 C.3       6 GLP5        0.0000 
     21 CA        -38.7885  -45.5040   18.4140 C.3       3 GLC5        0.0000 
     22 CA        -39.0430  -45.4400   16.1820 C.3       6 GLP5        0.0000 
     23 O         -39.6515  -44.4630   18.7775 O.2       1 ALC1        0.0000 
     24 O         -38.6220  -44.3380   19.8650 O.2       7 ALL1        0.0000 
     25 OD1       -38.5080  -40.9085   19.9680 O.co2     2 ASC3        0.0000 
     26 OD1       -38.0800  -43.1810   20.2300 O.co2     8 ASL3        0.0000 
     27 OD1       -38.7710  -39.7090   20.4570 O.co2     5 ASP3        0.0000 
     28 OD1       -38.6500  -41.6540   19.2830 O.co2     2 ASC3        0.0000 
     29 OD1       -39.2200  -40.1270   18.3360 O.co2     5 ASP3        0.0000 
     30 O         -37.2970  -41.0305   18.9280 O.2       1 ALC1        0.0000 
     31 O         -38.2450  -42.1080   19.4790 O.2       7 ALL1        0.0000 
     32 O         -36.3490  -39.9530   18.3770 O.2       4 ALP1        0.0000 
     33 O         -38.5080  -40.9085   19.9680 O.2       1 ALC1        0.0000 
     34 O         -38.7710  -39.7090   20.4570 O.2       4 ALP1        0.0000 
     35 CA        -42.6960  -42.2805   25.5290 C.3       3 GLC5        0.0000 
     36 CA        -42.8650  -43.9690   24.2400 C.3       9 GLL5        0.0000 
     37 CA        -42.5270  -40.5920   26.8180 C.3       6 GLP5        0.0000 
     38 CA        -41.6100  -41.6525   21.4295 C.3       3 GLC5        0.0000 
     39 CA        -40.9020  -42.7140   23.2510 C.3       9 GLL5        0.0000 
     40 CA        -42.3180  -40.5910   19.6080 C.3       6 GLP5        0.0000 
     41 O         -36.2015  -43.1680   23.1685 O.2       1 ALC1        0.0000 
     42 O         -37.3610  -42.5080   24.2300 O.2       7 ALL1        0.0000 
     43 O         -35.0420  -43.8280   22.1070 O.2       4 ALP1        0.0000 
     44 CA        -49.2985  -43.6810   20.8895 C.3       3 GLC5        0.0000 
     45 CA        -48.3800  -45.4650   20.9890 C.3       9 GLL5        0.0000 
     46 CA        -50.2170  -41.8970   20.7900 C.3       6 GLP5        0.0000 
     47 CA        -50.2480  -45.8795   20.8660 C.3       3 GLC5        0.0000 
     48 CA        -52.1160  -46.2940   20.7430 C.3       6 GLP5        0.0000 
     49 CA        -49.2860  -43.3795   22.1060 C.3       3 GLC5        0.0000 
     50 CA        -48.3550  -44.8620   23.4220 C.3       9 GLL5        0.0000 
     51 CA        -45.3137  -42.7380   20.2257 C.3       3 GLC5        0.0000 
     52 CA        -45.9320  -44.0050   18.9330 C.3       9 GLL5        0.0000 
     53 CA        -45.4180  -41.2540   21.6520 C.3       6 GLP5        0.0000 
     54 CA        -45.9417  -41.8135   19.8250 C.3       3 GLC5        0.0000 
     55 CA        -46.4530  -41.6830   18.1030 C.3       9 GLL5        0.0000 
     56 CA        -48.4140  -42.8120   17.6585 C.3       3 GLC5        0.0000 
     57 CA        -46.4780  -43.0630   17.8930 C.3       9 GLL5        0.0000 
     58 CA        -50.0950  -42.3160   18.0250 C.3       6 GLP5        0.0000 
     59 CA        -46.6382  -44.4142   14.8163 C.3       3 GLC5        0.0000 
     60 CA        -46.9880  -43.5530   16.6910 C.3       9 GLL5        0.0000 
     61 CA        -46.0510  -45.7120   13.4280 C.3       6 GLP5        0.0000 
     62 CA        -48.3915  -41.7792   17.8233 C.3       3 GLC5        0.0000 
     63 CA        -48.7705  -42.1518   16.9282 C.3       3 GLC5        0.0000 
     64 CA        -46.8320  -41.8273   13.8562 C.3       3 GLC5        0.0000 
     65 CA        -47.4630  -42.6800   15.7180 C.3       9 GLL5        0.0000 
     66 CA        -46.2180  -41.6670   11.8810 C.3       6 GLP5        0.0000 
     67 CA        -47.2180  -39.1312   16.5583 C.3       3 GLC5        0.0000 
     68 CA        -47.2600  -37.2140   16.5740 C.3       6 GLP5        0.0000 
     69 CA        -40.6257  -48.1120   21.7162 C.3       3 GLC5        0.0000 
     70 CA        -42.1700  -46.8720   20.4130 C.3       9 GLL5        0.0000 
     71 CA        -39.8400  -49.3730   23.1220 C.3       6 GLP5        0.0000 
     72 CA        -43.8890  -43.0955   23.5475 C.3       3 GLC5        0.0000 
     73 CA        -42.9810  -45.4410   23.8520 C.3       9 GLL5        0.0000 
     74 CA        -44.8550  -41.4860   23.0490 C.3       6 GLP5        0.0000 
     75 CA        -41.2415  -42.1875   25.5867 C.3       3 GLC5        0.0000 
     76 CA        -41.4240  -43.5140   24.2660 C.3       9 GLL5        0.0000 
     77 CA        -41.3200  -41.2610   27.4150 C.3       6 GLP5        0.0000 
     78 CA        -43.0090  -42.3000   23.4037 C.3       3 GLC5        0.0000 
     79 CA        -39.4910  -44.8610   26.8702 C.3       3 GLC5        0.0000 
     80 CA        -40.5530  -43.9560   25.2770 C.3       9 GLL5        0.0000 
     81 CA        -39.1070  -45.9350   28.4660 C.3       6 GLP5        0.0000 
     82 CA        -40.3040  -42.2835   26.0886 C.3       3 GLC5        0.0000 
     83 CA        -39.1970  -43.6180   25.2720 C.3       9 GLL5        0.0000 
     84 CA        -45.3481  -41.1337   16.3906 C.3       3 GLC5        0.0000 
     85 CA        -46.9230  -40.8020   17.1400 C.3       9 GLL5        0.0000 
     86 CA        -43.6260  -40.4800   16.0810 C.3       6 GLP5        0.0000 
@<TRIPOS>BOND
@<TRIPOS>SUBSTRUCTURE
     1 ALC1        1 GROUP        1 X    ALC  0     ROOT ALC X 1
     2 ASC3       25 GROUP        1 X    ASC  0     **** ASC X 3
     3 GLC5        4 GROUP        1 X    GLC  0     **** GLC X 6
     4 ALP1        3 GROUP        1 Y    ALP  0     ROOT ALP Y 8
     5 ASP3       27 GROUP        1 Y    ASP  0     **** ASP Y 10
     6 GLP5        6 GROUP        1 Y    GLP  0     **** GLP Y 13
     7 ALL1        2 GROUP        1 Z    ALL  0     ROOT ALL Z 15
     8 ASL3       26 GROUP        1 Z    ASL  0     **** ASL Z 17
     9 GLL5        5 GROUP        1 Z    GLL  0     **** GLL Z 20
@<TRIPOS>SET

