#    Name: 2z3l_PHE_ARG_TYR_LEU_GLY_1_ligand
#    Modification time : Tue Mar 25 09:55:07 2014

@<TRIPOS>MOLECULE
2z3l_PHE_ARG_TYR_LEU_GLY_1_ligand
   95    96     5     0     0
SMALL
NO_CHARGES


@<TRIPOS>ATOM
      1 N         -44.3520  -44.9470   17.2670 N.4       1 PHE301      0.0000
      2 CA        -44.4870  -44.4390   18.6660 C.3       1 PHE301      0.0000
      3 C         -44.0740  -45.5360   19.6380 C.2       1 PHE301      0.0000
      4 O         -44.8900  -46.0760   20.3890 O.2       1 PHE301      0.0000
      5 CB        -45.9320  -44.0050   18.9330 C.3       1 PHE301      0.0000
      6 CG        -46.4780  -43.0630   17.8930 C.ar      1 PHE301      0.0000
      7 CD1       -46.9880  -43.5530   16.6910 C.ar      1 PHE301      0.0000
      8 CD2       -46.4530  -41.6830   18.1030 C.ar      1 PHE301      0.0000
      9 CE1       -47.4630  -42.6800   15.7180 C.ar      1 PHE301      0.0000
     10 CE2       -46.9230  -40.8020   17.1400 C.ar      1 PHE301      0.0000
     11 CZ        -47.4290  -41.2950   15.9450 C.ar      1 PHE301      0.0000
     12 HA        -43.8401  -43.5912   18.8059 H         1 PHE301      0.0000
     13 HB2       -45.9759  -43.5255   19.9246 H         1 PHE301      0.0000
     14 HB3       -46.5646  -44.9064   18.9830 H         1 PHE301      0.0000
     15 HD1       -47.0124  -44.5700   16.5240 H         1 PHE301      0.0000
     16 HD2       -46.0761  -41.3143   18.9948 H         1 PHE301      0.0000
     17 HE1       -47.8382  -43.0413   14.8352 H         1 PHE301      0.0000
     18 HE2       -46.8969  -39.7893   17.3100 H         1 PHE301      0.0000
     19 HZ        -47.7791  -40.6542   15.2247 H         1 PHE301      0.0000
     20 HNCA      -43.6250  -45.6291   17.1881 H         1 PHE301      0.0000
     21 H         -45.1949  -45.3786   16.9457 H         1 PHE301      0.0000
     22 H         -44.1355  -44.2121   16.6243 H         1 PHE301      0.0000
     23 N         -42.7810  -45.8390   19.6000 N.am      2 ARG302      0.0000
     24 CA        -42.1700  -46.8720   20.4130 C.3       2 ARG302      0.0000
     25 C         -42.4950  -46.8050   21.9060 C.2       2 ARG302      0.0000
     26 O         -42.5720  -47.8430   22.5740 O.2       2 ARG302      0.0000
     27 CB        -40.6530  -46.8300   20.2080 C.3       2 ARG302      0.0000
     28 CG        -39.9020  -45.9450   21.1870 C.3       2 ARG302      0.0000
     29 CD        -38.5340  -45.5680   20.6460 C.3       2 ARG302      0.0000
     30 NE        -38.6220  -44.3380   19.8650 N.pl3     2 ARG302      0.0000
     31 CZ        -38.0800  -43.1810   20.2300 C.cat     2 ARG302      0.0000
     32 NH1       -37.3970  -43.0910   21.3600 N.pl3     2 ARG302      0.0000
     33 NH2       -38.2450  -42.1080   19.4790 N.pl3     2 ARG302      0.0000
     34 HNCA      -42.1184  -45.3255   18.9560 H         2 ARG302      0.0000
     35 HA        -42.4931  -47.8673   20.0497 H         2 ARG302      0.0000
     36 HB2       -40.4459  -46.4859   19.1767 H         2 ARG302      0.0000
     37 HB3       -40.2590  -47.8620   20.2773 H         2 ARG302      0.0000
     38 HG2       -39.7820  -46.4751   22.1342 H         2 ARG302      0.0000
     39 HG3       -40.4805  -45.0370   21.3701 H         2 ARG302      0.0000
     40 HD2       -38.1652  -46.3947   20.0298 H         2 ARG302      0.0000
     41 HD3       -37.8492  -45.4440   21.4914 H         2 ARG302      0.0000
     42 HE        -39.1625  -44.4278   18.9594 H         2 ARG302      0.0000
     43 HH11      -37.0614  -42.1801   21.5999 H         2 ARG302      0.0000
     44 HH12      -37.2785  -43.9421   21.8715 H         2 ARG302      0.0000
     45 HH21      -38.8092  -42.2254   18.6618 H         2 ARG302      0.0000
     46 HH22      -37.7908  -41.2753   19.7956 H         2 ARG302      0.0000
     47 N         -42.6960  -45.5980   22.4310 N.am      3 TYR303      0.0000
     48 CA        -42.9810  -45.4410   23.8520 C.3       3 TYR303      0.0000
     49 C         -44.2980  -46.0360   24.3400 C.2       3 TYR303      0.0000
     50 O         -44.6160  -45.9800   25.5310 O.2       3 TYR303      0.0000
     51 CB        -42.8650  -43.9690   24.2400 C.3       3 TYR303      0.0000
     52 CG        -41.4240  -43.5140   24.2660 C.ar      3 TYR303      0.0000
     53 CD1       -40.9020  -42.7140   23.2510 C.ar      3 TYR303      0.0000
     54 CD2       -40.5530  -43.9560   25.2770 C.ar      3 TYR303      0.0000
     55 CE1       -39.5470  -42.3650   23.2390 C.ar      3 TYR303      0.0000
     56 CE2       -39.1970  -43.6180   25.2720 C.ar      3 TYR303      0.0000
     57 CZ        -38.7010  -42.8250   24.2500 C.ar      3 TYR303      0.0000
     58 OH        -37.3610  -42.5080   24.2300 O.3       3 TYR303      0.0000
     59 HNCA      -42.6613  -44.7292   21.8717 H         3 TYR303      0.0000
     60 HA        -42.1635  -45.9576   24.4310 H         3 TYR303      0.0000
     61 HB2       -43.3122  -43.8257   25.2278 H         3 TYR303      0.0000
     62 HB3       -43.4263  -43.3666   23.5201 H         3 TYR303      0.0000
     63 HD1       -41.5203  -42.3737   22.4982 H         3 TYR303      0.0000
     64 HD2       -40.9281  -44.5452   26.0412 H         3 TYR303      0.0000
     65 HE1       -39.1774  -41.7725   22.4886 H         3 TYR303      0.0000
     66 HE2       -38.5824  -43.9549   26.0167 H         3 TYR303      0.0000
     67 HH        -36.9760  -43.0586   23.4893 H         3 TYR303      0.0000
     68 N         -45.0400  -46.6410   23.4190 N.am      4 LEU304      0.0000
     69 CA        -46.3130  -47.2740   23.7440 C.3       4 LEU304      0.0000
     70 C         -46.1550  -48.7930   23.9310 C.2       4 LEU304      0.0000
     71 O         -47.1270  -49.5350   23.8140 O.2       4 LEU304      0.0000
     72 CB        -47.3250  -46.9990   22.6300 C.3       4 LEU304      0.0000
     73 CG        -47.6000  -45.5340   22.2890 C.3       4 LEU304      0.0000
     74 CD1       -48.3800  -45.4650   20.9890 C.3       4 LEU304      0.0000
     75 CD2       -48.3550  -44.8620   23.4220 C.3       4 LEU304      0.0000
     76 HNCA      -44.7516  -46.6948   22.4177 H         4 LEU304      0.0000
     77 HA        -46.7161  -46.8654   24.6635 H         4 LEU304      0.0000
     78 HB2       -48.2908  -47.4875   22.9005 H         4 LEU304      0.0000
     79 HB3       -46.9835  -47.5204   21.7048 H         4 LEU304      0.0000
     80 HG        -46.6506  -45.0361   22.1522 H         4 LEU304      0.0000
     81 HD11      -47.8755  -45.8780   20.2308 H         4 LEU304      0.0000
     82 HD12      -49.2548  -45.9449   21.0549 H         4 LEU304      0.0000
     83 HD13      -48.5823  -44.5214   20.7269 H         4 LEU304      0.0000
     84 HD21      -47.8370  -44.8826   24.2771 H         4 LEU304      0.0000
     85 HD22      -48.5500  -43.9021   23.2204 H         4 LEU304      0.0000
     86 HD23      -49.2321  -45.3082   23.5999 H         4 LEU304      0.0000
     87 N         -44.9350  -49.2480   24.2120 N.am      5 GLY305      0.0000
     88 CA        -44.6960  -50.6720   24.4140 C.3       5 GLY305      0.0000
     89 C         -43.2570  -50.9910   24.8010 C.2       5 GLY305      0.0000
     90 O         -42.7460  -52.0940   24.4490 O.2       5 GLY305      0.0000
     91 OXT       -42.6360  -50.1540   25.4900 O.3       5 GLY305      0.0000
     92 HNCA      -44.1114  -48.6284   24.2997 H         5 GLY305      0.0000
     93 HA2       -44.9366  -51.2413   23.4949 H         5 GLY305      0.0000
     94 HA3       -45.3590  -51.0693   25.2073 H         5 GLY305      0.0000
     95 H         -42.4726  -49.3827   24.8748 H         5 GLY305      0.0000
@<TRIPOS>BOND
     1    2    1 1
     2   20    1 1
     3   21    1 1
     4   22    1 1
     5    3    2 1
     6    5    2 1
     7   12    2 1
     8    4    3 2
     9    6    5 1
    10   13    5 1
    11   14    5 1
    12    7    6 ar
    13    8    6 ar
    14    9    7 ar
    15   15    7 1
    16   10    8 ar
    17   16    8 1
    18   11    9 ar
    19   17    9 1
    20   11   10 ar
    21   18   10 1
    22   19   11 1
    23   24   23 1
    24   34   23 1
    25   25   24 1
    26   27   24 1
    27   35   24 1
    28   26   25 2
    29   28   27 1
    30   36   27 1
    31   37   27 1
    32   29   28 1
    33   38   28 1
    34   39   28 1
    35   30   29 1
    36   40   29 1
    37   41   29 1
    38   31   30 ar
    39   42   30 1
    40   32   31 ar
    41   33   31 ar
    42   43   32 1
    43   44   32 1
    44   45   33 1
    45   46   33 1
    46   48   47 1
    47   59   47 1
    48   49   48 1
    49   51   48 1
    50   60   48 1
    51   50   49 2
    52   52   51 1
    53   61   51 1
    54   62   51 1
    55   53   52 ar
    56   54   52 ar
    57   55   53 ar
    58   63   53 1
    59   56   54 ar
    60   64   54 1
    61   57   55 ar
    62   65   55 1
    63   57   56 ar
    64   66   56 1
    65   58   57 1
    66   67   58 1
    67   69   68 1
    68   76   68 1
    69   70   69 1
    70   72   69 1
    71   77   69 1
    72   71   70 2
    73   73   72 1
    74   78   72 1
    75   79   72 1
    76   74   73 1
    77   75   73 1
    78   80   73 1
    79   81   74 1
    80   82   74 1
    81   83   74 1
    82   84   75 1
    83   85   75 1
    84   86   75 1
    85   88   87 1
    86   92   87 1
    87   89   88 1
    88   93   88 1
    89   94   88 1
    90   90   89 2
    91   91   89 1
    92   95   91 1
    93   23    3 am
    94   47   25 am
    95   68   49 am
    96   87   70 am
@<TRIPOS>SUBSTRUCTURE
     1 PHE301      1 RESIDUE
     2 ARG302     23 RESIDUE
     3 TYR303     47 RESIDUE
     4 LEU304     68 RESIDUE
     5 GLY305     87 RESIDUE
@<TRIPOS>SET

