#    Name: 2vdg_NDP_1_INTS_M
#    Modification time : Tue Mar 25 01:31:54 2014

@<TRIPOS>MOLECULE
2vdg_NDP_1_INTS_M
  118     0    12     0     0
SMALL
NO_CHARGES


@<TRIPOS>ATOM
      1 N          53.1940   51.7350   22.1805 N.am      2 SEC2        0.0000 
      2 N          53.2260   52.8230   21.3410 N.am     10 SEL2        0.0000 
      3 N          53.1620   50.6470   23.0200 N.am      6 SEP2        0.0000 
      4 N          53.5425   53.8305   22.3700 N.am      2 SEC2        0.0000 
      5 N          53.8590   54.8380   23.3990 N.am      6 SEP2        0.0000 
      6 N          53.8215   51.6885   17.6660 N.am      2 SEC2        0.0000 
      7 N          53.6850   52.0420   18.9880 N.am     10 SEL2        0.0000 
      8 N          53.9580   51.3350   16.3440 N.am      6 SEP2        0.0000 
      9 CA         56.5360   52.0135   19.9815 C.3       4 GLC5        0.0000 
     10 CA         56.1430   54.1050   19.3590 C.3      12 GLL5        0.0000 
     11 CA         56.9290   49.9220   20.6040 C.3       8 GLP5        0.0000 
     12 CA         56.1395   54.7340   17.3575 C.3       4 GLC5        0.0000 
     13 CA         56.1360   55.3630   15.3560 C.3       8 GLP5        0.0000 
     14 CA         57.5770   56.0540   21.2570 C.3       4 GLC5        0.0000 
     15 CA         57.4970   54.4990   19.9620 C.3      12 GLL5        0.0000 
     16 CA         57.6570   57.6090   22.5520 C.3       8 GLP5        0.0000 
     17 CA         58.3145   56.8980   20.2520 C.3       4 GLC5        0.0000 
     18 CA         58.3630   55.2000   18.9480 C.3      12 GLL5        0.0000 
     19 CA         58.2660   58.5960   21.5560 C.3       8 GLP5        0.0000 
     20 CA         58.1450   51.5515   20.0655 C.3       4 GLC5        0.0000 
     21 CA         59.3610   53.1810   19.5270 C.3      12 GLL5        0.0000 
     22 N          58.2790   48.8200   17.3800 N.am      2 SEC2        0.0000 
     23 N          59.1300   49.8080   18.2290 N.am     10 SEL2        0.0000 
     24 N          57.4280   47.8320   16.5310 N.am      6 SEP2        0.0000 
     25 CA         59.5205   47.1145   21.1110 C.3       4 GLC5        0.0000 
     26 CA         60.5570   48.4650   19.7660 C.3      12 GLL5        0.0000 
     27 CA         58.4840   45.7640   22.4560 C.3       8 GLP5        0.0000 
     28 O          60.9750   46.0635   19.6755 O.2       1 ALC1        0.0000 
     29 O          60.0970   47.2540   19.4680 O.2       9 ALL1        0.0000 
     30 O          61.8530   44.8730   19.8830 O.2       5 ALP1        0.0000 
     31 O          59.2260   46.6965   18.6185 O.2       1 ALC1        0.0000 
     32 O          58.3550   46.1390   17.7690 O.2       5 ALP1        0.0000 
     33 CA         61.3075   49.7075   23.1770 C.3       4 GLC5        0.0000 
     34 CA         61.5600   49.8150   21.4700 C.3      12 GLL5        0.0000 
     35 CA         61.0550   49.6000   24.8840 C.3       8 GLP5        0.0000 
     36 CA         62.0870   49.9030   19.3205 C.3       4 GLC5        0.0000 
     37 CA         62.6140   49.9910   17.1710 C.3       8 GLP5        0.0000 
     38 N          50.9190   56.1435   20.8220 N.am      2 SEC2        0.0000 
     39 N          51.9700   56.3350   20.0020 N.am     10 SEL2        0.0000 
     40 N          49.8680   55.9520   21.6420 N.am      6 SEP2        0.0000 
     41 N          52.6920   57.0910   20.6590 N.am      2 SEC2        0.0000 
     42 N          53.4140   57.8470   21.3160 N.am      6 SEP2        0.0000 
     43 N          50.0980   53.7930   19.7845 N.am      2 SEC2        0.0000 
     44 N          51.0760   54.3620   18.7950 N.am     10 SEL2        0.0000 
     45 N          49.1200   53.2240   20.7740 N.am      6 SEP2        0.0000 
     46 CA         50.6475   53.4875   19.6660 C.3       4 GLC5        0.0000 
     47 CA         51.0170   53.4900   17.7030 C.3      12 GLL5        0.0000 
     48 CA         50.2780   53.4850   21.6290 C.3       8 GLP5        0.0000 
     49 CA         50.7595   52.1250   19.1050 C.3       4 GLC5        0.0000 
     50 CA         50.5020   50.7600   20.5070 C.3       8 GLP5        0.0000 
     51 CA         48.7605   52.3895   16.6390 C.3       4 GLC5        0.0000 
     52 CA         50.0040   53.9480   16.6590 C.3      12 GLL5        0.0000 
     53 CA         47.5170   50.8310   16.6190 C.3       8 GLP5        0.0000 
     54 N          51.5230   56.2310   14.0225 N.am      2 SEC2        0.0000 
     55 N          51.3060   55.3300   15.1370 N.am     10 SEL2        0.0000 
     56 N          51.7400   57.1320   12.9080 N.am      6 SEP2        0.0000 
     57 CA         48.3300   56.7970   14.1330 C.3       4 GLC5        0.0000 
     58 CA         48.9210   55.5880   15.4170 C.3      12 GLL5        0.0000 
     59 CA         47.7390   58.0060   12.8490 C.3       8 GLP5        0.0000 
     60 N          50.0560   54.6640   13.1825 N.am      2 SEC2        0.0000 
     61 N          48.7970   54.7580   14.2980 N.am     10 SEL2        0.0000 
     62 N          51.3150   54.5700   12.0670 N.am      6 SEP2        0.0000 
     63 O          47.5450   54.4415   13.9065 O.2       1 ALC1        0.0000 
     64 O          48.7970   54.7580   14.2980 O.2       9 ALL1        0.0000 
     65 O          46.2930   54.1250   13.5150 O.2       5 ALP1        0.0000 
     66 CA         47.1385   54.2795   17.9795 C.3       4 GLC5        0.0000 
     67 CA         47.9900   55.0320   16.4810 C.3      12 GLL5        0.0000 
     68 CA         46.2870   53.5270   19.4780 C.3       8 GLP5        0.0000 
     69 CA         44.8650   56.4000   15.7775 C.3       4 GLC5        0.0000 
     70 CA         46.2300   56.5000   17.2710 C.3      12 GLL5        0.0000 
     71 CA         43.5000   56.3000   14.2840 C.3       8 GLP5        0.0000 
     72 N          42.8315   59.2380   19.2660 N.am      2 SEC2        0.0000 
     73 N          44.0310   59.1540   18.4850 N.am     10 SEL2        0.0000 
     74 N          41.6320   59.3220   20.0470 N.am      6 SEP2        0.0000 
     75 O          43.6780   55.7805   17.1685 O.2       1 ALC1        0.0000 
     76 O          43.3610   57.1640   17.4460 O.2       9 ALL1        0.0000 
     77 O          43.9950   54.3970   16.8910 O.2       5 ALP1        0.0000 
     78 CA         47.3510   55.1625   18.8170 C.3       4 GLC5        0.0000 
     79 CA         48.4150   56.7980   18.1560 C.3      12 GLL5        0.0000 
     80 NZ         59.0290   55.7535   15.1205 N.4       3 LYC4        0.0000 
     81 NZ         59.8950   54.7240   15.3500 N.4      11 LYL4        0.0000 
     82 NZ         58.1630   56.7830   14.8910 N.4       7 LYP4        0.0000 
     83 N          59.0290   55.7535   15.1205 N.am      2 SEC2        0.0000 
     84 N          59.8950   54.7240   15.3500 N.am     10 SEL2        0.0000 
     85 N          58.1630   56.7830   14.8910 N.am      6 SEP2        0.0000 
     86 N          59.7020   54.1245   14.0580 N.am      2 SEC2        0.0000 
     87 N          59.5090   53.5250   12.7660 N.am      6 SEP2        0.0000 
     88 NZ         63.5190   54.6785   16.5485 N.4       3 LYC4        0.0000 
     89 NZ         62.1910   55.0070   16.2980 N.4      11 LYL4        0.0000 
     90 NZ         64.8470   54.3500   16.7990 N.4       7 LYP4        0.0000 
     91 N          63.5190   54.6785   16.5485 N.am      2 SEC2        0.0000 
     92 N          62.1910   55.0070   16.2980 N.am     10 SEL2        0.0000 
     93 N          64.8470   54.3500   16.7990 N.am      6 SEP2        0.0000 
     94 N          60.7745   52.0340   15.3425 N.am      2 SEC2        0.0000 
     95 N          61.1300   52.7660   16.1760 N.am     10 SEL2        0.0000 
     96 N          60.4190   51.3020   14.5090 N.am      6 SEP2        0.0000 
     97 N          62.1410   52.5665   17.3440 N.am      2 SEC2        0.0000 
     98 N          63.1520   52.3670   18.5120 N.am      6 SEP2        0.0000 
     99 CA         55.5395   55.0910   21.0602 C.3       4 GLC5        0.0000 
    100 CA         54.2590   55.8800   22.4600 C.3       8 GLP5        0.0000 
    101 CA         57.4382   54.9965   16.9925 C.3       4 GLC5        0.0000 
    102 CA         58.5575   49.9301   20.1538 C.3       4 GLC5        0.0000 
    103 CA         59.9370   49.6160   19.2720 C.3      12 GLL5        0.0000 
    104 CA         61.4000   49.9646   18.4372 C.3       4 GLC5        0.0000 
    105 CA         50.7737   53.1070   15.2560 C.3       4 GLC5        0.0000 
    106 CA         51.0370   52.4950   13.3310 C.3       8 GLP5        0.0000 
    107 CA         50.3125   53.9740   14.5337 C.3       4 GLC5        0.0000 
    108 CA         50.2550   55.3180   16.0560 C.3      12 GLL5        0.0000 
    109 CA         50.2310   57.0345   15.1777 C.3       4 GLC5        0.0000 
    110 CA         50.8740   58.6160   14.6190 C.3       8 GLP5        0.0000 
    111 CA         52.2679   54.0978   16.1358 C.3       4 GLC5        0.0000 
    112 CA         54.1530   53.6770   15.6530 C.3       8 GLP5        0.0000 
    113 CA         47.5153   53.6205   16.0265 C.3       4 GLC5        0.0000 
    114 CA         46.5750   51.9310   16.1040 C.3       8 GLP5        0.0000 
    115 CA         46.1448   55.2805   18.5490 C.3       4 GLC5        0.0000 
    116 CA         47.2625   59.2440   20.1470 C.3       4 GLC5        0.0000 
    117 CA         46.6450   58.4100   18.8710 C.3      12 GLL5        0.0000 
    118 CA         47.1750   60.3300   21.4110 C.3       8 GLP5        0.0000 
@<TRIPOS>BOND
@<TRIPOS>SUBSTRUCTURE
     1 ALC1       28 GROUP        1 X    ALC  0     ROOT ALC X 1
     2 SEC2        1 GROUP        1 X    SEC  0     **** SEC X 2
     3 LYC4       80 GROUP        1 X    LYC  0     **** LYC X 4
     4 GLC5        9 GROUP        1 X    GLC  0     **** GLC X 6
     5 ALP1       30 GROUP        1 Y    ALP  0     ROOT ALP Y 8
     6 SEP2        3 GROUP        1 Y    SEP  0     **** SEP Y 9
     7 LYP4       82 GROUP        1 Y    LYP  0     **** LYP Y 11
     8 GLP5       11 GROUP        1 Y    GLP  0     **** GLP Y 13
     9 ALL1       29 GROUP        1 Z    ALL  0     ROOT ALL Z 15
    10 SEL2        2 GROUP        1 Z    SEL  0     **** SEL Z 16
    11 LYL4       81 GROUP        1 Z    LYL  0     **** LYL Z 18
    12 GLL5       10 GROUP        1 Z    GLL  0     **** GLL Z 20
@<TRIPOS>SET

