#    Name: 2vdg_NDP_1_ligand
#    Modification time : Tue Mar 25 01:31:54 2014

@<TRIPOS>MOLECULE
2vdg_NDP_1_ligand
   74    78     1     0     0
SMALL
NO_CHARGES


@<TRIPOS>ATOM
      1 PA         53.8150   53.0730   20.0020 P.3       1 NDP1321     0.0000 
      2 O1A        53.2260   52.8230   21.3410 O.co2     1 NDP1321     0.0000 
      3 O2A        53.6850   52.0420   18.9880 O.co2     1 NDP1321     0.0000 
      4 O5B        55.4010   53.3430   20.2790 O.3       1 NDP1321     0.0000 
      5 C5B        56.1430   54.1050   19.3590 C.3       1 NDP1321     0.0000 
      6 C4B        57.4970   54.4990   19.9620 C.3       1 NDP1321     0.0000 
      7 O4B        58.2530   53.3940   20.3820 O.3       1 NDP1321     0.0000 
      8 C3B        58.3630   55.2000   18.9480 C.3       1 NDP1321     0.0000 
      9 O3B        59.1860   56.0330   19.7460 O.3       1 NDP1321     0.0000 
     10 C2B        59.1180   54.0600   18.3100 C.3       1 NDP1321     0.0000 
     11 O2B        60.3300   54.5360   17.8480 O.3       1 NDP1321     0.0000 
     12 C1B        59.3610   53.1810   19.5270 C.3       1 NDP1321     0.0000 
     13 N9A        59.4350   51.7540   19.1970 N.pl3     1 NDP1321     0.0000 
     14 C8A        58.8130   51.1080   18.1590 C.2       1 NDP1321     0.0000 
     15 N7A        59.1300   49.8080   18.2290 N.2       1 NDP1321     0.0000 
     16 C5A        59.9370   49.6160   19.2720 C.ar      1 NDP1321     0.0000 
     17 C6A        60.5570   48.4650   19.7660 C.ar      1 NDP1321     0.0000 
     18 N6A        60.0970   47.2540   19.4680 N.pl3     1 NDP1321     0.0000 
     19 N1A        61.3650   48.5890   20.8680 N.ar      1 NDP1321     0.0000 
     20 C2A        61.5600   49.8150   21.4700 C.ar      1 NDP1321     0.0000 
     21 N3A        60.9310   50.9560   20.9620 N.ar      1 NDP1321     0.0000 
     22 C4A        60.1250   50.8360   19.8880 C.ar      1 NDP1321     0.0000 
     23 O3         53.5520   54.5060   19.3210 O.3       1 NDP1321     0.0000 
     24 PN         52.2830   55.3770   18.8970 P.3       1 NDP1321     0.0000 
     25 O1N        52.6190   55.8550   17.5210 O.co2     1 NDP1321     0.0000 
     26 O2N        51.9700   56.3350   20.0020 O.co2     1 NDP1321     0.0000 
     27 O5D        51.0760   54.3620   18.7950 O.3       1 NDP1321     0.0000 
     28 C5D        51.0170   53.4900   17.7030 C.3       1 NDP1321     0.0000 
     29 C4D        50.0040   53.9480   16.6590 C.3       1 NDP1321     0.0000 
     30 O4D        48.7100   54.0370   17.1990 O.3       1 NDP1321     0.0000 
     31 C3D        50.2550   55.3180   16.0560 C.3       1 NDP1321     0.0000 
     32 O3D        51.3060   55.3300   15.1370 O.3       1 NDP1321     0.0000 
     33 C2D        48.9210   55.5880   15.4170 C.3       1 NDP1321     0.0000 
     34 O2D        48.7970   54.7580   14.2980 O.3       1 NDP1321     0.0000 
     35 C1D        47.9900   55.0320   16.4810 C.3       1 NDP1321     0.0000 
     36 N1N        47.5410   56.1070   17.3690 N.pl3     1 NDP1321     0.0000 
     37 C2N        46.2300   56.5000   17.2710 C.2       1 NDP1321     0.0000 
     38 C3N        45.7750   57.5680   17.9690 C.2       1 NDP1321     0.0000 
     39 C7N        44.3300   57.9440   17.9150 C.2       1 NDP1321     0.0000 
     40 O7N        44.0310   59.1540   18.4850 O.2       1 NDP1321     0.0000 
     41 N7N        43.3610   57.1640   17.4460 N.am      1 NDP1321     0.0000 
     42 C4N        46.6450   58.4100   18.8710 C.3       1 NDP1321     0.0000 
     43 C5N        48.0550   57.9060   18.8950 C.2       1 NDP1321     0.0000 
     44 C6N        48.4150   56.7980   18.1560 C.2       1 NDP1321     0.0000 
     45 P2B        60.8920   54.2550   16.3600 P.3       1 NDP1321     0.0000 
     46 O1X        59.8950   54.7240   15.3500 O.co2     1 NDP1321     0.0000 
     47 O2X        62.1910   55.0070   16.2980 O.co2     1 NDP1321     0.0000 
     48 O3X        61.1300   52.7660   16.1760 O.co2     1 NDP1321     0.0000 
     49 H          55.6289   55.0368   19.0769 H         1 NDP1321     0.0000 
     50 H          56.3491   53.5531   18.4289 H         1 NDP1321     0.0000 
     51 H          57.3262   55.1900   20.7774 H         1 NDP1321     0.0000 
     52 H          57.7642   55.6877   18.2712 H         1 NDP1321     0.0000 
     53 H          58.5146   53.5688   17.6434 H         1 NDP1321     0.0000 
     54 H          60.2680   53.5093   20.0009 H         1 NDP1321     0.0000 
     55 H          58.2508   51.5313   17.5045 H         1 NDP1321     0.0000 
     56 H          60.6003   46.4836   19.8593 H         1 NDP1321     0.0000 
     57 H          59.2892   47.2227   18.8794 H         1 NDP1321     0.0000 
     58 H          62.1692   49.8989   22.2965 H         1 NDP1321     0.0000 
     59 H          50.7319   52.4607   18.0045 H         1 NDP1321     0.0000 
     60 H          51.9960   53.3969   17.1887 H         1 NDP1321     0.0000 
     61 H          50.0034   53.2282   15.8314 H         1 NDP1321     0.0000 
     62 H          50.3646   56.0057   16.8718 H         1 NDP1321     0.0000 
     63 H          48.7645   56.5761   15.2890 H         1 NDP1321     0.0000 
     64 H          47.1419   54.5952   15.9700 H         1 NDP1321     0.0000 
     65 H          45.5842   55.9665   16.6514 H         1 NDP1321     0.0000 
     66 H          43.6452   56.2714   17.0961 H         1 NDP1321     0.0000 
     67 H          42.4353   57.5403   17.4855 H         1 NDP1321     0.0000 
     68 H          46.2311   58.3951   19.8862 H         1 NDP1321     0.0000 
     69 H          46.6307   59.4479   18.5180 H         1 NDP1321     0.0000 
     70 H          48.7133   58.4195   19.4760 H         1 NDP1321     0.0000 
     71 H          49.4200   56.4734   18.2065 H         1 NDP1321     0.0000 
     72 H          60.0875   55.9955   19.3148 H         1 NDP1321     0.0000 
     73 H          52.1274   55.4870   15.6854 H         1 NDP1321     0.0000 
     74 H          47.8120   54.6459   14.1670 H         1 NDP1321     0.0000 
@<TRIPOS>BOND
     1    2    1 ar   
     2    3    1 ar   
     3    4    1 1    
     4   23    1 1    
     5    5    4 1    
     6    6    5 1    
     7   49    5 1    
     8   50    5 1    
     9    7    6 1    
    10    8    6 1    
    11   51    6 1    
    12   12    7 1    
    13    9    8 1    
    14   10    8 1    
    15   52    8 1    
    16   72    9 1    
    17   11   10 1    
    18   12   10 1    
    19   53   10 1    
    20   45   11 1    
    21   13   12 1    
    22   54   12 1    
    23   14   13 1    
    24   22   13 1    
    25   15   14 2    
    26   55   14 1    
    27   16   15 1    
    28   17   16 ar   
    29   22   16 ar   
    30   18   17 1    
    31   19   17 ar   
    32   56   18 1    
    33   57   18 1    
    34   20   19 ar   
    35   21   20 ar   
    36   58   20 1    
    37   22   21 ar   
    38   24   23 1    
    39   25   24 ar   
    40   26   24 ar   
    41   27   24 1    
    42   28   27 1    
    43   29   28 1    
    44   59   28 1    
    45   60   28 1    
    46   30   29 1    
    47   31   29 1    
    48   61   29 1    
    49   35   30 1    
    50   32   31 1    
    51   33   31 1    
    52   62   31 1    
    53   73   32 1    
    54   34   33 1    
    55   35   33 1    
    56   63   33 1    
    57   74   34 1    
    58   36   35 1    
    59   64   35 1    
    60   37   36 1    
    61   44   36 1    
    62   38   37 2    
    63   65   37 1    
    64   39   38 1    
    65   42   38 1    
    66   40   39 2    
    67   41   39 am   
    68   66   41 1    
    69   67   41 1    
    70   43   42 1    
    71   68   42 1    
    72   69   42 1    
    73   44   43 2    
    74   70   43 1    
    75   71   44 1    
    76   46   45 ar   
    77   47   45 ar   
    78   48   45 ar   
@<TRIPOS>SUBSTRUCTURE
     1 NDP1321     1 GROUP   
@<TRIPOS>SET

