#    Name: 2o1y_43B_1_INTS_M
#    Modification time : Tue Mar 25 21:52:26 2014

@<TRIPOS>MOLECULE
2o1y_43B_1_INTS_M
   73     0     3     0     0
SMALL
NO_CHARGES


@<TRIPOS>ATOM
      1 CA         -3.3240   -0.9770    8.9605 C.3       1 GLC5        0.0000 
      2 CA         -2.3190   -1.8310    9.9700 C.3       3 GLL5        0.0000 
      3 CA         -4.3290   -0.1230    7.9510 C.3       2 GLP5        0.0000 
      4 CA         -1.3320    3.2165    6.9275 C.3       1 GLC5        0.0000 
      5 CA          0.0850    1.9640    7.9480 C.3       3 GLL5        0.0000 
      6 CA         -2.7490    4.4690    5.9070 C.3       2 GLP5        0.0000 
      7 CA          5.6410   11.1970   -0.3870 C.3       1 GLC5        0.0000 
      8 CA          7.1010    9.6970   -0.2150 C.3       3 GLL5        0.0000 
      9 CA          4.1810   12.6970   -0.5590 C.3       2 GLP5        0.0000 
     10 CA          8.4825    7.3800   -0.4375 C.3       1 GLC5        0.0000 
     11 CA          7.0610    7.2600    1.1290 C.3       3 GLL5        0.0000 
     12 CA          9.9040    7.5000   -2.0040 C.3       2 GLP5        0.0000 
     13 CA          8.5715    6.7785    1.4385 C.3       1 GLC5        0.0000 
     14 CA         10.0820    6.2970    1.7480 C.3       2 GLP5        0.0000 
     15 CA          5.7700    4.8285    0.9780 C.3       1 GLC5        0.0000 
     16 CA          4.8130    6.0980    2.2220 C.3       3 GLL5        0.0000 
     17 CA          6.7270    3.5590   -0.2660 C.3       2 GLP5        0.0000 
     18 CA         -1.4865   -6.7580    8.8955 C.3       1 GLC5        0.0000 
     19 CA         -2.7050   -5.0860    8.9780 C.3       3 GLL5        0.0000 
     20 CA         -0.2680   -8.4300    8.8130 C.3       2 GLP5        0.0000 
     21 CA         -2.3115   -7.5135    8.1280 C.3       1 GLC5        0.0000 
     22 CA         -3.5940   -6.1110    8.6650 C.3       3 GLL5        0.0000 
     23 CA         -1.0290   -8.9160    7.5910 C.3       2 GLP5        0.0000 
     24 CA         -4.7015   -6.6690    7.3005 C.3       1 GLC5        0.0000 
     25 CA         -5.8090   -7.2270    5.9360 C.3       2 GLP5        0.0000 
     26 CA         -1.0387   -3.3805    8.7490 C.3       1 GLC5        0.0000 
     27 CA         -1.8900   -3.2130   10.4900 C.3       3 GLL5        0.0000 
     28 CA          0.0270   -4.2390    7.2680 C.3       2 GLP5        0.0000 
     29 CA         -4.2372   -2.7565   10.3975 C.3       1 GLC5        0.0000 
     30 CA         -6.3700   -2.9910   10.5650 C.3       2 GLP5        0.0000 
     31 CA          0.3435   -2.6380    7.9692 C.3       1 GLC5        0.0000 
     32 CA          0.4220   -1.7890    8.9870 C.3       3 GLL5        0.0000 
     33 CA         -0.7335    0.4625    7.0983 C.3       1 GLC5        0.0000 
     34 CA          0.8980   -0.2850    8.3540 C.3       3 GLL5        0.0000 
     35 CA         -1.8430    0.7400    5.8020 C.3       2 GLP5        0.0000 
     36 CA         -0.5637    1.4412    6.7357 C.3       1 GLC5        0.0000 
     37 CA          3.9853    0.4315    7.4158 C.3       1 GLC5        0.0000 
     38 CA          2.3500    1.3110    7.3470 C.3       3 GLL5        0.0000 
     39 CA          5.7220    0.1970    7.2490 C.3       2 GLP5        0.0000 
     40 CA         -0.9513    5.3187    7.0462 C.3       1 GLC5        0.0000 
     41 CA          0.7540    4.7110    7.1510 C.3       3 GLL5        0.0000 
     42 CA         -2.8020    5.2910    7.1850 C.3       2 GLP5        0.0000 
     43 CA          2.0230    3.8068    4.1448 C.3       1 GLC5        0.0000 
     44 CA          2.7650    3.8680    6.1310 C.3       3 GLL5        0.0000 
     45 CA          1.1370    3.1130    2.4000 C.3       2 GLP5        0.0000 
     46 CA          1.5948    9.1965    2.2060 C.3       1 GLC5        0.0000 
     47 CA          3.2500   10.1070    3.4290 C.3       3 GLL5        0.0000 
     48 CA          0.0270    8.3030    2.5050 C.3       2 GLP5        0.0000 
     49 CA          8.6007    8.2317   -1.1430 C.3       1 GLC5        0.0000 
     50 CA          8.8182    8.3788    0.7660 C.3       1 GLC5        0.0000 
     51 CA          7.4940    8.2300   -0.3490 C.3       3 GLL5        0.0000 
     52 CA         10.3390    7.7940    1.8140 C.3       2 GLP5        0.0000 
     53 CA          6.4755    5.2775    0.4290 C.3       1 GLC5        0.0000 
     54 CA          4.2000    4.4733    0.4968 C.3       1 GLC5        0.0000 
     55 CA          3.4810    5.7010    2.1660 C.3       3 GLL5        0.0000 
     56 CA          5.2960    3.1300   -0.5980 C.3       2 GLP5        0.0000 
     57 CA          1.5655    7.0598    2.0482 C.3       1 GLC5        0.0000 
     58 CA          2.7270    5.9320    1.0170 C.3       3 GLL5        0.0000 
     59 CA          2.1205    4.4648    1.9957 C.3       1 GLC5        0.0000 
     60 CA          1.7675    6.0077   -0.8635 C.3       1 GLC5        0.0000 
     61 CA          0.5160    5.7650   -2.1940 C.3       2 GLP5        0.0000 
     62 CA          3.6972    7.1452   -2.1723 C.3       1 GLC5        0.0000 
     63 CA          3.3110    6.5690   -0.0830 C.3       3 GLL5        0.0000 
     64 CA          3.4160    7.5200   -4.2860 C.3       2 GLP5        0.0000 
     65 CA          4.6372    4.9503   -0.3282 C.3       1 GLC5        0.0000 
     66 CA         -5.7545   -6.1660    8.4060 C.3       1 GLC5        0.0000 
     67 CA         -4.6550   -6.3970    9.5200 C.3       3 GLL5        0.0000 
     68 CA         -6.7670   -6.3030    6.7080 C.3       2 GLP5        0.0000 
     69 CA         -5.5560   -4.5100   10.3345 C.3       1 GLC5        0.0000 
     70 CA         -4.8878   -3.7392   10.5705 C.3       1 GLC5        0.0000 
     71 CA         -3.9400   -4.6350   11.0030 C.3       3 GLL5        0.0000 
     72 CA         -1.5820   -4.8255    8.1911 C.3       1 GLC5        0.0000 
     73 CA         -2.8710   -4.3400   10.1490 C.3       3 GLL5        0.0000 
@<TRIPOS>BOND
@<TRIPOS>SUBSTRUCTURE
     1 GLC5        1 GROUP        1 X    GLC  0     ROOT GLC X 6
     2 GLP5        3 GROUP        1 Y    GLP  0     ROOT GLP Y 13
     3 GLL5        2 GROUP        1 Z    GLL  0     ROOT GLL Z 20
@<TRIPOS>SET

