#    Name: 2o1y_43B_1_ligand
#    Modification time : Tue Mar 25 21:52:26 2014

@<TRIPOS>MOLECULE
2o1y_43B_1_ligand
   78    83     1     0     0
SMALL
NO_CHARGES


@<TRIPOS>ATOM
      1 C8         -1.8900   -3.2130   10.4900 C.3       1 43B1000     0.0000 
      2 C9         -2.3190   -1.8310    9.9700 C.3       1 43B1000     0.0000 
      3 C10        -1.1880   -1.0650    9.3340 C.2       1 43B1000     0.0000 
      4 S11         0.4220   -1.7890    8.9870 S.3       1 43B1000     0.0000 
      5 C12         0.8980   -0.2850    8.3540 C.ar      1 43B1000     0.0000 
      6 C13        -0.1460    0.6550    8.4350 C.ar      1 43B1000     0.0000 
      7 N14        -1.3200    0.1620    9.0020 N.2       1 43B1000     0.0000 
      8 C15         0.0850    1.9640    7.9480 C.ar      1 43B1000     0.0000 
      9 C16         1.3460    2.3210    7.3910 C.ar      1 43B1000     0.0000 
     10 C17         2.3500    1.3110    7.3470 C.ar      1 43B1000     0.0000 
     11 C18         2.1470    0.0210    7.8180 C.ar      1 43B1000     0.0000 
     12 C19         1.6100    3.6120    6.9000 C.ar      1 43B1000     0.0000 
     13 C20         0.7540    4.7110    7.1510 C.ar      1 43B1000     0.0000 
     14 C21         1.0450    5.9820    6.6640 C.ar      1 43B1000     0.0000 
     15 C22         2.2040    6.2120    5.9020 C.ar      1 43B1000     0.0000 
     16 C23         3.0530    5.1330    5.6480 C.ar      1 43B1000     0.0000 
     17 C24         2.7650    3.8680    6.1310 C.ar      1 43B1000     0.0000 
     18 C25         2.6140    7.5610    5.3240 C.2       1 43B1000     0.0000 
     19 N26         1.8680    8.6500    5.5120 N.am      1 43B1000     0.0000 
     20 S27         2.2710   10.1840    4.8930 S.o2      1 43B1000     0.0000 
     21 C28         3.2500   10.1070    3.4290 C.ar      1 43B1000     0.0000 
     22 O29         3.6390    7.7030    4.6670 O.2       1 43B1000     0.0000 
     23 O30         0.8460   10.8080    4.6040 O.2       1 43B1000     0.0000 
     24 O31         2.9800   11.0030    6.0570 O.2       1 43B1000     0.0000 
     25 C32         2.6280   10.1450    2.1870 C.ar      1 43B1000     0.0000 
     26 C33         3.3860   10.0540    1.0060 C.ar      1 43B1000     0.0000 
     27 C34         4.8030    9.9270    1.1110 C.ar      1 43B1000     0.0000 
     28 C35         5.3970    9.9010    2.3810 C.ar      1 43B1000     0.0000 
     29 C36         4.6280    9.9940    3.5340 C.ar      1 43B1000     0.0000 
     30 N37         2.6050   10.0970   -0.2990 N.pl3     1 43B1000     0.0000 
     31 O38         1.3870   10.2050   -0.3190 O.2       1 43B1000     0.0000 
     32 O39         3.1630   10.0240   -1.3830 O.2       1 43B1000     0.0000 
     33 N40         5.6430    9.8290   -0.0860 N.pl3     1 43B1000     0.0000 
     34 C41         7.1010    9.6970   -0.2150 C.3       1 43B1000     0.0000 
     35 C42         7.4940    8.2300   -0.3490 C.3       1 43B1000     0.0000 
     36 S43         7.0610    7.2600    1.1290 S.3       1 43B1000     0.0000 
     37 C44         5.3870    6.7320    1.1190 C.ar      1 43B1000     0.0000 
     38 C45         4.8130    6.0980    2.2220 C.ar      1 43B1000     0.0000 
     39 C46         3.4810    5.7010    2.1660 C.ar      1 43B1000     0.0000 
     40 C47         2.7270    5.9320    1.0170 C.ar      1 43B1000     0.0000 
     41 C48         3.3110    6.5690   -0.0830 C.ar      1 43B1000     0.0000 
     42 C49         4.6460    6.9720   -0.0340 C.ar      1 43B1000     0.0000 
     43 C1         -4.6550   -6.3970    9.5200 C.ar      1 43B1000     0.0000 
     44 C2         -4.8290   -5.6610   10.6880 C.ar      1 43B1000     0.0000 
     45 C3         -3.9400   -4.6350   11.0030 C.ar      1 43B1000     0.0000 
     46 C4         -2.8710   -4.3400   10.1490 C.ar      1 43B1000     0.0000 
     47 C5         -2.7050   -5.0860    8.9780 C.ar      1 43B1000     0.0000 
     48 C6         -3.5940   -6.1110    8.6650 C.ar      1 43B1000     0.0000 
     49 H          -1.7730   -3.1592   11.5835 H         1 43B1000     0.0000 
     50 H          -0.9026   -3.4588   10.0694 H         1 43B1000     0.0000 
     51 H          -2.7297   -1.2546   10.8112 H         1 43B1000     0.0000 
     52 H          -3.1289   -1.9698    9.2398 H         1 43B1000     0.0000 
     53 H          -0.6603    2.6642    7.9951 H         1 43B1000     0.0000 
     54 H           3.2766    1.5681    6.9386 H         1 43B1000     0.0000 
     55 H           2.8805   -0.6757    7.7745 H         1 43B1000     0.0000 
     56 H          -0.1025    4.5560    7.7086 H         1 43B1000     0.0000 
     57 H           0.4074    6.7677    6.8609 H         1 43B1000     0.0000 
     58 H           3.9111    5.2869    5.0885 H         1 43B1000     0.0000 
     59 H           3.4089    3.0791    5.9282 H         1 43B1000     0.0000 
     60 H           0.9864    8.7209    6.0306 H         1 43B1000     0.0000 
     61 H           1.6050   10.2403    2.1231 H         1 43B1000     0.0000 
     62 H           6.4246    9.8110    2.4543 H         1 43B1000     0.0000 
     63 H           5.0774    9.9791    4.4561 H         1 43B1000     0.0000 
     64 H           5.1064    9.8584   -1.0232 H         1 43B1000     0.0000 
     65 H           7.6051   10.1115    0.6634 H         1 43B1000     0.0000 
     66 H           7.4603   10.2336   -1.0984 H         1 43B1000     0.0000 
     67 H           8.5512    8.0719   -0.4207 H         1 43B1000     0.0000 
     68 H           6.9646    7.7110   -1.1224 H         1 43B1000     0.0000 
     69 H           5.3693    5.9276    3.0640 H         1 43B1000     0.0000 
     70 H           3.0494    5.2346    2.9760 H         1 43B1000     0.0000 
     71 H           1.7459    5.6365    0.9756 H         1 43B1000     0.0000 
     72 H           2.7537    6.7400   -0.9293 H         1 43B1000     0.0000 
     73 H           5.0732    7.4382   -0.8371 H         1 43B1000     0.0000 
     74 H          -5.3115   -7.1542    9.2874 H         1 43B1000     0.0000 
     75 H          -5.6120   -5.8730   11.3184 H         1 43B1000     0.0000 
     76 H          -4.0677   -4.0907   11.8661 H         1 43B1000     0.0000 
     77 H          -1.9209   -4.8744    8.3459 H         1 43B1000     0.0000 
     78 H          -3.4670   -6.6561    7.8033 H         1 43B1000     0.0000 
@<TRIPOS>BOND
     1    2    1 1    
     2   46    1 1    
     3   49    1 1    
     4   50    1 1    
     5    3    2 1    
     6   51    2 1    
     7   52    2 1    
     8    4    3 1    
     9    7    3 2    
    10    5    4 1    
    11    6    5 ar   
    12   11    5 ar   
    13    7    6 1    
    14    8    6 ar   
    15    9    8 ar   
    16   53    8 1    
    17   10    9 ar   
    18   12    9 1    
    19   11   10 ar   
    20   54   10 1    
    21   55   11 1    
    22   13   12 ar   
    23   17   12 ar   
    24   14   13 ar   
    25   56   13 1    
    26   15   14 ar   
    27   57   14 1    
    28   16   15 ar   
    29   18   15 1    
    30   17   16 ar   
    31   58   16 1    
    32   59   17 1    
    33   19   18 am   
    34   22   18 2    
    35   20   19 1    
    36   60   19 1    
    37   21   20 1    
    38   23   20 2    
    39   24   20 2    
    40   25   21 ar   
    41   29   21 ar   
    42   26   25 ar   
    43   61   25 1    
    44   27   26 ar   
    45   30   26 1    
    46   28   27 ar   
    47   33   27 1    
    48   29   28 ar   
    49   62   28 1    
    50   63   29 1    
    51   31   30 2    
    52   32   30 2    
    53   34   33 1    
    54   64   33 1    
    55   35   34 1    
    56   65   34 1    
    57   66   34 1    
    58   36   35 1    
    59   67   35 1    
    60   68   35 1    
    61   37   36 1    
    62   38   37 ar   
    63   42   37 ar   
    64   39   38 ar   
    65   69   38 1    
    66   40   39 ar   
    67   70   39 1    
    68   41   40 ar   
    69   71   40 1    
    70   42   41 ar   
    71   72   41 1    
    72   73   42 1    
    73   44   43 ar   
    74   48   43 ar   
    75   74   43 1    
    76   45   44 ar   
    77   75   44 1    
    78   46   45 ar   
    79   76   45 1    
    80   47   46 ar   
    81   48   47 ar   
    82   77   47 1    
    83   78   48 1    
@<TRIPOS>SUBSTRUCTURE
     1 43B1000     1 GROUP   
@<TRIPOS>SET

