#    Name: 4b52_RDF_1_INTS_M
#    Modification time : Tue Mar 25 06:42:16 2014

@<TRIPOS>MOLECULE
4b52_RDF_1_INTS_M
   69     0    12     0     0
SMALL
NO_CHARGES


@<TRIPOS>ATOM
      1 CA         -2.2000   22.1180   45.0690 C.3       4 GLC5        0.0000 
      2 CA         -0.7630   20.7570   45.4150 C.3      12 GLL5        0.0000 
      3 CA         -3.6370   23.4790   44.7230 C.3       8 GLP5        0.0000 
      4 O           1.4165   21.5235   42.0190 O.2       1 ALC1        0.0000 
      5 O           0.7250   21.2300   43.5670 O.2       9 ALL1        0.0000 
      6 O           2.1080   21.8170   40.4710 O.2       5 ALP1        0.0000 
      7 CA         -4.7125   18.4905   42.4530 C.3       4 GLC5        0.0000 
      8 CA         -3.8420   20.1440   43.2100 C.3      12 GLL5        0.0000 
      9 CA         -5.5830   16.8370   41.6960 C.3       8 GLP5        0.0000 
     10 CA         -5.2050   21.6175   42.6310 C.3       4 GLC5        0.0000 
     11 CA         -6.5680   23.0910   42.0520 C.3       8 GLP5        0.0000 
     12 Zn         -4.1065   20.2935   47.5740 Zn        3 ZIC7        0.0000 
     13 Zn         -3.3520   20.8680   47.2730 Zn       11 ZIL7        0.0000 
     14 Zn         -4.8610   19.7190   47.8750 Zn        7 ZIP7        0.0000 
     15 N          -3.7145   21.9280   46.6010 N.am      2 SEC2        0.0000 
     16 N          -3.3520   20.8680   47.2730 N.am     10 SEL2        0.0000 
     17 N          -4.0770   22.9880   45.9290 N.am      6 SEP2        0.0000 
     18 N          -1.6260   18.7230   49.7175 N.am      2 SEC2        0.0000 
     19 N          -2.0950   18.7530   48.2740 N.am     10 SEL2        0.0000 
     20 N          -1.1570   18.6930   51.1610 N.am      6 SEP2        0.0000 
     21 O           0.4145   21.9320   48.5725 O.2       1 ALC1        0.0000 
     22 O          -1.0250   21.0970   48.6700 O.2       9 ALL1        0.0000 
     23 O           1.8540   22.7670   48.4750 O.2       5 ALP1        0.0000 
     24 O           0.0935   20.2890   48.7685 O.2       1 ALC1        0.0000 
     25 O           1.2120   19.4810   48.8670 O.2       5 ALP1        0.0000 
     26 CA         -3.1910   20.5490   50.1865 C.3       4 GLC5        0.0000 
     27 CA         -1.7800   21.9820   49.5770 C.3      12 GLL5        0.0000 
     28 CA         -4.6020   19.1160   50.7960 C.3       8 GLP5        0.0000 
     29 N          -4.3185   24.7850   49.7515 N.am      2 SEC2        0.0000 
     30 N          -3.3720   23.7120   49.4300 N.am     10 SEL2        0.0000 
     31 N          -5.2650   25.8580   50.0730 N.am      6 SEP2        0.0000 
     32 N          -4.5815   23.8570   50.3050 N.am      2 SEC2        0.0000 
     33 N          -5.7910   24.0020   51.1800 N.am      6 SEP2        0.0000 
     34 CA         -2.1025   21.8415   54.4300 C.3       4 GLC5        0.0000 
     35 CA         -2.6790   21.9480   52.5400 C.3      12 GLL5        0.0000 
     36 CA         -1.5260   21.7350   56.3200 C.3       8 GLP5        0.0000 
     37 CA         -3.9650   20.6445   52.2895 C.3       4 GLC5        0.0000 
     38 CA         -5.2510   19.3410   52.0390 C.3       8 GLP5        0.0000 
     39 CA          1.1430   23.0955   53.3175 C.3       4 GLC5        0.0000 
     40 CA         -0.6880   23.3210   52.9970 C.3      12 GLL5        0.0000 
     41 CA          2.9740   22.8700   53.6380 C.3       8 GLP5        0.0000 
     42 CA         -1.1070   22.5280   54.6585 C.3       4 GLC5        0.0000 
     43 CA          0.4510   23.7600   54.6515 C.3       4 GLC5        0.0000 
     44 CA          1.5900   24.1990   56.3060 C.3       8 GLP5        0.0000 
     45 CA         -3.3545   24.5390   47.0595 C.3       4 GLC5        0.0000 
     46 CA         -1.7960   25.1890   47.6400 C.3      12 GLL5        0.0000 
     47 CA         -4.9130   23.8890   46.4790 C.3       8 GLP5        0.0000 
     48 CA         -1.8935   26.3940   50.5510 C.3       4 GLC5        0.0000 
     49 CA         -1.4600   26.3920   48.5320 C.3      12 GLL5        0.0000 
     50 CA         -2.3270   26.3960   52.5700 C.3       8 GLP5        0.0000 
     51 CA         -0.9300   27.7610   50.2845 C.3       4 GLC5        0.0000 
     52 CA          0.0420   26.6770   48.5950 C.3      12 GLL5        0.0000 
     53 CA         -1.9020   28.8450   51.9740 C.3       8 GLP5        0.0000 
     54 O           3.5065   25.9830   49.1465 O.2       1 ALC1        0.0000 
     55 O           2.2160   26.4510   49.0820 O.2       9 ALL1        0.0000 
     56 O           4.7970   25.5150   49.2110 O.2       5 ALP1        0.0000 
     57 CA          4.8970   27.7560   48.9490 C.3       4 GLC5        0.0000 
     58 CA          3.0520   28.5620   48.0890 C.3      12 GLL5        0.0000 
     59 CA          6.7420   26.9500   49.8090 C.3       8 GLP5        0.0000 
     60 N           1.0320   23.8325   46.1210 N.am      2 SEC2        0.0000 
     61 N          -0.3100   24.4930   45.8860 N.am     10 SEL2        0.0000 
     62 N           2.3740   23.1720   46.3560 N.am      6 SEP2        0.0000 
     63 CA          1.0938   18.4865   45.4160 C.3       4 GLC5        0.0000 
     64 CA          0.4000   20.2450   44.5540 C.3      12 GLL5        0.0000 
     65 CA          1.9970   17.3360   46.6850 C.3       8 GLP5        0.0000 
     66 CA         -3.3875   21.7338   44.1260 C.3       4 GLC5        0.0000 
     67 CA         -2.4340   19.8330   43.8480 C.3      12 GLL5        0.0000 
     68 CA         -1.8865   24.6409   52.5956 C.3       4 GLC5        0.0000 
     69 CA         -1.7290   22.9530   51.9510 C.3      12 GLL5        0.0000 
@<TRIPOS>BOND
@<TRIPOS>SUBSTRUCTURE
     1 ALC1        4 GROUP        1 X    ALC  0     ROOT ALC X 1
     2 SEC2       15 GROUP        1 X    SEC  0     **** SEC X 2
     3 ZIC7       12 GROUP        1 X    ZIC  0     **** ZIC X 5
     4 GLC5        1 GROUP        1 X    GLC  0     **** GLC X 6
     5 ALP1        6 GROUP        1 Y    ALP  0     ROOT ALP Y 8
     6 SEP2       17 GROUP        1 Y    SEP  0     **** SEP Y 9
     7 ZIP7       14 GROUP        1 Y    ZIP  0     **** ZIP Y 12
     8 GLP5        3 GROUP        1 Y    GLP  0     **** GLP Y 13
     9 ALL1        5 GROUP        1 Z    ALL  0     ROOT ALL Z 15
    10 SEL2       16 GROUP        1 Z    SEL  0     **** SEL Z 16
    11 ZIL7       13 GROUP        1 Z    ZIL  0     **** ZIL Z 19
    12 GLL5        2 GROUP        1 Z    GLL  0     **** GLL Z 20
@<TRIPOS>SET

