#    Name: 4b52_RDF_1_ligand
#    Modification time : Tue Mar 25 06:42:16 2014

@<TRIPOS>MOLECULE
4b52_RDF_1_ligand
   69    71     1     0     0
SMALL
NO_CHARGES


@<TRIPOS>ATOM
      1 C1         -0.7630   20.7570   45.4150 C.3       1 RDF501      0.0000 
      2 O1         -1.0930   19.8240   46.4440 O.3       1 RDF501      0.0000 
      3 C2          0.4000   20.2450   44.5540 C.3       1 RDF501      0.0000 
      4 O2          0.7250   21.2300   43.5670 O.3       1 RDF501      0.0000 
      5 C3         -0.0190   19.0290   43.7400 C.3       1 RDF501      0.0000 
      6 O3          1.0440   18.5780   42.8690 O.3       1 RDF501      0.0000 
      7 C4         -1.2910   19.2690   42.9380 C.3       1 RDF501      0.0000 
      8 O4         -1.7780   17.9860   42.4780 O.3       1 RDF501      0.0000 
      9 C5         -2.4340   19.8330   43.8480 C.3       1 RDF501      0.0000 
     10 O5         -1.9330   20.9540   44.5890 O.3       1 RDF501      0.0000 
     11 C6         -3.8420   20.1440   43.2100 C.3       1 RDF501      0.0000 
     12 P          -2.0730   20.1080   47.6560 P.3       1 RDF501      0.0000 
     13 O1P        -3.3520   20.8680   47.2730 O.co2     1 RDF501      0.0000 
     14 O2P        -2.0950   18.7530   48.2740 O.co2     1 RDF501      0.0000 
     15 N          -1.0250   21.0970   48.6700 N.pl3     1 RDF501      0.0000 
     16 CA         -1.7800   21.9820   49.5770 C.3       1 RDF501      0.0000 
     17 C          -2.3100   23.2840   49.0420 C.2       1 RDF501      0.0000 
     18 O          -3.3720   23.7120   49.4300 O.2       1 RDF501      0.0000 
     19 CB         -0.9630   22.2570   50.8230 C.3       1 RDF501      0.0000 
     20 CG         -1.7290   22.9530   51.9510 C.3       1 RDF501      0.0000 
     21 CD1        -2.6790   21.9480   52.5400 C.3       1 RDF501      0.0000 
     22 CD2        -0.6880   23.3210   52.9970 C.3       1 RDF501      0.0000 
     23 N1         -1.4910   23.9240   48.2460 N.am      1 RDF501      0.0000 
     24 CA1        -1.7960   25.1890   47.6400 C.3       1 RDF501      0.0000 
     25 C7         -1.1240   25.3320   46.3130 C.2       1 RDF501      0.0000 
     26 O6         -1.4630   26.3340   45.7240 O.co2     1 RDF501      0.0000 
     27 CB1        -1.4600   26.3920   48.5320 C.3       1 RDF501      0.0000 
     28 CG1         0.0420   26.6770   48.5950 C.2       1 RDF501      0.0000 
     29 CD3         0.9970   25.8570   49.2000 C.2       1 RDF501      0.0000 
     30 CD4         0.7540   27.7710   48.1130 C.ar      1 RDF501      0.0000 
     31 NE1         2.2160   26.4510   49.0820 N.pl3     1 RDF501      0.0000 
     32 CE2         2.0900   27.6120   48.4410 C.ar      1 RDF501      0.0000 
     33 CE3         0.3170   28.9090   47.4210 C.ar      1 RDF501      0.0000 
     34 CZ2         3.0520   28.5620   48.0890 C.ar      1 RDF501      0.0000 
     35 CZ3         1.2950   29.8500   47.0320 C.ar      1 RDF501      0.0000 
     36 CH2         2.6500   29.6950   47.3670 C.ar      1 RDF501      0.0000 
     37 OXT        -0.3100   24.4930   45.8860 O.co2     1 RDF501      0.0000 
     38 H          -0.4580   21.7050   45.8445 H         1 RDF501      0.0000 
     39 H           1.2237   20.0000   45.1543 H         1 RDF501      0.0000 
     40 H          -0.2499   18.2179   44.4650 H         1 RDF501      0.0000 
     41 H          -1.1246   19.9318   42.1501 H         1 RDF501      0.0000 
     42 H          -2.6313   19.0054   44.6133 H         1 RDF501      0.0000 
     43 H          -0.1398   20.9716   48.5418 H         1 RDF501      0.0000 
     44 H          -2.6761   21.4000   49.9573 H         1 RDF501      0.0000 
     45 H          -0.0888   22.8806   50.5541 H         1 RDF501      0.0000 
     46 H          -0.5574   21.3024   51.2096 H         1 RDF501      0.0000 
     47 H          -2.2140   23.7903   51.5952 H         1 RDF501      0.0000 
     48 H          -0.5362   23.5288   48.0032 H         1 RDF501      0.0000 
     49 H          -2.8944   25.2484   47.4476 H         1 RDF501      0.0000 
     50 H          -1.8316   26.1989   49.5443 H         1 RDF501      0.0000 
     51 H          -1.9774   27.2769   48.1455 H         1 RDF501      0.0000 
     52 H           0.8058   25.0212   49.6215 H         1 RDF501      0.0000 
     53 H           3.0472   26.0704   49.4213 H         1 RDF501      0.0000 
     54 H          -0.6543   29.0539   47.2076 H         1 RDF501      0.0000 
     55 H           4.0265   28.4364   48.3504 H         1 RDF501      0.0000 
     56 H           1.0012   30.6784   46.4832 H         1 RDF501      0.0000 
     57 H           3.3324   30.3981   47.0883 H         1 RDF501      0.0000 
     58 H          -3.7770   20.8252   42.4808 H         1 RDF501      0.0000 
     59 H          -4.2578   19.3266   42.8113 H         1 RDF501      0.0000 
     60 H          -4.4861   20.5000   43.8871 H         1 RDF501      0.0000 
     61 H          -2.1972   21.1529   52.9084 H         1 RDF501      0.0000 
     62 H          -3.2155   22.3382   53.2883 H         1 RDF501      0.0000 
     63 H          -3.3285   21.6079   51.8599 H         1 RDF501      0.0000 
     64 H          -0.2145   22.5139   53.3497 H         1 RDF501      0.0000 
     65 H           0.0111   23.9323   52.6262 H         1 RDF501      0.0000 
     66 H          -1.0981   23.7863   53.7814 H         1 RDF501      0.0000 
     67 H           1.0353   20.7077   42.7727 H         1 RDF501      0.0000 
     68 H           1.7121   18.1491   43.4770 H         1 RDF501      0.0000 
     69 H          -2.0975   17.5197   43.3029 H         1 RDF501      0.0000 
@<TRIPOS>BOND
     1    2    1 1    
     2    3    1 1    
     3   10    1 1    
     4   38    1 1    
     5   12    2 1    
     6    4    3 1    
     7    5    3 1    
     8   39    3 1    
     9   67    4 1    
    10    6    5 1    
    11    7    5 1    
    12   40    5 1    
    13   68    6 1    
    14    8    7 1    
    15    9    7 1    
    16   41    7 1    
    17   69    8 1    
    18   10    9 1    
    19   11    9 1    
    20   42    9 1    
    21   58   11 1    
    22   59   11 1    
    23   60   11 1    
    24   13   12 ar   
    25   14   12 ar   
    26   15   12 1    
    27   16   15 1    
    28   43   15 1    
    29   17   16 1    
    30   19   16 1    
    31   44   16 1    
    32   18   17 2    
    33   23   17 am   
    34   20   19 1    
    35   45   19 1    
    36   46   19 1    
    37   21   20 1    
    38   22   20 1    
    39   47   20 1    
    40   61   21 1    
    41   62   21 1    
    42   63   21 1    
    43   64   22 1    
    44   65   22 1    
    45   66   22 1    
    46   24   23 1    
    47   48   23 1    
    48   25   24 1    
    49   27   24 1    
    50   49   24 1    
    51   26   25 ar   
    52   37   25 ar   
    53   28   27 1    
    54   50   27 1    
    55   51   27 1    
    56   29   28 2    
    57   30   28 1    
    58   31   29 1    
    59   52   29 1    
    60   32   30 ar   
    61   33   30 ar   
    62   32   31 1    
    63   53   31 1    
    64   34   32 ar   
    65   35   33 ar   
    66   54   33 1    
    67   36   34 ar   
    68   55   34 1    
    69   36   35 ar   
    70   56   35 1    
    71   57   36 1    
@<TRIPOS>SUBSTRUCTURE
     1 RDF501      1 GROUP   
@<TRIPOS>SET

