#    Name: 1yoa_FAD_1_INTS_M
#    Modification time : Tue Mar 25 11:11:03 2014

@<TRIPOS>MOLECULE
1yoa_FAD_1_INTS_M
   68     0     9     0     0
SMALL
NO_CHARGES


@<TRIPOS>ATOM
      1 N          13.8700   51.9135   23.2200 N.am      2 SEC2        0.0000 
      2 N          13.0710   53.1000   23.2550 N.am      8 SEL2        0.0000 
      3 N          14.6690   50.7270   23.1850 N.am      5 SEP2        0.0000 
      4 CA         11.2085   51.2625   23.1890 C.3       3 GLC5        0.0000 
      5 CA          9.8400   52.4450   24.2840 C.3       9 GLL5        0.0000 
      6 CA         12.5770   50.0800   22.0940 C.3       6 GLP5        0.0000 
      7 CA         13.7115   47.6875   26.0295 C.3       3 GLC5        0.0000 
      8 CA         12.7410   49.3680   26.8850 C.3       9 GLL5        0.0000 
      9 CA         14.6820   46.0070   25.1740 C.3       6 GLP5        0.0000 
     10 CA         11.1315   48.0230   24.2165 C.3       3 GLC5        0.0000 
     11 CA         10.8780   48.2390   25.9050 C.3       9 GLL5        0.0000 
     12 CA         11.3850   47.8070   22.5280 C.3       6 GLP5        0.0000 
     13 CA         12.7800   47.1230   25.5395 C.3       3 GLC5        0.0000 
     14 CA         11.8630   50.3475   23.8245 C.3       3 GLC5        0.0000 
     15 CA         11.1490   50.6150   25.5550 C.3       9 GLL5        0.0000 
     16 N          22.3250   52.6660   21.5910 N.am      2 SEC2        0.0000 
     17 N          22.0450   53.2890   20.3840 N.am      8 SEL2        0.0000 
     18 N          22.6050   52.0430   22.7980 N.am      5 SEP2        0.0000 
     19 O          24.5335   53.0420   19.3030 O.2       1 ALC1        0.0000 
     20 O          23.6300   54.0340   18.9000 O.2       7 ALL1        0.0000 
     21 O          25.4370   52.0500   19.7060 O.2       4 ALP1        0.0000 
     22 N          25.7635   56.2180   16.9520 N.am      2 SEC2        0.0000 
     23 N          25.1520   54.9510   17.4820 N.am      8 SEL2        0.0000 
     24 N          26.3750   57.4850   16.4220 N.am      5 SEP2        0.0000 
     25 N          26.3325   54.7635   16.5940 N.am      2 SEC2        0.0000 
     26 N          27.5130   54.5760   15.7060 N.am      5 SEP2        0.0000 
     27 N          25.1625   55.3085   16.0185 N.am      2 SEC2        0.0000 
     28 N          25.1730   55.6660   14.5550 N.am      5 SEP2        0.0000 
     29 N          25.0025   57.3475   16.7725 N.am      2 SEC2        0.0000 
     30 N          23.6300   57.2100   17.1230 N.am      8 SEL2        0.0000 
     31 N          24.4015   56.4380   15.8390 N.am      2 SEC2        0.0000 
     32 CA         22.8920   56.6185   15.8090 C.3       3 GLC5        0.0000 
     33 CA         22.8870   58.3790   17.0220 C.3       9 GLL5        0.0000 
     34 CA         22.8970   54.8580   14.5960 C.3       6 GLP5        0.0000 
     35 CA         21.4410   61.5100   14.3345 C.3       3 GLC5        0.0000 
     36 CA         23.0560   61.7460   15.2860 C.3       9 GLL5        0.0000 
     37 CA         19.8260   61.2740   13.3830 C.3       6 GLP5        0.0000 
     38 CA         24.7090   61.9470   14.7655 C.3       3 GLC5        0.0000 
     39 CA         26.3620   62.1480   14.2450 C.3       6 GLP5        0.0000 
     40 CA         23.5775   63.4635   14.1955 C.3       3 GLC5        0.0000 
     41 CA         24.0990   65.1810   13.1050 C.3       6 GLP5        0.0000 
     42 CA         20.1530   61.1415   15.6355 C.3       3 GLC5        0.0000 
     43 CA         20.6600   62.0640   17.0440 C.3       9 GLL5        0.0000 
     44 CA         19.6460   60.2190   14.2270 C.3       6 GLP5        0.0000 
     45 CA         21.9200   63.0660   18.3440 C.3       3 GLC5        0.0000 
     46 CA         23.1800   64.0680   19.6440 C.3       6 GLP5        0.0000 
     47 CA         21.7000   58.4255   19.9085 C.3       3 GLC5        0.0000 
     48 CA         19.9060   57.4250   19.1990 C.3       9 GLL5        0.0000 
     49 CA         23.4940   59.4260   20.6180 C.3       6 GLP5        0.0000 
     50 O          19.6015   56.5780   16.2615 O.2       1 ALC1        0.0000 
     51 O          18.6750   57.0420   17.0820 O.2       7 ALL1        0.0000 
     52 O          20.5280   56.1140   15.4410 O.2       4 ALP1        0.0000 
     53 CA         16.7820   54.5075   16.7365 C.3       3 GLC5        0.0000 
     54 CA         16.7840   55.3910   18.4540 C.3       9 GLL5        0.0000 
     55 CA         16.7800   53.6240   15.0190 C.3       6 GLP5        0.0000 
     56 N          14.3665   51.9705   22.0435 N.am      2 SEC2        0.0000 
     57 N          14.0640   53.2140   20.9020 N.am      8 SEL2        0.0000 
     58 CA         11.4295   51.7242   21.8270 C.3       3 GLC5        0.0000 
     59 CA         10.8590   53.5310   21.0800 C.3       9 GLL5        0.0000 
     60 CA          9.4145   55.2466   20.8515 C.3       3 GLC5        0.0000 
     61 CA          9.0570   56.6190   19.4710 C.3       6 GLP5        0.0000 
     62 CA         13.1978   49.7818   24.6872 C.3       3 GLC5        0.0000 
     63 CA         12.3020   50.5770   26.3300 C.3       9 GLL5        0.0000 
     64 CA         13.8740   49.5910   22.7670 C.3       6 GLP5        0.0000 
     65 CA         24.4870   59.7950   17.2825 C.3       3 GLC5        0.0000 
     66 CA         25.8910   60.6900   17.9580 C.3       6 GLP5        0.0000 
     67 CA         24.3440   60.9305   16.8253 C.3       3 GLC5        0.0000 
     68 CA         22.5380   60.5960   16.0990 C.3       9 GLL5        0.0000 
@<TRIPOS>BOND
@<TRIPOS>SUBSTRUCTURE
     1 ALC1       19 GROUP        1 X    ALC  0     ROOT ALC X 1
     2 SEC2        1 GROUP        1 X    SEC  0     **** SEC X 2
     3 GLC5        4 GROUP        1 X    GLC  0     **** GLC X 6
     4 ALP1       21 GROUP        1 Y    ALP  0     ROOT ALP Y 8
     5 SEP2        3 GROUP        1 Y    SEP  0     **** SEP Y 9
     6 GLP5        6 GROUP        1 Y    GLP  0     **** GLP Y 13
     7 ALL1       20 GROUP        1 Z    ALL  0     ROOT ALL Z 15
     8 SEL2        2 GROUP        1 Z    SEL  0     **** SEL Z 16
     9 GLL5        5 GROUP        1 Z    GLL  0     **** GLL Z 20
@<TRIPOS>SET

