#    Name: 1yoa_FAD_1_ligand
#    Modification time : Tue Mar 25 11:11:03 2014

@<TRIPOS>MOLECULE
1yoa_FAD_1_ligand
   84    89     1     0     0
SMALL
NO_CHARGES


@<TRIPOS>ATOM
      1 PA         13.2950   54.0470   22.0980 P.3       1 FAD401      0.0000 
      2 O1A        13.0710   53.1000   23.2550 O.co2     1 FAD401      0.0000 
      3 O2A        14.0590   55.2240   22.6740 O.co2     1 FAD401      0.0000 
      4 O5B        11.8080   54.4750   21.5810 O.3       1 FAD401      0.0000 
      5 C5B        10.8590   53.5310   21.0800 C.3       1 FAD401      0.0000 
      6 C4B         9.7050   53.2060   22.0400 C.3       1 FAD401      0.0000 
      7 O4B        10.0620   52.1410   22.9130 O.3       1 FAD401      0.0000 
      8 C3B         9.2620   54.3800   22.9040 C.3       1 FAD401      0.0000 
      9 O3B         7.8790   54.6040   22.7270 O.3       1 FAD401      0.0000 
     10 C2B         9.6240   53.9660   24.3240 C.3       1 FAD401      0.0000 
     11 O2B         8.6150   54.3180   25.2420 O.3       1 FAD401      0.0000 
     12 C1B         9.8400   52.4450   24.2840 C.3       1 FAD401      0.0000 
     13 N9A        10.9540   51.9230   25.1390 N.pl3     1 FAD401      0.0000 
     14 C8A        11.9980   52.6490   25.6750 C.2       1 FAD401      0.0000 
     15 N7A        12.8030   51.8290   26.3850 N.2       1 FAD401      0.0000 
     16 C5A        12.3020   50.5770   26.3300 C.ar      1 FAD401      0.0000 
     17 C6A        12.7410   49.3680   26.8850 C.ar      1 FAD401      0.0000 
     18 N6A        13.9290   49.3220   27.5000 N.pl3     1 FAD401      0.0000 
     19 N1A        12.0240   48.1960   26.6720 N.ar      1 FAD401      0.0000 
     20 C2A        10.8780   48.2390   25.9050 C.ar      1 FAD401      0.0000 
     21 N3A        10.4640   49.4540   25.3610 N.ar      1 FAD401      0.0000 
     22 C4A        11.1490   50.6150   25.5550 C.ar      1 FAD401      0.0000 
     23 N1         21.6890   55.3150   19.5230 N.2       1 FAD401      0.0000 
     24 C2         22.4500   54.1800   19.6360 C.2       1 FAD401      0.0000 
     25 O2         22.0450   53.2890   20.3840 O.2       1 FAD401      0.0000 
     26 N3         23.6300   54.0340   18.9000 N.am      1 FAD401      0.0000 
     27 C4         24.0510   55.0250   18.0630 C.2       1 FAD401      0.0000 
     28 O4         25.1520   54.9510   17.4820 O.2       1 FAD401      0.0000 
     29 C4X        23.2840   56.2030   17.9700 C.2       1 FAD401      0.0000 
     30 N5         23.6300   57.2100   17.1230 N.2       1 FAD401      0.0000 
     31 C5X        22.8870   58.3790   17.0220 C.ar      1 FAD401      0.0000 
     32 C6         23.2790   59.4210   16.1920 C.ar      1 FAD401      0.0000 
     33 C7         22.5380   60.5960   16.0990 C.ar      1 FAD401      0.0000 
     34 C7M        23.0560   61.7460   15.2860 C.3       1 FAD401      0.0000 
     35 C8         21.3660   60.7320   16.8580 C.ar      1 FAD401      0.0000 
     36 C8M        20.6600   62.0640   17.0440 C.3       1 FAD401      0.0000 
     37 C9         20.9730   59.7020   17.6870 C.ar      1 FAD401      0.0000 
     38 C9A        21.7130   58.5090   17.7780 C.ar      1 FAD401      0.0000 
     39 N10        21.3180   57.4720   18.6050 N.pl3     1 FAD401      0.0000 
     40 C10        22.0960   56.3390   18.7060 C.2       1 FAD401      0.0000 
     41 C1'        19.9060   57.4250   19.1990 C.3       1 FAD401      0.0000 
     42 C2'        18.9810   56.5260   18.3820 C.3       1 FAD401      0.0000 
     43 O2'        18.6750   57.0420   17.0820 O.3       1 FAD401      0.0000 
     44 C3'        17.7150   56.3040   19.2140 C.3       1 FAD401      0.0000 
     45 O3'        18.0380   55.7170   20.4720 O.3       1 FAD401      0.0000 
     46 C4'        16.7840   55.3910   18.4540 C.3       1 FAD401      0.0000 
     47 O4'        16.1180   56.1400   17.4700 O.3       1 FAD401      0.0000 
     48 C5'        15.7650   54.7430   19.3820 C.3       1 FAD401      0.0000 
     49 O5'        15.0850   53.7320   18.6710 O.3       1 FAD401      0.0000 
     50 P          13.7070   53.2250   19.3050 P.3       1 FAD401      0.0000 
     51 O1P        12.6730   54.3030   19.0180 O.co2     1 FAD401      0.0000 
     52 O2P        13.2510   51.9130   18.7090 O.co2     1 FAD401      0.0000 
     53 O3P        14.0640   53.2140   20.9020 O.3       1 FAD401      0.0000 
     54 H          11.3508   52.5625   20.8205 H         1 FAD401      0.0000 
     55 H          10.4001   53.8868   20.1260 H         1 FAD401      0.0000 
     56 H           8.8404   52.9044   21.4322 H         1 FAD401      0.0000 
     57 H           9.8685   55.2205   22.6352 H         1 FAD401      0.0000 
     58 H          10.5791   54.4150   24.5601 H         1 FAD401      0.0000 
     59 H           8.8939   51.9861   24.5991 H         1 FAD401      0.0000 
     60 H          12.1202   53.6005   25.5514 H         1 FAD401      0.0000 
     61 H          14.2039   48.4304   27.8599 H         1 FAD401      0.0000 
     62 H          14.4351   50.1833   27.5444 H         1 FAD401      0.0000 
     63 H          10.3313   47.3889   25.7328 H         1 FAD401      0.0000 
     64 H          24.1773   53.1613   19.0019 H         1 FAD401      0.0000 
     65 H          24.1452   59.3230   15.6266 H         1 FAD401      0.0000 
     66 H          20.1138   59.7978   18.2614 H         1 FAD401      0.0000 
     67 H          19.4959   58.4366   19.2238 H         1 FAD401      0.0000 
     68 H          19.9623   57.0491   20.2225 H         1 FAD401      0.0000 
     69 H          19.4748   55.5448   18.3099 H         1 FAD401      0.0000 
     70 H          17.2275   57.2590   19.3367 H         1 FAD401      0.0000 
     71 H          17.3779   54.6002   18.0060 H         1 FAD401      0.0000 
     72 H          15.0888   55.5284   19.7339 H         1 FAD401      0.0000 
     73 H          16.3068   54.3482   20.2472 H         1 FAD401      0.0000 
     74 H          23.9401   62.0703   15.6225 H         1 FAD401      0.0000 
     75 H          23.1818   61.4954   14.3261 H         1 FAD401      0.0000 
     76 H          22.4308   62.5262   15.3057 H         1 FAD401      0.0000 
     77 H          21.2506   62.7387   17.4866 H         1 FAD401      0.0000 
     78 H          20.3704   62.4559   16.1708 H         1 FAD401      0.0000 
     79 H          19.8412   61.9743   17.6110 H         1 FAD401      0.0000 
     80 H           7.4863   54.5351   23.6440 H         1 FAD401      0.0000 
     81 H           9.0825   54.8480   25.9495 H         1 FAD401      0.0000 
     82 H          19.3826   56.6684   16.4823 H         1 FAD401      0.0000 
     83 H          18.4630   54.8403   20.2469 H         1 FAD401      0.0000 
     84 H          16.7745   56.8402   17.1894 H         1 FAD401      0.0000 
@<TRIPOS>BOND
     1    2    1 ar   
     2    3    1 ar   
     3    4    1 1    
     4   53    1 1    
     5    5    4 1    
     6    6    5 1    
     7   54    5 1    
     8   55    5 1    
     9    7    6 1    
    10    8    6 1    
    11   56    6 1    
    12   12    7 1    
    13    9    8 1    
    14   10    8 1    
    15   57    8 1    
    16   80    9 1    
    17   11   10 1    
    18   12   10 1    
    19   58   10 1    
    20   81   11 1    
    21   13   12 1    
    22   59   12 1    
    23   14   13 1    
    24   22   13 1    
    25   15   14 2    
    26   60   14 1    
    27   16   15 1    
    28   17   16 ar   
    29   22   16 ar   
    30   18   17 1    
    31   19   17 ar   
    32   61   18 1    
    33   62   18 1    
    34   20   19 ar   
    35   21   20 ar   
    36   63   20 1    
    37   22   21 ar   
    38   24   23 1    
    39   40   23 2    
    40   25   24 2    
    41   26   24 am   
    42   27   26 am   
    43   64   26 1    
    44   28   27 2    
    45   29   27 1    
    46   30   29 2    
    47   40   29 1    
    48   31   30 1    
    49   32   31 ar   
    50   38   31 ar   
    51   33   32 ar   
    52   65   32 1    
    53   34   33 1    
    54   35   33 ar   
    55   74   34 1    
    56   75   34 1    
    57   76   34 1    
    58   36   35 1    
    59   37   35 ar   
    60   77   36 1    
    61   78   36 1    
    62   79   36 1    
    63   38   37 ar   
    64   66   37 1    
    65   39   38 1    
    66   40   39 1    
    67   41   39 1    
    68   42   41 1    
    69   67   41 1    
    70   68   41 1    
    71   43   42 1    
    72   44   42 1    
    73   69   42 1    
    74   82   43 1    
    75   45   44 1    
    76   46   44 1    
    77   70   44 1    
    78   83   45 1    
    79   47   46 1    
    80   48   46 1    
    81   71   46 1    
    82   84   47 1    
    83   49   48 1    
    84   72   48 1    
    85   73   48 1    
    86   50   49 1    
    87   51   50 ar   
    88   52   50 ar   
    89   53   50 1    
@<TRIPOS>SUBSTRUCTURE
     1 FAD401      1 GROUP   
@<TRIPOS>SET

