#    Name: 4lz5_1YV_2_INTS_M
#    Modification time : Tue Apr  8 00:12:25 2014

@<TRIPOS>MOLECULE
4lz5_1YV_2_INTS_M
   64     0     3     0     0
SMALL
NO_CHARGES


@<TRIPOS>ATOM
      1 CA         67.1470   22.7560   47.9570 C.3       1 GLC5        0.0000 
      2 CA         66.4700   21.6390   46.4190 C.3       3 GLL5        0.0000 
      3 CA         67.8240   23.8730   49.4950 C.3       2 GLP5        0.0000 
      4 CA         67.2675   22.1015   44.4965 C.3       1 GLC5        0.0000 
      5 CA         68.0650   22.5640   42.5740 C.3       2 GLP5        0.0000 
      6 CA         63.3210   21.9165   48.3370 C.3       1 GLC5        0.0000 
      7 CA         64.2380   20.6940   46.7620 C.3       3 GLL5        0.0000 
      8 CA         62.4040   23.1390   49.9120 C.3       2 GLP5        0.0000 
      9 CA         62.5740   19.6815   47.6390 C.3       1 GLC5        0.0000 
     10 CA         60.9100   18.6690   48.5160 C.3       2 GLP5        0.0000 
     11 CA         64.9045   22.7600   42.7835 C.3       1 GLC5        0.0000 
     12 CA         62.9420   22.3170   43.5560 C.3       3 GLL5        0.0000 
     13 CA         66.8670   23.2030   42.0110 C.3       2 GLP5        0.0000 
     14 CA         60.4475   23.5965   44.1400 C.3       1 GLC5        0.0000 
     15 CA         61.7810   22.7350   42.5670 C.3       3 GLL5        0.0000 
     16 CA         59.1140   24.4580   45.7130 C.3       2 GLP5        0.0000 
     17 CA         63.2325   21.5615   39.8490 C.3       1 GLC5        0.0000 
     18 CA         61.8330   22.1090   41.1760 C.3       3 GLL5        0.0000 
     19 CA         64.6320   21.0140   38.5220 C.3       2 GLP5        0.0000 
     20 CA         60.5395   23.5285   40.0935 C.3       1 GLC5        0.0000 
     21 CA         59.2460   24.9480   39.0110 C.3       2 GLP5        0.0000 
     22 CA         59.7785   24.6960   44.1565 C.3       1 GLC5        0.0000 
     23 CA         60.4430   24.9340   42.6000 C.3       3 GLL5        0.0000 
     24 CA         64.8390   24.1060   42.1945 C.3       1 GLC5        0.0000 
     25 CA         62.8110   25.0090   42.3780 C.3       3 GLL5        0.0000 
     26 CA         63.5280   27.2925   40.6920 C.3       1 GLC5        0.0000 
     27 CA         62.7330   26.4010   42.3360 C.3       3 GLL5        0.0000 
     28 CA         64.3230   28.1840   39.0480 C.3       2 GLP5        0.0000 
     29 CA         63.4750   28.9930   43.8480 C.3       1 GLC5        0.0000 
     30 CA         62.3990   29.3820   41.9550 C.3       3 GLL5        0.0000 
     31 CA         64.5510   28.6040   45.7410 C.3       2 GLP5        0.0000 
     32 CA         63.1545   32.8850   44.0020 C.3       1 GLC5        0.0000 
     33 CA         61.4540   32.6810   42.9080 C.3       3 GLL5        0.0000 
     34 CA         64.8550   33.0890   45.0960 C.3       2 GLP5        0.0000 
     35 CA         60.1625   34.1830   43.7820 C.3       1 GLC5        0.0000 
     36 CA         58.8710   35.6850   44.6560 C.3       2 GLP5        0.0000 
     37 CA         62.0100   34.5330   43.6550 C.3       1 GLC5        0.0000 
     38 CA         62.5660   36.3850   44.4020 C.3       2 GLP5        0.0000 
     39 CA         64.7140   19.1920   45.5247 C.3       1 GLC5        0.0000 
     40 CA         64.7650   17.2670   44.7670 C.3       2 GLP5        0.0000 
     41 CA         65.3777   20.8424   48.0337 C.3       1 GLC5        0.0000 
     42 CA         65.7470   20.5430   49.6310 C.3       2 GLP5        0.0000 
     43 CA         59.7555   21.8510   41.7632 C.3       1 GLC5        0.0000 
     44 CA         57.7040   21.2800   41.6550 C.3       2 GLP5        0.0000 
     45 CA         61.2833   24.9808   44.2332 C.3       1 GLC5        0.0000 
     46 CA         61.6560   24.2300   42.5030 C.3       3 GLL5        0.0000 
     47 CA         60.3330   25.3420   46.0260 C.3       2 GLP5        0.0000 
     48 CA         58.4880   26.0175   43.0280 C.3       1 GLC5        0.0000 
     49 CA         56.5670   26.4110   43.4700 C.3       2 GLP5        0.0000 
     50 CA         62.7595   27.2123   44.1752 C.3       1 GLC5        0.0000 
     51 CA         61.5070   27.1140   42.3930 C.3       3 GLL5        0.0000 
     52 CA         63.3990   27.6670   45.9860 C.3       2 GLP5        0.0000 
     53 CA         60.6370   26.0280   44.2543 C.3       1 GLC5        0.0000 
     54 CA         59.9791   25.1980   40.7864 C.3       1 GLC5        0.0000 
     55 CA         60.3750   26.3140   42.5720 C.3       3 GLL5        0.0000 
     56 CA         62.1580   28.2938   44.4303 C.3       1 GLC5        0.0000 
     57 CA         61.4120   28.5960   42.4670 C.3       3 GLL5        0.0000 
     58 CA         58.5952   29.8927   42.6258 C.3       1 GLC5        0.0000 
     59 CA         60.4220   29.2450   43.2820 C.3       3 GLL5        0.0000 
     60 CA         56.7900   29.8480   41.9040 C.3       2 GLP5        0.0000 
     61 CA         64.1810   30.9032   41.8892 C.3       1 GLC5        0.0000 
     62 CA         65.9820   31.7400   41.7520 C.3       2 GLP5        0.0000 
     63 CA         63.3515   29.1253   40.5373 C.3       1 GLC5        0.0000 
     64 CA         62.3610   30.7510   42.0980 C.3       3 GLL5        0.0000 
@<TRIPOS>BOND
@<TRIPOS>SUBSTRUCTURE
     1 GLC5        1 GROUP        1 X    GLC  0     ROOT GLC X 6
     2 GLP5        3 GROUP        1 Y    GLP  0     ROOT GLP Y 13
     3 GLL5        2 GROUP        1 Z    GLL  0     ROOT GLL Z 20
@<TRIPOS>SET

