#    Name: 4lz5_1YV_2_ligand
#    Modification time : Tue Apr  8 00:12:25 2014

@<TRIPOS>MOLECULE
4lz5_1YV_2_ligand
   46    47     1     0     0
SMALL
NO_CHARGES


@<TRIPOS>ATOM
      1 O23        65.2990   23.9240   44.7660 O.2       1 1YV804      0.0000 
      2 S24        64.4040   23.1300   45.6350 S.o2      1 1YV804      0.0000 
      3 O22        64.2060   23.8240   46.8660 O.2       1 1YV804      0.0000 
      4 C18        65.0880   21.5400   45.8030 C.3       1 1YV804      0.0000 
      5 C2         66.4700   21.6390   46.4190 C.3       1 1YV804      0.0000 
      6 C1         64.2380   20.6940   46.7620 C.3       1 1YV804      0.0000 
      7 N21        63.0460   22.9880   44.8970 N.pl3     1 1YV804      0.0000 
      8 C12        62.9420   22.3170   43.5560 C.3       1 1YV804      0.0000 
      9 C19        61.7810   22.7350   42.5670 C.3       1 1YV804      0.0000 
     10 C3         61.8330   22.1090   41.1760 C.3       1 1YV804      0.0000 
     11 C17        61.6560   24.2300   42.5030 C.ar      1 1YV804      0.0000 
     12 C10        60.4430   24.9340   42.6000 C.ar      1 1YV804      0.0000 
     13 C11        62.8110   25.0090   42.3780 C.ar      1 1YV804      0.0000 
     14 C9         62.7330   26.4010   42.3360 C.ar      1 1YV804      0.0000 
     15 C16        61.5070   27.1140   42.3930 C.ar      1 1YV804      0.0000 
     16 C8         60.3750   26.3140   42.5720 C.ar      1 1YV804      0.0000 
     17 C15        61.4120   28.5960   42.4670 C.ar      1 1YV804      0.0000 
     18 C6         60.4220   29.2450   43.2820 C.ar      1 1YV804      0.0000 
     19 C7         62.3990   29.3820   41.9550 C.ar      1 1YV804      0.0000 
     20 C5         62.3610   30.7510   42.0980 C.ar      1 1YV804      0.0000 
     21 C14        61.3740   31.3760   42.7970 C.ar      1 1YV804      0.0000 
     22 C4         60.3790   30.6300   43.4130 C.ar      1 1YV804      0.0000 
     23 C13        61.4540   32.6810   42.9080 C.1       1 1YV804      0.0000 
     24 N20        61.5380   33.8090   43.1500 N.1       1 1YV804      0.0000 
     25 H          65.1110   21.1338   44.8480 H         1 1YV804      0.0000 
     26 H          62.2342   23.3576   45.3403 H         1 1YV804      0.0000 
     27 H          62.8592   21.2042   43.6964 H         1 1YV804      0.0000 
     28 H          63.9066   22.4482   42.9927 H         1 1YV804      0.0000 
     29 H          60.8330   22.3628   43.0575 H         1 1YV804      0.0000 
     30 H          59.5598   24.3807   42.6972 H         1 1YV804      0.0000 
     31 H          63.7315   24.5465   42.3162 H         1 1YV804      0.0000 
     32 H          63.6162   26.9562   42.2587 H         1 1YV804      0.0000 
     33 H          59.4482   26.7819   42.6881 H         1 1YV804      0.0000 
     34 H          59.7350   28.6528   43.7741 H         1 1YV804      0.0000 
     35 H          63.1980   28.9474   41.4462 H         1 1YV804      0.0000 
     36 H          63.1186   31.3239   41.6523 H         1 1YV804      0.0000 
     37 H          59.6401   31.0799   43.9444 H         1 1YV804      0.0000 
     38 H          66.8919   20.7393   46.5313 H         1 1YV804      0.0000 
     39 H          67.0897   22.1850   45.8552 H         1 1YV804      0.0000 
     40 H          66.4439   22.0654   47.3231 H         1 1YV804      0.0000 
     41 H          64.6133   19.7744   46.8781 H         1 1YV804      0.0000 
     42 H          64.1839   21.1055   47.6718 H         1 1YV804      0.0000 
     43 H          63.3000   20.5882   46.4319 H         1 1YV804      0.0000 
     44 H          62.6768   22.3448   40.6939 H         1 1YV804      0.0000 
     45 H          61.7874   21.1108   41.2160 H         1 1YV804      0.0000 
     46 H          61.0727   22.4144   40.6026 H         1 1YV804      0.0000 
@<TRIPOS>BOND
     1    2    1 2    
     2    3    2 2    
     3    4    2 1    
     4    7    2 1    
     5    5    4 1    
     6    6    4 1    
     7   25    4 1    
     8   38    5 1    
     9   39    5 1    
    10   40    5 1    
    11   41    6 1    
    12   42    6 1    
    13   43    6 1    
    14    8    7 1    
    15   26    7 1    
    16    9    8 1    
    17   27    8 1    
    18   28    8 1    
    19   10    9 1    
    20   11    9 1    
    21   29    9 1    
    22   44   10 1    
    23   45   10 1    
    24   46   10 1    
    25   12   11 ar   
    26   13   11 ar   
    27   16   12 ar   
    28   30   12 1    
    29   14   13 ar   
    30   31   13 1    
    31   15   14 ar   
    32   32   14 1    
    33   16   15 ar   
    34   17   15 1    
    35   33   16 1    
    36   18   17 ar   
    37   19   17 ar   
    38   22   18 ar   
    39   34   18 1    
    40   20   19 ar   
    41   35   19 1    
    42   21   20 ar   
    43   36   20 1    
    44   22   21 ar   
    45   23   21 1    
    46   37   22 1    
    47   24   23 3    
@<TRIPOS>SUBSTRUCTURE
     1 1YV804      1 GROUP   
@<TRIPOS>SET

