#    Name: 3fx6_BPX_2_INTS_M
#    Modification time : Tue Mar 25 06:43:52 2014

@<TRIPOS>MOLECULE
3fx6_BPX_2_INTS_M
   50     0    15     0     0
SMALL
NO_CHARGES


@<TRIPOS>ATOM
      1 CA        -13.8660  -28.6480  -27.8205 C.3       5 GLC5        0.0000 
      2 CA        -14.6980  -29.3980  -26.4970 C.3      15 GLL5        0.0000 
      3 CA        -13.0340  -27.8980  -29.1440 C.3      10 GLP5        0.0000 
      4 CA        -17.9835  -31.5595  -25.3060 C.3       5 GLC5        0.0000 
      5 CA        -16.8300  -29.7200  -25.4260 C.3      15 GLL5        0.0000 
      6 CA        -19.1370  -33.3990  -25.1860 C.3      10 GLP5        0.0000 
      7 CA        -17.7510  -26.5100  -24.4520 C.3       5 GLC5        0.0000 
      8 CA        -17.5090  -28.4010  -23.3810 C.3      15 GLL5        0.0000 
      9 CA        -17.9930  -24.6190  -25.5230 C.3      10 GLP5        0.0000 
     10 NZ        -14.2735  -29.7415  -20.2180 N.4       3 LYC4        0.0000 
     11 NZ        -15.5400  -29.8810  -20.7110 N.4      13 LYL4        0.0000 
     12 NZ        -12.0980  -28.6420  -19.6340 N.4       8 LYP4        0.0000 
     13 N         -16.3455  -30.8065  -19.5455 N.am      2 SEC2        0.0000 
     14 N         -15.5400  -29.8810  -20.7110 N.am     12 SEL2        0.0000 
     15 N         -17.1510  -31.7320  -18.3800 N.am      7 SEP2        0.0000 
     16 N         -14.2735  -29.7415  -20.2180 N.am      2 SEC2        0.0000 
     17 N         -13.0070  -29.6020  -19.7250 N.am      7 SEP2        0.0000 
     18 N         -15.8285  -26.4565  -20.8900 N.am      2 SEC2        0.0000 
     19 N         -15.5130  -27.8600  -21.6470 N.am     12 SEL2        0.0000 
     20 N         -16.1440  -25.0530  -20.1330 N.am      7 SEP2        0.0000 
     21 Zn        -19.4970  -31.9145  -22.3045 Zn        4 ZIC7        0.0000 
     22 Zn        -19.8190  -30.6890  -22.4590 Zn       14 ZIL7        0.0000 
     23 Zn        -19.1750  -33.1400  -22.1500 Zn        9 ZIP7        0.0000 
     24 N         -20.8220  -30.2305  -23.3155 N.am      2 SEC2        0.0000 
     25 N         -19.8190  -30.6890  -22.4590 N.am     12 SEL2        0.0000 
     26 N         -21.8250  -29.7720  -24.1720 N.am      7 SEP2        0.0000 
     27 O         -19.7600  -30.2565  -23.5900 O.2       1 ALC1        0.0000 
     28 O         -19.8190  -30.6890  -22.4590 O.2      11 ALL1        0.0000 
     29 O         -19.7010  -29.8240  -24.7210 O.2       6 ALP1        0.0000 
     30 Zn        -18.8395  -32.3075  -21.4270 Zn        4 ZIC7        0.0000 
     31 Zn        -18.5040  -31.4750  -20.7040 Zn       14 ZIL7        0.0000 
     32 CA        -21.9780  -30.7065  -19.2580 C.3       5 GLC5        0.0000 
     33 CA        -20.5010  -30.2250  -20.1810 C.3      15 GLL5        0.0000 
     34 CA        -23.4550  -31.1880  -18.3350 C.3      10 GLP5        0.0000 
     35 N         -20.7620  -32.0655  -16.6915 N.am      2 SEC2        0.0000 
     36 N         -20.0550  -31.3780  -18.0050 N.am     12 SEL2        0.0000 
     37 N         -21.4690  -32.7530  -15.3780 N.am      7 SEP2        0.0000 
     38 N         -20.1900  -31.0810  -16.5080 N.am      2 SEC2        0.0000 
     39 N         -20.3250  -30.7840  -15.0110 N.am      7 SEP2        0.0000 
     40 N         -18.9150  -31.8950  -17.1420 N.am      2 SEC2        0.0000 
     41 N         -17.7750  -32.4120  -16.2790 N.am      7 SEP2        0.0000 
     42 N         -18.6030  -31.5550  -18.1925 N.am      2 SEC2        0.0000 
     43 CA        -14.0443  -26.8395  -26.2022 C.3       5 GLC5        0.0000 
     44 CA        -15.2820  -28.0940  -24.5570 C.3      15 GLL5        0.0000 
     45 CA        -13.2590  -25.4220  -27.3460 C.3      10 GLP5        0.0000 
     46 CA        -13.0347  -27.3375  -24.3433 C.3       5 GLC5        0.0000 
     47 CA        -14.3770  -28.4200  -25.5600 C.3      15 GLL5        0.0000 
     48 CA        -11.2400  -26.4180  -23.6280 C.3      10 GLP5        0.0000 
     49 CA        -16.9814  -30.5911  -27.3074 C.3       5 GLC5        0.0000 
     50 CA        -17.8920  -31.4610  -28.6700 C.3      10 GLP5        0.0000 
@<TRIPOS>BOND
@<TRIPOS>SUBSTRUCTURE
     1 ALC1       27 GROUP        1 X    ALC  0     ROOT ALC X 1
     2 SEC2       13 GROUP        1 X    SEC  0     **** SEC X 2
     3 LYC4       10 GROUP        1 X    LYC  0     **** LYC X 4
     4 ZIC7       21 GROUP        1 X    ZIC  0     **** ZIC X 5
     5 GLC5        1 GROUP        1 X    GLC  0     **** GLC X 6
     6 ALP1       29 GROUP        1 Y    ALP  0     ROOT ALP Y 8
     7 SEP2       15 GROUP        1 Y    SEP  0     **** SEP Y 9
     8 LYP4       12 GROUP        1 Y    LYP  0     **** LYP Y 11
     9 ZIP7       23 GROUP        1 Y    ZIP  0     **** ZIP Y 12
    10 GLP5        3 GROUP        1 Y    GLP  0     **** GLP Y 13
    11 ALL1       28 GROUP        1 Z    ALL  0     ROOT ALL Z 15
    12 SEL2       14 GROUP        1 Z    SEL  0     **** SEL Z 16
    13 LYL4       11 GROUP        1 Z    LYL  0     **** LYL Z 18
    14 ZIL7       22 GROUP        1 Z    ZIL  0     **** ZIL Z 19
    15 GLL5        2 GROUP        1 Z    GLL  0     **** GLL Z 20
@<TRIPOS>SET

