#    Name: 3fx6_BPX_2_ligand
#    Modification time : Tue Mar 25 06:43:52 2014

@<TRIPOS>MOLECULE
3fx6_BPX_2_ligand
   32    32     1     0     0
SMALL
NO_CHARGES


@<TRIPOS>ATOM
      1 CAJ       -15.2820  -28.0940  -24.5570 C.ar      1 BPX311      0.0000 
      2 CAI       -14.3770  -28.4200  -25.5600 C.ar      1 BPX311      0.0000 
      3 CAE       -14.6980  -29.3980  -26.4970 C.ar      1 BPX311      0.0000 
      4 CAD       -15.9250  -30.0470  -26.4300 C.ar      1 BPX311      0.0000 
      5 CAL       -16.8300  -29.7200  -25.4260 C.ar      1 BPX311      0.0000 
      6 CAK       -16.5100  -28.7450  -24.4880 C.ar      1 BPX311      0.0000 
      7 CAF       -17.5090  -28.4010  -23.3810 C.3       1 BPX311      0.0000 
      8 CAB       -17.3260  -29.3100  -22.1630 C.3       1 BPX311      0.0000 
      9 CAC       -16.0120  -28.9890  -21.4480 C.2       1 BPX311      0.0000 
     10 OAO       -15.5400  -29.8810  -20.7110 O.co2     1 BPX311      0.0000 
     11 OAN       -15.5130  -27.8600  -21.6470 O.co2     1 BPX311      0.0000 
     12 CAA       -18.4850  -29.1170  -21.1830 C.3       1 BPX311      0.0000 
     13 CAG       -19.3280  -30.3940  -21.1490 C.3       1 BPX311      0.0000 
     14 OAP       -19.8190  -30.6890  -22.4590 O.3       1 BPX311      0.0000 
     15 OAQ       -18.5040  -31.4750  -20.7040 O.3       1 BPX311      0.0000 
     16 CAH       -20.5010  -30.2250  -20.1810 C.3       1 BPX311      0.0000 
     17 NAM       -20.0080  -30.1970  -18.7960 N.pl3     1 BPX311      0.0000 
     18 OAS       -20.0550  -31.3780  -18.0050 O.2       1 BPX311      0.0000 
     19 OAR       -19.4860  -28.9950  -18.2460 O.2       1 BPX311      0.0000 
     20 H         -15.0448  -27.3712  -23.8648 H         1 BPX311      0.0000 
     21 H         -13.4694  -27.9390  -25.6108 H         1 BPX311      0.0000 
     22 H         -14.0273  -29.6393  -27.2376 H         1 BPX311      0.0000 
     23 H         -16.1641  -30.7687  -27.1222 H         1 BPX311      0.0000 
     24 H         -17.7387  -30.2010  -25.3774 H         1 BPX311      0.0000 
     25 H         -18.5231  -28.5161  -23.7647 H         1 BPX311      0.0000 
     26 H         -17.3656  -27.3633  -23.0783 H         1 BPX311      0.0000 
     27 H         -17.3085  -30.3321  -22.4830 H         1 BPX311      0.0000 
     28 H         -19.0989  -28.2902  -21.5108 H         1 BPX311      0.0000 
     29 H         -18.0919  -28.9200  -20.1958 H         1 BPX311      0.0000 
     30 H         -21.1918  -31.0568  -20.3292 H         1 BPX311      0.0000 
     31 H         -21.0184  -29.2960  -20.4265 H         1 BPX311      0.0000 
     32 H         -19.2649  -30.1292  -23.0751 H         1 BPX311      0.0000 
@<TRIPOS>BOND
     1    2    1 ar   
     2    6    1 ar   
     3   20    1 1    
     4    3    2 ar   
     5   21    2 1    
     6    4    3 ar   
     7   22    3 1    
     8    5    4 ar   
     9   23    4 1    
    10    6    5 ar   
    11   24    5 1    
    12    7    6 1    
    13    8    7 1    
    14   25    7 1    
    15   26    7 1    
    16    9    8 1    
    17   12    8 1    
    18   27    8 1    
    19   10    9 ar   
    20   11    9 ar   
    21   13   12 1    
    22   28   12 1    
    23   29   12 1    
    24   14   13 1    
    25   15   13 1    
    26   16   13 1    
    27   32   14 1    
    28   17   16 1    
    29   30   16 1    
    30   31   16 1    
    31   18   17 2    
    32   19   17 2    
@<TRIPOS>SUBSTRUCTURE
     1 BPX311      1 GROUP   
@<TRIPOS>SET

