#    Name: 3zdf_NAD_2_INTS_M
#    Modification time : Tue Mar 25 02:46:11 2014

@<TRIPOS>MOLECULE
3zdf_NAD_2_INTS_M
   73     0     9     0     0
SMALL
NO_CHARGES


@<TRIPOS>ATOM
      1 N          35.0020  -17.2775    3.2645 N.am      2 SEC2        0.0000 
      2 N          35.6160  -16.4620    4.2260 N.am      8 SEL2        0.0000 
      3 N          34.3880  -18.0930    2.3030 N.am      5 SEP2        0.0000 
      4 CA         35.0055  -11.8650    8.0605 C.3       3 GLC5        0.0000 
      5 CA         34.4010  -11.8870    6.2330 C.3       9 GLL5        0.0000 
      6 CA         35.6100  -11.8430    9.8880 C.3       6 GLP5        0.0000 
      7 CA         33.7980  -12.5785    8.4325 C.3       3 GLC5        0.0000 
      8 CA         33.0540  -12.4350    6.7140 C.3       9 GLL5        0.0000 
      9 CA         34.5420  -12.7220   10.1510 C.3       6 GLP5        0.0000 
     10 CA         32.2810  -14.3125    4.1330 C.3       3 GLC5        0.0000 
     11 CA         32.3250  -12.5300    5.3740 C.3       9 GLL5        0.0000 
     12 CA         32.2370  -16.0950    2.8920 C.3       6 GLP5        0.0000 
     13 CA         32.0730  -10.4135    4.9855 C.3       3 GLC5        0.0000 
     14 CA         31.8210   -8.2970    4.5970 C.3       6 GLP5        0.0000 
     15 CA         31.1395  -14.5505    3.8800 C.3       3 GLC5        0.0000 
     16 CA         30.0420  -13.0060    4.8680 C.3       9 GLL5        0.0000 
     17 CA         27.1695  -14.4225    5.3480 C.3       3 GLC5        0.0000 
     18 CA         28.9430  -13.8280    4.8470 C.3       9 GLL5        0.0000 
     19 CA         25.3960  -15.0170    5.8490 C.3       6 GLP5        0.0000 
     20 CA         27.6015  -14.9450    6.4125 C.3       3 GLC5        0.0000 
     21 CA         29.0440  -15.1230    5.3360 C.3       9 GLL5        0.0000 
     22 CA         26.1590  -14.7670    7.4890 C.3       6 GLP5        0.0000 
     23 CA         27.6170  -15.5230    3.6525 C.3       3 GLC5        0.0000 
     24 CA         26.1900  -15.9230    1.9690 C.3       6 GLP5        0.0000 
     25 CA         31.7870  -15.3890    4.3630 C.3       3 GLC5        0.0000 
     26 CA         31.3370  -14.6830    5.8340 C.3       9 GLL5        0.0000 
     27 N          38.6145  -15.2615    8.1500 N.am      2 SEC2        0.0000 
     28 N          38.9650  -16.3520    7.4870 N.am      8 SEL2        0.0000 
     29 N          38.2640  -14.1710    8.8130 N.am      5 SEP2        0.0000 
     30 N          37.2770  -18.8450    4.8690 N.am      2 SEC2        0.0000 
     31 N          37.8960  -18.4330    6.1470 N.am      8 SEL2        0.0000 
     32 N          36.6580  -19.2570    3.5910 N.am      5 SEP2        0.0000 
     33 CA         40.8110  -14.7120    2.0000 C.3       3 GLC5        0.0000 
     34 CA         40.6720  -15.5190    3.8750 C.3       9 GLL5        0.0000 
     35 CA         40.9500  -13.9050    0.1250 C.3       6 GLP5        0.0000 
     36 O          42.8390  -16.8720    2.2605 O.2       1 ALC1        0.0000 
     37 O          42.1560  -17.3380    3.4060 O.2       7 ALL1        0.0000 
     38 O          43.5220  -16.4060    1.1150 O.2       4 ALP1        0.0000 
     39 N          45.7065  -16.3000    4.4860 N.am      2 SEC2        0.0000 
     40 N          44.1930  -16.0840    4.7870 N.am      8 SEL2        0.0000 
     41 N          47.2200  -16.5160    4.1850 N.am      5 SEP2        0.0000 
     42 CA         41.8295  -14.1835    1.9110 C.3       3 GLC5        0.0000 
     43 CA         42.7090  -14.4620    3.6970 C.3       9 GLL5        0.0000 
     44 CA         42.4685  -13.1830    1.5695 C.3       3 GLC5        0.0000 
     45 CA         43.9870  -12.4610    3.0140 C.3       9 GLL5        0.0000 
     46 CA         45.3625  -13.4100    0.2295 C.3       3 GLC5        0.0000 
     47 CA         45.0730  -11.7280    1.0830 C.3       9 GLL5        0.0000 
     48 CA         45.6520  -15.0920   -0.6240 C.3       6 GLP5        0.0000 
     49 CA         46.0555  -12.9385    2.5955 C.3       3 GLC5        0.0000 
     50 CA         47.0380  -14.1490    4.1080 C.3       6 GLP5        0.0000 
     51 CA         43.1635  -11.1540    1.2915 C.3       3 GLC5        0.0000 
     52 CA         41.2540  -10.5800    1.5000 C.3       6 GLP5        0.0000 
     53 CA         46.9230   -9.6025    2.3710 C.3       3 GLC5        0.0000 
     54 CA         45.1240  -10.2160    2.9480 C.3       9 GLL5        0.0000 
     55 CA         48.7220   -8.9890    1.7940 C.3       6 GLP5        0.0000 
     56 O          46.3975   -8.0685    2.8900 O.2       1 ALC1        0.0000 
     57 O          45.4620   -9.0530    3.5740 O.2       7 ALL1        0.0000 
     58 O          47.3330   -7.0840    2.2060 O.2       4 ALP1        0.0000 
     59 CA         35.8645  -10.8805    5.6185 C.3       3 GLC5        0.0000 
     60 CA         34.6310  -12.5130    4.8910 C.3       9 GLL5        0.0000 
     61 CA         37.2130   -9.5610    5.6750 C.3       6 GLP5        0.0000 
     62 CA         30.3514  -16.0371    4.1079 C.3       3 GLC5        0.0000 
     63 CA         30.2760  -15.5590    5.8280 C.3       9 GLL5        0.0000 
     64 CA         31.0680  -17.0570    2.7560 C.3       6 GLP5        0.0000 
     65 CA         39.7737  -13.3365    3.7765 C.3       3 GLC5        0.0000 
     66 CA         39.4180  -11.2820    3.1550 C.3       6 GLP5        0.0000 
     67 CA         39.8531  -17.1668    3.5412 C.3       3 GLC5        0.0000 
     68 CA         39.5870  -15.2630    4.9210 C.3       9 GLL5        0.0000 
     69 CA         38.7580  -18.4150    2.6630 C.3       6 GLP5        0.0000 
     70 CA         44.9205  -14.5645    4.1837 C.3       3 GLC5        0.0000 
     71 CA         42.8970  -15.4980    4.8220 C.3       9 GLL5        0.0000 
     72 CA         45.5995  -12.9880    3.7350 C.3       3 GLC5        0.0000 
     73 CA         42.9483  -10.8008    2.3275 C.3       3 GLC5        0.0000 
@<TRIPOS>BOND
@<TRIPOS>SUBSTRUCTURE
     1 ALC1       36 GROUP        1 X    ALC  0     ROOT ALC X 1
     2 SEC2        1 GROUP        1 X    SEC  0     **** SEC X 2
     3 GLC5        4 GROUP        1 X    GLC  0     **** GLC X 6
     4 ALP1       38 GROUP        1 Y    ALP  0     ROOT ALP Y 8
     5 SEP2        3 GROUP        1 Y    SEP  0     **** SEP Y 9
     6 GLP5        6 GROUP        1 Y    GLP  0     **** GLP Y 13
     7 ALL1       37 GROUP        1 Z    ALL  0     ROOT ALL Z 15
     8 SEL2        2 GROUP        1 Z    SEL  0     **** SEL Z 16
     9 GLL5        5 GROUP        1 Z    GLL  0     **** GLL Z 20
@<TRIPOS>SET

