#    Name: 3zdf_NAD_2_ligand
#    Modification time : Tue Mar 25 02:46:11 2014

@<TRIPOS>MOLECULE
3zdf_NAD_2_ligand
   70    74     1     0     0
SMALL
NO_CHARGES


@<TRIPOS>ATOM
      1 PN         35.4720  -16.2290    5.7440 P.3       1 NAD1001     0.0000 
      2 O1N        35.6160  -16.4620    4.2260 O.co2     1 NAD1001     0.0000 
      3 O2N        34.5730  -16.9630    6.7230 O.co2     1 NAD1001     0.0000 
      4 O3         36.8470  -16.0780    6.5260 O.3       1 NAD1001     0.0000 
      5 O5D        34.9520  -14.6850    5.8280 O.3       1 NAD1001     0.0000 
      6 C5D        35.5430  -13.7180    4.9770 C.3       1 NAD1001     0.0000 
      7 C4D        34.6310  -12.5130    4.8910 C.3       1 NAD1001     0.0000 
      8 O4D        33.3160  -12.8450    4.3730 O.3       1 NAD1001     0.0000 
      9 C3D        34.4010  -11.8870    6.2330 C.3       1 NAD1001     0.0000 
     10 O3D        34.2790  -10.5130    5.9640 O.3       1 NAD1001     0.0000 
     11 C2D        33.0540  -12.4350    6.7140 C.3       1 NAD1001     0.0000 
     12 O2D        32.3710  -11.5550    7.6140 O.3       1 NAD1001     0.0000 
     13 C1D        32.3250  -12.5300    5.3740 C.3       1 NAD1001     0.0000 
     14 N1N        31.1990  -13.4510    5.3690 N.pl3     1 NAD1001     0.0000 
     15 C6N        30.0420  -13.0060    4.8680 C.ar      1 NAD1001     0.0000 
     16 C5N        28.9430  -13.8280    4.8470 C.ar      1 NAD1001     0.0000 
     17 C4N        29.0440  -15.1230    5.3360 C.ar      1 NAD1001     0.0000 
     18 C3N        30.2760  -15.5590    5.8280 C.ar      1 NAD1001     0.0000 
     19 C2N        31.3370  -14.6830    5.8340 C.ar      1 NAD1001     0.0000 
     20 C7N        30.4680  -16.9430    6.4140 C.2       1 NAD1001     0.0000 
     21 O7N        31.5920  -17.4090    6.5250 O.2       1 NAD1001     0.0000 
     22 PA         38.1470  -16.9590    6.3790 P.3       1 NAD1001     0.0000 
     23 O1A        38.9650  -16.3520    7.4870 O.co2     1 NAD1001     0.0000 
     24 O2A        37.8960  -18.4330    6.1470 O.co2     1 NAD1001     0.0000 
     25 O5B        38.7180  -16.4220    4.9710 O.3       1 NAD1001     0.0000 
     26 C5B        39.5870  -15.2630    4.9210 C.3       1 NAD1001     0.0000 
     27 C4B        40.6720  -15.5190    3.8750 C.3       1 NAD1001     0.0000 
     28 O4B        41.2740  -14.2700    3.4620 O.3       1 NAD1001     0.0000 
     29 C3B        41.7670  -16.4460    4.4410 C.3       1 NAD1001     0.0000 
     30 O3B        42.1560  -17.3380    3.4060 O.3       1 NAD1001     0.0000 
     31 C2B        42.8970  -15.4980    4.8220 C.3       1 NAD1001     0.0000 
     32 O2B        44.1930  -16.0840    4.7870 O.3       1 NAD1001     0.0000 
     33 C1B        42.7090  -14.4620    3.6970 C.3       1 NAD1001     0.0000 
     34 N9A        43.3090  -13.1440    3.9530 N.pl3     1 NAD1001     0.0000 
     35 C4A        43.9870  -12.4610    3.0140 C.ar      1 NAD1001     0.0000 
     36 N3A        44.3840  -12.6910    1.7180 N.ar      1 NAD1001     0.0000 
     37 C2A        45.0730  -11.7280    1.0830 C.ar      1 NAD1001     0.0000 
     38 N1A        45.4390  -10.5480    1.6620 N.ar      1 NAD1001     0.0000 
     39 C6A        45.1240  -10.2160    2.9480 C.ar      1 NAD1001     0.0000 
     40 C5A        44.3350  -11.1930    3.7100 C.ar      1 NAD1001     0.0000 
     41 N7A        43.8540  -11.2430    4.9800 N.2       1 NAD1001     0.0000 
     42 C8A        43.2120  -12.4300    5.1090 C.2       1 NAD1001     0.0000 
     43 N6A        45.4620   -9.0530    3.5740 N.pl3     1 NAD1001     0.0000 
     44 N7N        29.3840  -17.5910    6.8300 N.am      1 NAD1001     0.0000 
     45 H          35.6916  -14.1032    3.9618 H         1 NAD1001     0.0000 
     46 H          36.5150  -13.3807    5.3546 H         1 NAD1001     0.0000 
     47 H          35.0925  -11.7640    4.2502 H         1 NAD1001     0.0000 
     48 H          35.1528  -12.1412    6.8846 H         1 NAD1001     0.0000 
     49 H          33.2041  -13.4141    7.0688 H         1 NAD1001     0.0000 
     50 H          31.9533  -11.4977    5.1651 H         1 NAD1001     0.0000 
     51 H          29.9584  -12.0405    4.4907 H         1 NAD1001     0.0000 
     52 H          28.0450  -13.4922    4.4718 H         1 NAD1001     0.0000 
     53 H          28.2382  -15.7457    5.3377 H         1 NAD1001     0.0000 
     54 H          32.2534  -15.0161    6.2150 H         1 NAD1001     0.0000 
     55 H          40.0724  -15.0888    5.8787 H         1 NAD1001     0.0000 
     56 H          39.0400  -14.3685    4.6315 H         1 NAD1001     0.0000 
     57 H          40.2206  -16.0210    3.0307 H         1 NAD1001     0.0000 
     58 H          41.3893  -16.9114    5.2989 H         1 NAD1001     0.0000 
     59 H          42.6333  -15.0202    5.7262 H         1 NAD1001     0.0000 
     60 H          43.1436  -14.8878    2.7834 H         1 NAD1001     0.0000 
     61 H          45.3544  -11.8872    0.0662 H         1 NAD1001     0.0000 
     62 H          42.7482  -12.7316    5.9096 H         1 NAD1001     0.0000 
     63 H          45.1289   -8.9445    4.5106 H         1 NAD1001     0.0000 
     64 H          46.0133   -8.4107    3.0414 H         1 NAD1001     0.0000 
     65 H          28.5169  -17.1010    6.7403 H         1 NAD1001     0.0000 
     66 H          29.5336  -18.5099    7.1950 H         1 NAD1001     0.0000 
     67 H          33.5776  -10.1866    6.5976 H         1 NAD1001     0.0000 
     68 H          31.4397  -11.4903    7.2556 H         1 NAD1001     0.0000 
     69 H          42.5886  -16.7592    2.7147 H         1 NAD1001     0.0000 
     70 H          44.0529  -16.9992    4.4093 H         1 NAD1001     0.0000 
@<TRIPOS>BOND
     1    2    1 ar   
     2    3    1 ar   
     3    4    1 1    
     4    5    1 1    
     5   22    4 1    
     6    6    5 1    
     7    7    6 1    
     8   45    6 1    
     9   46    6 1    
    10    8    7 1    
    11    9    7 1    
    12   47    7 1    
    13   13    8 1    
    14   10    9 1    
    15   11    9 1    
    16   48    9 1    
    17   67   10 1    
    18   12   11 1    
    19   13   11 1    
    20   49   11 1    
    21   68   12 1    
    22   14   13 1    
    23   50   13 1    
    24   15   14 ar   
    25   19   14 ar   
    26   16   15 ar   
    27   51   15 1    
    28   17   16 ar   
    29   52   16 1    
    30   18   17 ar   
    31   53   17 1    
    32   19   18 ar   
    33   20   18 1    
    34   54   19 1    
    35   21   20 2    
    36   44   20 am   
    37   23   22 ar   
    38   24   22 ar   
    39   25   22 1    
    40   26   25 1    
    41   27   26 1    
    42   55   26 1    
    43   56   26 1    
    44   28   27 1    
    45   29   27 1    
    46   57   27 1    
    47   33   28 1    
    48   30   29 1    
    49   31   29 1    
    50   58   29 1    
    51   69   30 1    
    52   32   31 1    
    53   33   31 1    
    54   59   31 1    
    55   70   32 1    
    56   34   33 1    
    57   60   33 1    
    58   35   34 1    
    59   42   34 1    
    60   36   35 ar   
    61   40   35 ar   
    62   37   36 ar   
    63   38   37 ar   
    64   61   37 1    
    65   39   38 ar   
    66   40   39 ar   
    67   43   39 1    
    68   41   40 1    
    69   42   41 2    
    70   62   42 1    
    71   63   43 1    
    72   64   43 1    
    73   65   44 1    
    74   66   44 1    
@<TRIPOS>SUBSTRUCTURE
     1 NAD1001     1 GROUP   
@<TRIPOS>SET

