#    Name: 2ggb_U17_1_INTS_M
#    Modification time : Tue Mar 25 14:24:29 2014

@<TRIPOS>MOLECULE
2ggb_U17_1_INTS_M
   59     0    12     0     0
SMALL
NO_CHARGES


@<TRIPOS>ATOM
      1 CA         15.5615   -1.1845   14.3980 C.3       4 GLC5        0.0000 
      2 CA         15.8260    0.8810   15.1350 C.3      12 GLL5        0.0000 
      3 CA         15.2970   -3.2500   13.6610 C.3       8 GLP5        0.0000 
      4 CA         17.6380    1.6700   16.9015 C.3       4 GLC5        0.0000 
      5 CA         17.0790    1.0250   15.0260 C.3      12 GLL5        0.0000 
      6 CA         18.1970    2.3150   18.7770 C.3       8 GLP5        0.0000 
      7 CA         18.7650    1.6450   13.9970 C.3       4 GLC5        0.0000 
      8 CA         20.4510    2.2650   12.9680 C.3       8 GLP5        0.0000 
      9 Zn         10.5650    2.0000   14.7840 Zn        3 ZIC7        0.0000 
     10 Zn         11.5590    2.2330   14.8480 Zn       11 ZIL7        0.0000 
     11 Zn          9.5710    1.7670   14.7200 Zn        7 ZIP7        0.0000 
     12 Zn          9.4560    0.6185   17.0865 Zn        3 ZIC7        0.0000 
     13 Zn          9.9660    0.3670   16.3480 Zn       11 ZIL7        0.0000 
     14 Zn          8.9460    0.8700   17.8250 Zn        7 ZIP7        0.0000 
     15 Zn          9.7685    1.0670   15.5340 Zn        3 ZIC7        0.0000 
     16 O           9.2510   -0.6735   16.1370 O.2       1 ALC1        0.0000 
     17 O           9.9660    0.3670   16.3480 O.2       9 ALL1        0.0000 
     18 O           8.5360   -1.7140   15.9260 O.2       5 ALP1        0.0000 
     19 O           8.9560   -0.3930   17.1515 O.2       1 ALC1        0.0000 
     20 O           7.9460   -1.1530   17.9550 O.2       5 ALP1        0.0000 
     21 CA         11.4085   -5.4120   18.1990 C.3       4 GLC5        0.0000 
     22 CA         11.5530   -3.4290   19.2040 C.3      12 GLL5        0.0000 
     23 CA         11.2640   -7.3950   17.1940 C.3       8 GLP5        0.0000 
     24 CA         10.2720   -1.7335   19.9275 C.3       4 GLC5        0.0000 
     25 CA          8.9910   -0.0380   20.6510 C.3       8 GLP5        0.0000 
     26 N          10.6505   -5.5965   19.8365 N.am      2 SEC2        0.0000 
     27 N          11.9070   -4.6400   19.9070 N.am     10 SEL2        0.0000 
     28 N           9.3940   -6.5530   19.7660 N.am      6 SEP2        0.0000 
     29 N          14.4980   -3.7630   16.1335 N.am      2 SEC2        0.0000 
     30 N          13.9350   -3.8170   17.3340 N.am     10 SEL2        0.0000 
     31 N          15.0610   -3.7090   14.9330 N.am      6 SEP2        0.0000 
     32 CA         15.6555   -5.6970   18.1800 C.3       4 GLC5        0.0000 
     33 CA         16.2600   -3.9270   19.2180 C.3      12 GLL5        0.0000 
     34 CA         15.0510   -7.4670   17.1420 C.3       8 GLP5        0.0000 
     35 CA         17.4895   -0.7700   19.6720 C.3       4 GLC5        0.0000 
     36 CA         17.4030   -3.0110   19.6870 C.3      12 GLL5        0.0000 
     37 CA         17.5760    1.4710   19.6570 C.3       8 GLP5        0.0000 
     38 CA         18.2735   -0.0110   19.0990 C.3       4 GLC5        0.0000 
     39 CA         18.9710   -1.4930   18.5410 C.3      12 GLL5        0.0000 
     40 CA         20.6465   -0.7715   19.0615 C.3       4 GLC5        0.0000 
     41 CA         22.3220   -0.0500   19.5820 C.3       8 GLP5        0.0000 
     42 CA         20.8150   -1.8650   20.2650 C.3       4 GLC5        0.0000 
     43 CA         19.9340   -3.5930   19.5860 C.3      12 GLL5        0.0000 
     44 CA         21.6960   -0.1370   20.9440 C.3       8 GLP5        0.0000 
     45 CA         15.7545   -7.5685   18.8760 C.3       4 GLC5        0.0000 
     46 CA         16.4580   -7.6700   20.6100 C.3      12 GLL5        0.0000 
     47 CA         15.2240    2.9160   14.5427 C.3       4 GLC5        0.0000 
     48 CA         14.6520    0.8930   15.4580 C.3      12 GLL5        0.0000 
     49 CA         15.2090    4.9450   13.7890 C.3       8 GLP5        0.0000 
     50 CA         13.7091    2.5473   16.7944 C.3       4 GLC5        0.0000 
     51 CA         13.6630    4.0300   17.8520 C.3       8 GLP5        0.0000 
     52 CA         15.9520    0.8050   13.2151 C.3       4 GLC5        0.0000 
     53 CA         15.7450    0.6540   11.2690 C.3       8 GLP5        0.0000 
     54 CA         12.1710   -1.3762   20.1923 C.3       4 GLC5        0.0000 
     55 CA         12.6730   -2.5020   18.6490 C.3      12 GLL5        0.0000 
     56 CA         12.2290    0.2130   21.4580 C.3       8 GLP5        0.0000 
     57 CA         19.7527   -2.0215   16.8645 C.3       4 GLC5        0.0000 
     58 CA         18.7160   -2.9570   18.8890 C.3      12 GLL5        0.0000 
     59 CA         20.6620   -1.8180   15.0140 C.3       8 GLP5        0.0000 
@<TRIPOS>BOND
@<TRIPOS>SUBSTRUCTURE
     1 ALC1       16 GROUP        1 X    ALC  0     ROOT ALC X 1
     2 SEC2       26 GROUP        1 X    SEC  0     **** SEC X 2
     3 ZIC7        9 GROUP        1 X    ZIC  0     **** ZIC X 5
     4 GLC5        1 GROUP        1 X    GLC  0     **** GLC X 6
     5 ALP1       18 GROUP        1 Y    ALP  0     ROOT ALP Y 8
     6 SEP2       28 GROUP        1 Y    SEP  0     **** SEP Y 9
     7 ZIP7       11 GROUP        1 Y    ZIP  0     **** ZIP Y 12
     8 GLP5        3 GROUP        1 Y    GLP  0     **** GLP Y 13
     9 ALL1       17 GROUP        1 Z    ALL  0     ROOT ALL Z 15
    10 SEL2       27 GROUP        1 Z    SEL  0     **** SEL Z 16
    11 ZIL7       10 GROUP        1 Z    ZIL  0     **** ZIL Z 19
    12 GLL5        2 GROUP        1 Z    GLL  0     **** GLL Z 20
@<TRIPOS>SET

