#    Name: 2ggb_U17_1_ligand
#    Modification time : Tue Mar 25 14:24:29 2014

@<TRIPOS>MOLECULE
2ggb_U17_1_ligand
   59    58     1     0     0
SMALL
NO_CHARGES


@<TRIPOS>ATOM
      1 O2         11.7200    0.1630   18.2710 O.2       1 U17304      0.0000 
      2 C10        11.8330   -0.5760   17.3440 C.2       1 U17304      0.0000 
      3 C9         11.3310    0.0510   16.0890 C.3       1 U17304      0.0000 
      4 C7         12.1140    1.3370   15.8870 C.3       1 U17304      0.0000 
      5 C3         13.6030    1.1350   16.1440 C.3       1 U17304      0.0000 
      6 C6         14.6520    0.8930   15.4580 C.3       1 U17304      0.0000 
      7 C2         15.8260    0.8810   15.1350 C.3       1 U17304      0.0000 
      8 C5         17.0790    1.0250   15.0260 C.3       1 U17304      0.0000 
      9 N1         11.5590    2.2330   14.8480 N.3       1 U17304      0.0000 
     10 O1          9.9660    0.3670   16.3480 O.3       1 U17304      0.0000 
     11 N2         12.3270   -1.8050   17.4010 N.am      1 U17304      0.0000 
     12 C11        12.6730   -2.5020   18.6490 C.3       1 U17304      0.0000 
     13 C13        11.5530   -3.4290   19.2040 C.3       1 U17304      0.0000 
     14 O6         11.9070   -4.6400   19.9070 O.3       1 U17304      0.0000 
     15 C12        13.9840   -3.1920   18.3740 C.2       1 U17304      0.0000 
     16 O3         13.9350   -3.8170   17.3340 O.2       1 U17304      0.0000 
     17 N3         15.0520   -3.0880   19.1930 N.am      1 U17304      0.0000 
     18 C14        16.2600   -3.9270   19.2180 C.3       1 U17304      0.0000 
     19 C15        17.4030   -3.0110   19.6870 C.3       1 U17304      0.0000 
     20 C17        18.7160   -2.9570   18.8890 C.3       1 U17304      0.0000 
     21 C18        18.9710   -1.4930   18.5410 C.3       1 U17304      0.0000 
     22 C19        19.9340   -3.5930   19.5860 C.3       1 U17304      0.0000 
     23 C16        16.1670   -5.1550   20.1320 C.2       1 U17304      0.0000 
     24 O4         15.7340   -5.0330   21.2750 O.2       1 U17304      0.0000 
     25 O5         16.5750   -6.5220   19.7510 O.3       1 U17304      0.0000 
     26 C20        16.4580   -7.6700   20.6100 C.3       1 U17304      0.0000 
     27 H          11.4627   -0.5896   15.2826 H         1 U17304      0.0000 
     28 H          11.7824    1.9187   16.9350 H         1 U17304      0.0000 
     29 H          13.5639    0.3499   17.1119 H         1 U17304      0.0000 
     30 H          13.8345    2.0897   16.9119 H         1 U17304      0.0000 
     31 H          14.0964    1.1174   14.2105 H         1 U17304      0.0000 
     32 H          14.3240   -0.4014   15.0945 H         1 U17304      0.0000 
     33 H          15.5820    0.9801   13.7312 H         1 U17304      0.0000 
     34 H          15.8343   -0.4802   14.7026 H         1 U17304      0.0000 
     35 H          12.5050   -2.3696   16.5239 H         1 U17304      0.0000 
     36 H          12.8778   -1.7280   19.4193 H         1 U17304      0.0000 
     37 H          10.8747   -3.6656   18.3243 H         1 U17304      0.0000 
     38 H          10.8932   -2.7720   19.8544 H         1 U17304      0.0000 
     39 H          15.0630   -2.3049   19.9383 H         1 U17304      0.0000 
     40 H          16.5099   -4.2486   18.2148 H         1 U17304      0.0000 
     41 H          17.6524   -3.2814   20.7526 H         1 U17304      0.0000 
     42 H          16.9991   -1.9616   19.7670 H         1 U17304      0.0000 
     43 H          18.5443   -3.4826   17.9387 H         1 U17304      0.0000 
     44 H          17.4466    1.6276   15.7343 H         1 U17304      0.0000 
     45 H          17.5613    0.1525   15.1042 H         1 U17304      0.0000 
     46 H          17.3319    1.4216   14.1435 H         1 U17304      0.0000 
     47 H          11.7521    3.1942   15.0448 H         1 U17304      0.0000 
     48 H          11.9412    2.0361   13.9451 H         1 U17304      0.0000 
     49 H          19.0514   -0.9251   19.3602 H         1 U17304      0.0000 
     50 H          19.8165   -1.3770   18.0198 H         1 U17304      0.0000 
     51 H          18.2313   -1.1082   17.9890 H         1 U17304      0.0000 
     52 H          20.7576   -3.5337   19.0219 H         1 U17304      0.0000 
     53 H          20.1411   -3.1437   20.4551 H         1 U17304      0.0000 
     54 H          19.7842   -4.5615   19.7851 H         1 U17304      0.0000 
     55 H          16.7882   -8.5023   20.1647 H         1 U17304      0.0000 
     56 H          16.9858   -7.5591   21.4521 H         1 U17304      0.0000 
     57 H          15.5095   -7.8378   20.8785 H         1 U17304      0.0000 
     58 H           9.5484   -0.4981   16.6259 H         1 U17304      0.0000 
     59 H          12.8728   -4.7893   19.6949 H         1 U17304      0.0000 
@<TRIPOS>BOND
     1    2    1 2    
     2    3    2 1    
     3   11    2 am   
     4    4    3 1    
     5   10    3 1    
     6   27    3 1    
     7    5    4 1    
     8    9    4 1    
     9   28    4 1    
    10    6    5 1    
    11   29    5 1    
    12   30    5 1    
    13    7    6 1    
    14   31    6 1    
    15   32    6 1    
    16    8    7 1    
    17   33    7 1    
    18   34    7 1    
    19   44    8 1    
    20   45    8 1    
    21   46    8 1    
    22   47    9 1    
    23   48    9 1    
    24   58   10 1    
    25   12   11 1    
    26   35   11 1    
    27   13   12 1    
    28   15   12 1    
    29   36   12 1    
    30   14   13 1    
    31   37   13 1    
    32   38   13 1    
    33   59   14 1    
    34   16   15 2    
    35   17   15 am   
    36   18   17 1    
    37   39   17 1    
    38   19   18 1    
    39   23   18 1    
    40   40   18 1    
    41   20   19 1    
    42   41   19 1    
    43   42   19 1    
    44   21   20 1    
    45   22   20 1    
    46   43   20 1    
    47   49   21 1    
    48   50   21 1    
    49   51   21 1    
    50   52   22 1    
    51   53   22 1    
    52   54   22 1    
    53   24   23 2    
    54   25   23 1    
    55   26   25 1    
    56   55   26 1    
    57   56   26 1    
    58   57   26 1    
@<TRIPOS>SUBSTRUCTURE
     1 U17304      1 GROUP   
@<TRIPOS>SET

