#    Name: 1A9P_1_CAVITY_N1_6.mol2
#    Modification time : Mon Mar 10 12:50:46 2014

@<TRIPOS>MOLECULE
1A9P_1_CAVITY_N1_6.mol2
   73     0     6     0     0
SMALL
NO_CHARGES


@<TRIPOS>ATOM
      1 CZ         25.2627   88.9424   81.7021 C.ar      4 PHE5        0.0000 
      2 CZ         23.8044   90.2844   80.9456 C.ar      4 PHE5        0.0000 
      3 CA         23.2155   88.6661   82.1842 C.3       5 GLY6        0.0000 
      4 CZ         23.9969   88.7972   80.9105 C.ar      4 PHE5        0.0000 
      5 N          23.4079   87.1789   82.1491 N.2       2 ALA2        0.0000 
      6 N          24.1894   87.3101   80.8754 N.2       2 ALA2        0.0000 
      7 O          22.5386   90.1393   80.1540 O.2       2 ALA2        0.0000 
      8 NZ         26.4456   90.7952   73.7858 N.2       3 LYS4        0.0000 
      9 CA         21.1682   88.3897   82.6662 C.3       5 GLY6        0.0000 
     10 CA         21.9496   88.5209   81.3926 C.3       5 GLY6        0.0000 
     11 CZ         22.7310   88.6521   80.1189 C.ar      4 PHE5        0.0000 
     12 CZ         23.5124   88.7833   78.8453 C.ar      4 PHE5        0.0000 
     13 DU         21.3607   86.9025   82.6311 H         6 CUB7        0.0000 
     14 N          22.1421   87.0337   81.3575 N.2       2 ALA2        0.0000 
     15 N          22.9235   87.1649   80.0838 N.2       2 ALA2        0.0000 
     16 CA         22.3346   85.5465   81.3224 C.3       5 GLY6        0.0000 
     17 CZ         22.6431   91.7437   76.8503 C.ar      4 PHE5        0.0000 
     18 CZ         23.4245   91.8749   75.5766 C.ar      4 PHE5        0.0000 
     19 N          24.2059   92.0061   74.3030 N.2       2 ALA2        0.0000 
     20 CZ         22.0541   90.1253   78.0888 C.ar      4 PHE5        0.0000 
     21 CZ         22.8355   90.2565   76.8152 C.ar      4 PHE5        0.0000 
     22 CZ         24.3984   90.5189   74.2679 C.ar      4 PHE5        0.0000 
     23 N          25.1798   90.6501   72.9942 N.2       2 ALA2        0.0000 
     24 N          19.9024   88.2446   81.8747 N.2       2 ALA2        0.0000 
     25 O          20.6838   88.3758   80.6010 O.2       2 ALA2        0.0000 
     26 O          21.4652   88.5070   79.3274 O.2       2 ALA2        0.0000 
     27 CZ         22.2466   88.6382   78.0537 C.ar      4 PHE5        0.0000 
     28 CZ         23.0280   88.7693   76.7801 C.ar      4 PHE5        0.0000 
     29 CZ         23.8094   88.9005   75.5064 C.ar      4 PHE5        0.0000 
     30 CA         24.5908   89.0317   74.2328 C.3       5 GLY6        0.0000 
     31 NZ         25.3722   89.1629   72.9591 N.2       3 LYS4        0.0000 
     32 CZ         20.0949   86.7574   81.8396 C.ar      4 PHE5        0.0000 
     33 OG         20.8763   86.8886   80.5659 O.2       1 SER1        0.0000 
     34 N          21.6577   87.0198   79.2923 N.2       2 ALA2        0.0000 
     35 CA         22.4391   87.1510   78.0186 C.3       5 GLY6        0.0000 
     36 CZ         21.0687   85.4014   80.5308 C.ar      4 PHE5        0.0000 
     37 NZ         20.5958   91.4674   77.3324 N.2       3 LYS4        0.0000 
     38 NZ         21.3772   91.5986   76.0587 N.2       3 LYS4        0.0000 
     39 N          22.1586   91.7298   74.7850 N.2       2 ALA2        0.0000 
     40 O          22.9400   91.8610   73.5114 O.2       2 ALA2        0.0000 
     41 O          20.0069   89.8490   78.5709 O.2       2 ALA2        0.0000 
     42 O          20.7883   89.9802   77.2973 O.2       2 ALA2        0.0000 
     43 DU         21.5697   90.1114   76.0236 H         6 CUB7        0.0000 
     44 CZ         22.3511   90.2426   74.7499 C.ar      4 PHE5        0.0000 
     45 N          23.1325   90.3738   73.4763 N.2       2 ALA2        0.0000 
     46 CA         18.6365   88.0995   81.0831 C.3       5 GLY6        0.0000 
     47 OG         19.4179   88.2306   79.8095 O.2       1 SER1        0.0000 
     48 OG         20.1994   88.3618   78.5358 O.2       1 SER1        0.0000 
     49 CA         20.9808   88.4930   77.2622 C.3       5 GLY6        0.0000 
     50 CA         21.7622   88.6242   75.9885 C.3       5 GLY6        0.0000 
     51 CA         22.5436   88.7554   74.7148 C.3       5 GLY6        0.0000 
     52 CA         23.3250   88.8866   73.4412 C.3       5 GLY6        0.0000 
     53 OG         18.8290   86.6123   81.0480 O.2       1 SER1        0.0000 
     54 CA         21.1732   87.0058   77.2271 C.3       5 GLY6        0.0000 
     55 OG         19.3300   91.3223   76.5408 O.2       1 SER1        0.0000 
     56 NZ         20.1114   91.4534   75.2671 N.2       3 LYS4        0.0000 
     57 OG         18.7410   89.7039   77.7793 O.2       1 SER1        0.0000 
     58 OG         19.5224   89.8351   76.5057 O.2       1 SER1        0.0000 
     59 N          20.3039   89.9663   75.2320 N.2       2 ALA2        0.0000 
     60 N          21.0853   90.0974   73.9584 N.2       2 ALA2        0.0000 
     61 N          21.8667   90.2286   72.6847 N.2       2 ALA2        0.0000 
     62 OG         19.7149   88.3479   76.4706 O.2       1 SER1        0.0000 
     63 CA         20.4963   88.4791   75.1969 C.3       5 GLY6        0.0000 
     64 O          21.2777   88.6103   73.9233 O.2       2 ALA2        0.0000 
     65 N          18.8455   91.3083   74.4756 N.2       2 ALA2        0.0000 
     66 OG         18.2566   89.6899   75.7141 O.2       1 SER1        0.0000 
     67 N          19.0380   89.8211   74.4405 N.2       2 ALA2        0.0000 
     68 N          18.4491   88.2027   75.6790 N.2       2 ALA2        0.0000 
     69 O          19.2305   88.3339   74.4054 O.2       2 ALA2        0.0000 
     70 O          20.0119   88.4651   73.1317 O.2       2 ALA2        0.0000 
     71 OG         16.9908   89.5448   74.9226 O.2       1 SER1        0.0000 
     72 N          17.7722   89.6760   73.6489 N.2       2 ALA2        0.0000 
     73 N          17.9646   88.1888   73.6138 N.2       2 ALA2        0.0000 
@<TRIPOS>BOND
@<TRIPOS>SUBSTRUCTURE
     1 SER1       33 GROUP   
     2 ALA2        5 GROUP   
     3 LYS4        8 GROUP   
     4 PHE5        1 GROUP   
     5 GLY6        3 GROUP   
     6 CUB7       13 GROUP   
@<TRIPOS>SET

