#    Name: 1a9p_9DI_1_INTS_M
#    Modification time : Mon Mar 24 18:08:29 2014

@<TRIPOS>MOLECULE
1a9p_9DI_1_INTS_M
   49     0     9     0     0
SMALL
NO_CHARGES


@<TRIPOS>ATOM
      1 CA         22.6430   89.2605   72.0210 C.3       3 GLC5        0.0000 
      2 CA         23.2390   90.3500   73.8210 C.3       9 GLL5        0.0000 
      3 CA         22.0470   88.1710   70.2210 C.3       6 GLP5        0.0000 
      4 O          27.1370   89.2770   72.9270 O.2       1 ALC1        0.0000 
      5 O          25.7420   89.7860   73.1540 O.2       7 ALL1        0.0000 
      6 O          28.5320   88.7680   72.7000 O.2       4 ALP1        0.0000 
      7 N          26.8095   93.3855   73.6230 N.am      2 SEC2        0.0000 
      8 N          26.4360   91.9350   73.3010 N.am      8 SEL2        0.0000 
      9 N          27.1830   94.8360   73.9450 N.am      5 SEP2        0.0000 
     10 CA         22.9530   92.2560   72.0970 C.3       3 GLC5        0.0000 
     11 CA         24.1440   91.4050   73.7450 C.3       9 GLL5        0.0000 
     12 CA         21.7620   93.1070   70.4490 C.3       6 GLP5        0.0000 
     13 CA         24.8125   92.5925   72.2335 C.3       3 GLC5        0.0000 
     14 CA         25.4810   93.7800   70.7220 C.3       6 GLP5        0.0000 
     15 O          24.2520   93.8805   74.0390 O.2       1 ALC1        0.0000 
     16 O          23.5380   92.6080   74.0410 O.2       7 ALL1        0.0000 
     17 O          24.9660   95.1530   74.0370 O.2       4 ALP1        0.0000 
     18 CA         20.3760   93.2425   73.9810 C.3       3 GLC5        0.0000 
     19 CA         22.2250   92.3430   74.3130 C.3       9 GLL5        0.0000 
     20 CA         18.5270   94.1420   73.6490 C.3       6 GLP5        0.0000 
     21 CA         22.1035   93.6075   76.1240 C.3       3 GLC5        0.0000 
     22 CA         21.9820   94.8720   77.9350 C.3       6 GLP5        0.0000 
     23 CA         23.2340   90.4960   78.0200 C.3       3 GLC5        0.0000 
     24 CA         21.2870   90.1920   77.7100 C.3       9 GLL5        0.0000 
     25 CA         25.1810   90.8000   78.3300 C.3       6 GLP5        0.0000 
     26 N          20.8490   91.7370   79.3020 N.am      2 SEC2        0.0000 
     27 N          21.3420   91.6080   77.9990 N.am      8 SEL2        0.0000 
     28 N          20.3560   91.8660   80.6050 N.am      5 SEP2        0.0000 
     29 CA         18.3345   91.2045   76.8105 C.3       3 GLC5        0.0000 
     30 CA         20.1200   89.9180   76.7860 C.3       9 GLL5        0.0000 
     31 CA         16.5490   92.4910   76.8350 C.3       6 GLP5        0.0000 
     32 CA         19.6155   92.2285   74.0685 C.3       3 GLC5        0.0000 
     33 CA         20.7040   90.3150   74.4880 C.3       9 GLL5        0.0000 
     34 CA         21.5440   87.1370   74.2850 C.3       3 GLC5        0.0000 
     35 CA         20.7340   88.7890   74.7460 C.3       9 GLL5        0.0000 
     36 CA         22.3540   85.4850   73.8240 C.3       6 GLP5        0.0000 
     37 N          20.4885   87.2650   72.5885 N.am      2 SEC2        0.0000 
     38 N          20.1020   88.0410   73.6880 N.am      8 SEL2        0.0000 
     39 N          20.8750   86.4890   71.4890 N.am      5 SEP2        0.0000 
     40 CA         19.7210   86.5445   76.5735 C.3       3 GLC5        0.0000 
     41 CA         20.1290   88.5280   76.1560 C.3       9 GLL5        0.0000 
     42 CA         19.3130   84.5610   76.9910 C.3       6 GLP5        0.0000 
     43 CA         21.3730   87.0465   75.8820 C.3       3 GLC5        0.0000 
     44 CA         22.6170   85.5650   75.6080 C.3       6 GLP5        0.0000 
     45 N          18.4290   87.0715   77.1865 N.am      2 SEC2        0.0000 
     46 N          18.7980   87.9560   76.1700 N.am      8 SEL2        0.0000 
     47 N          18.0600   86.1870   78.2030 N.am      5 SEP2        0.0000 
     48 CA         21.9525   92.3860   72.3487 C.3       3 GLC5        0.0000 
     49 CA         22.0610   90.9870   74.1840 C.3       9 GLL5        0.0000 
@<TRIPOS>BOND
@<TRIPOS>SUBSTRUCTURE
     1 ALC1        4 GROUP        1 X    ALC  0     ROOT ALC X 1
     2 SEC2        7 GROUP        1 X    SEC  0     **** SEC X 2
     3 GLC5        1 GROUP        1 X    GLC  0     **** GLC X 6
     4 ALP1        6 GROUP        1 Y    ALP  0     ROOT ALP Y 8
     5 SEP2        9 GROUP        1 Y    SEP  0     **** SEP Y 9
     6 GLP5        3 GROUP        1 Y    GLP  0     **** GLP Y 13
     7 ALL1        5 GROUP        1 Z    ALL  0     ROOT ALL Z 15
     8 SEL2        8 GROUP        1 Z    SEL  0     **** SEL Z 16
     9 GLL5        2 GROUP        1 Z    GLL  0     **** GLL Z 20
@<TRIPOS>SET

