#    Name: 1a9p_9DI_1_ligand
#    Modification time : Mon Mar 24 18:08:29 2014

@<TRIPOS>MOLECULE
1a9p_9DI_1_ligand
   32    34     1     0     0
SMALL
NO_CHARGES


@<TRIPOS>ATOM
      1 C9         22.0610   90.9870   74.1840 C.2       1 9DI290      0.0000 
      2 C4         23.2390   90.3500   73.8210 C.2       1 9DI290      0.0000 
      3 N3         23.4950   89.0290   73.5890 N.2       1 9DI290      0.0000 
      4 C2         24.7870   88.8070   73.2520 C.2       1 9DI290      0.0000 
      5 N1         25.7420   89.7860   73.1540 N.am      1 9DI290      0.0000 
      6 C6         25.5110   91.1310   73.3930 C.2       1 9DI290      0.0000 
      7 O6         26.4360   91.9350   73.3010 O.2       1 9DI290      0.0000 
      8 C5         24.1440   91.4050   73.7450 C.2       1 9DI290      0.0000 
      9 N7         23.5380   92.6080   74.0410 N.pl3     1 9DI290      0.0000 
     10 C8         22.2250   92.3430   74.3130 C.2       1 9DI290      0.0000 
     11 C5'        21.2870   90.1920   77.7100 C.3       1 9DI290      0.0000 
     12 O5'        21.3420   91.6080   77.9990 O.3       1 9DI290      0.0000 
     13 C4'        20.1200   89.9180   76.7860 C.3       1 9DI290      0.0000 
     14 O4'        20.2770   90.8810   75.7130 O.3       1 9DI290      0.0000 
     15 C1'        20.7040   90.3150   74.4880 C.3       1 9DI290      0.0000 
     16 C2'        20.7340   88.7890   74.7460 C.3       1 9DI290      0.0000 
     17 O2'        20.1020   88.0410   73.6880 O.3       1 9DI290      0.0000 
     18 C3'        20.1290   88.5280   76.1560 C.3       1 9DI290      0.0000 
     19 O3'        18.7980   87.9560   76.1700 O.3       1 9DI290      0.0000 
     20 H          25.0903   87.8032   73.0471 H         1 9DI290      0.0000 
     21 H          26.7275   89.4997   72.8764 H         1 9DI290      0.0000 
     22 H          23.9602   93.4574   74.0519 H         1 9DI290      0.0000 
     23 H          21.5558   92.9714   74.5457 H         1 9DI290      0.0000 
     24 H          21.1497   89.6077   78.6234 H         1 9DI290      0.0000 
     25 H          22.2033   89.8532   77.2199 H         1 9DI290      0.0000 
     26 H          19.2071   90.0867   77.2958 H         1 9DI290      0.0000 
     27 H          20.0139   90.5315   73.7133 H         1 9DI290      0.0000 
     28 H          21.8068   88.5205   74.8236 H         1 9DI290      0.0000 
     29 H          20.8447   87.9415   76.7060 H         1 9DI290      0.0000 
     30 H          20.9247   92.0504   77.2052 H         1 9DI290      0.0000 
     31 H          19.4247   88.6654   73.2986 H         1 9DI290      0.0000 
     32 H          18.7109   87.4821   75.2938 H         1 9DI290      0.0000 
@<TRIPOS>BOND
     1    2    1 1    
     2   10    1 2    
     3   15    1 1    
     4    3    2 1    
     5    8    2 2    
     6    4    3 2    
     7    5    4 1    
     8   20    4 1    
     9    6    5 am   
    10   21    5 1    
    11    7    6 2    
    12    8    6 1    
    13    9    8 1    
    14   10    9 1    
    15   22    9 1    
    16   23   10 1    
    17   12   11 1    
    18   13   11 1    
    19   24   11 1    
    20   25   11 1    
    21   30   12 1    
    22   14   13 1    
    23   18   13 1    
    24   26   13 1    
    25   15   14 1    
    26   16   15 1    
    27   27   15 1    
    28   17   16 1    
    29   18   16 1    
    30   28   16 1    
    31   31   17 1    
    32   19   18 1    
    33   29   18 1    
    34   32   19 1    
@<TRIPOS>SUBSTRUCTURE
     1 9DI290      1 GROUP   
@<TRIPOS>SET

