#    Name: 2xmy_CDK_1_INTS_M
#    Modification time : Tue Mar 25 06:23:53 2014

@<TRIPOS>MOLECULE
2xmy_CDK_1_INTS_M
   72     0     9     0     0
SMALL
NO_CHARGES


@<TRIPOS>ATOM
      1 CA         28.9065   31.3140   28.4495 C.3       3 GLC5        0.0000 
      2 CA         29.4980   31.1520   26.4930 C.3       9 GLL5        0.0000 
      3 CA         28.3150   31.4760   30.4060 C.3       6 GLP5        0.0000 
      4 CA         30.5860   32.2370   26.8050 C.3       3 GLC5        0.0000 
      5 CA         31.6740   33.3220   27.1170 C.3       6 GLP5        0.0000 
      6 CA         30.7860   28.0690   25.6520 C.3       3 GLC5        0.0000 
      7 CA         30.5450   29.4560   24.2860 C.3       9 GLL5        0.0000 
      8 CA         31.0270   26.6820   27.0180 C.3       6 GLP5        0.0000 
      9 CA         32.1895   28.9945   24.1610 C.3       3 GLC5        0.0000 
     10 CA         33.8340   28.5330   24.0360 C.3       6 GLP5        0.0000 
     11 CA         31.5305   31.2775   25.1560 C.3       3 GLC5        0.0000 
     12 CA         32.5160   33.0990   26.0260 C.3       6 GLP5        0.0000 
     13 CA         30.3110   29.9480   22.4855 C.3       3 GLC5        0.0000 
     14 CA         30.0770   30.4400   20.6850 C.3       6 GLP5        0.0000 
     15 CA         24.7535   29.4075   24.9865 C.3       3 GLC5        0.0000 
     16 CA         26.7570   28.6600   24.9740 C.3       9 GLL5        0.0000 
     17 CA         22.7500   30.1550   24.9990 C.3       6 GLP5        0.0000 
     18 CA         28.3430   33.2660   27.8020 C.3       3 GLC5        0.0000 
     19 CA         26.7310   31.8440   27.2430 C.3       9 GLL5        0.0000 
     20 CA         29.9550   34.6880   28.3610 C.3       6 GLP5        0.0000 
     21 CA         25.3590   33.4340   29.8240 C.3       3 GLC5        0.0000 
     22 CA         25.9060   32.4940   28.1460 C.3       9 GLL5        0.0000 
     23 CA         24.8120   34.3740   31.5020 C.3       6 GLP5        0.0000 
     24 N          23.9145   32.8295   29.4005 N.am      2 SEC2        0.0000 
     25 N          24.9240   31.8210   28.7180 N.am      8 SEL2        0.0000 
     26 N          22.9050   33.8380   30.0830 N.am      5 SEP2        0.0000 
     27 CA         25.5140   29.2790   29.5970 C.3       3 GLC5        0.0000 
     28 CA         24.7120   30.5280   28.4380 C.3       9 GLL5        0.0000 
     29 CA         26.3160   28.0300   30.7560 C.3       6 GLP5        0.0000 
     30 CA         26.5135   31.0020   29.4220 C.3       3 GLC5        0.0000 
     31 CA         24.5030   31.3395   26.8325 C.3       3 GLC5        0.0000 
     32 CA         24.2940   32.1510   25.2270 C.3       6 GLP5        0.0000 
     33 O          22.7115   30.7700   29.6825 O.2       1 ALC1        0.0000 
     34 O          23.7130   29.9770   29.1090 O.2       7 ALL1        0.0000 
     35 O          21.7100   31.5630   30.2560 O.2       4 ALP1        0.0000 
     36 CA         20.6375   29.8135   30.2945 C.3       3 GLC5        0.0000 
     37 CA         22.1780   28.4250   29.7840 C.3       9 GLL5        0.0000 
     38 CA         19.0970   31.2020   30.8050 C.3       6 GLP5        0.0000 
     39 CA         21.6675   27.1405   25.7335 C.3       3 GLC5        0.0000 
     40 CA         22.5450   26.9330   27.4920 C.3       9 GLL5        0.0000 
     41 CA         20.7900   27.3480   23.9750 C.3       6 GLP5        0.0000 
     42 N          19.3155   26.7745   26.5315 N.am      2 SEC2        0.0000 
     43 N          19.4840   25.4450   27.3850 N.am      8 SEL2        0.0000 
     44 N          19.1470   28.1040   25.6780 N.am      5 SEP2        0.0000 
     45 N          18.2075   22.8345   30.1485 N.am      2 SEC2        0.0000 
     46 N          19.6010   21.9430   29.7940 N.am      8 SEL2        0.0000 
     47 N          16.8140   23.7260   30.5030 N.am      5 SEP2        0.0000 
     48 CA         18.1125   22.1065   29.1460 C.3       3 GLC5        0.0000 
     49 CA         19.2510   20.6700   30.3310 C.3       9 GLL5        0.0000 
     50 CA         16.9740   23.5430   27.9610 C.3       6 GLP5        0.0000 
     51 CA         29.3360   29.2085   27.4500 C.3       3 GLC5        0.0000 
     52 CA         28.6540   30.1220   25.7410 C.3       9 GLL5        0.0000 
     53 CA         29.5960   27.7800   28.7830 C.3       6 GLP5        0.0000 
     54 CA         27.2903   31.2235   24.2075 C.3       3 GLC5        0.0000 
     55 CA         26.5960   32.4600   22.5220 C.3       6 GLP5        0.0000 
     56 CA         28.2555   28.9768   27.6490 C.3       3 GLC5        0.0000 
     57 CA         27.3150   29.8520   26.0450 C.3       9 GLL5        0.0000 
     58 CA         25.6045   31.1623   25.8710 C.3       3 GLC5        0.0000 
     59 CA         26.6182   34.0080   26.8607 C.3       3 GLC5        0.0000 
     60 CA         26.9180   35.8470   26.0270 C.3       6 GLP5        0.0000 
     61 CA         25.3063   32.1600   26.4608 C.3       3 GLC5        0.0000 
     62 CA         27.2898   31.6539   29.0180 C.3       3 GLC5        0.0000 
     63 CA         24.6430   28.1960   29.6238 C.3       3 GLC5        0.0000 
     64 CA         23.1060   28.8330   28.8340 C.3       9 GLL5        0.0000 
     65 CA         23.7171   26.2726   29.4724 C.3       3 GLC5        0.0000 
     66 CA         25.3950   25.6310   30.6780 C.3       6 GLP5        0.0000 
     67 CA         22.8117   28.9267   26.4360 C.3       3 GLC5        0.0000 
     68 CA         20.0583   28.1204   28.4304 C.3       3 GLC5        0.0000 
     69 CA         21.6290   26.5230   28.4640 C.3       9 GLL5        0.0000 
     70 CA         18.3980   29.0560   27.7780 C.3       6 GLP5        0.0000 
     71 CA         18.8278   22.8795   28.1132 C.3       3 GLC5        0.0000 
     72 CA         20.6200   22.6290   27.6210 C.3       9 GLL5        0.0000 
@<TRIPOS>BOND
@<TRIPOS>SUBSTRUCTURE
     1 ALC1       33 GROUP        1 X    ALC  0     ROOT ALC X 1
     2 SEC2       24 GROUP        1 X    SEC  0     **** SEC X 2
     3 GLC5        1 GROUP        1 X    GLC  0     **** GLC X 6
     4 ALP1       35 GROUP        1 Y    ALP  0     ROOT ALP Y 8
     5 SEP2       26 GROUP        1 Y    SEP  0     **** SEP Y 9
     6 GLP5        3 GROUP        1 Y    GLP  0     **** GLP Y 13
     7 ALL1       34 GROUP        1 Z    ALL  0     ROOT ALL Z 15
     8 SEL2       25 GROUP        1 Z    SEL  0     **** SEL Z 16
     9 GLL5        2 GROUP        1 Z    GLL  0     **** GLL Z 20
@<TRIPOS>SET

