#    Name: 2xmy_CDK_1_ligand
#    Modification time : Tue Mar 25 06:23:53 2014

@<TRIPOS>MOLECULE
2xmy_CDK_1_ligand
   50    52     1     0     0
SMALL
NO_CHARGES


@<TRIPOS>ATOM
      1 C17        29.4980   31.1520   26.4930 C.3       1 CDK500      0.0000 
      2 C16        28.6540   30.1220   25.7410 C.2       1 CDK500      0.0000 
      3 N4         29.1410   29.3670   24.7430 N.am      1 CDK500      0.0000 
      4 C13        30.5450   29.4560   24.2860 C.3       1 CDK500      0.0000 
      5 C14        28.2630   28.5150   24.1930 C.2       1 CDK500      0.0000 
      6 O3         28.5090   27.7220   23.2860 O.2       1 CDK500      0.0000 
      7 S1         26.7570   28.6600   24.9740 S.3       1 CDK500      0.0000 
      8 C15        27.3150   29.8520   26.0450 C.2       1 CDK500      0.0000 
      9 C          26.5150   30.4950   26.9850 C.ar      1 CDK500      0.0000 
     10 N          25.5090   29.8410   27.5940 N.ar      1 CDK500      0.0000 
     11 C12        26.7310   31.8440   27.2430 C.ar      1 CDK500      0.0000 
     12 C11        25.9060   32.4940   28.1460 C.ar      1 CDK500      0.0000 
     13 N3         24.9240   31.8210   28.7180 N.ar      1 CDK500      0.0000 
     14 C1         24.7120   30.5280   28.4380 C.ar      1 CDK500      0.0000 
     15 N1         23.7130   29.9770   29.1090 N.pl3     1 CDK500      0.0000 
     16 C2         23.1060   28.8330   28.8340 C.ar      1 CDK500      0.0000 
     17 C9         22.1780   28.4250   29.7840 C.ar      1 CDK500      0.0000 
     18 C10        21.4380   27.2680   29.6190 C.ar      1 CDK500      0.0000 
     19 C3         23.2980   28.0950   27.6740 C.ar      1 CDK500      0.0000 
     20 C4         22.5450   26.9330   27.4920 C.ar      1 CDK500      0.0000 
     21 C5         21.6290   26.5230   28.4640 C.ar      1 CDK500      0.0000 
     22 S          20.6350   25.0970   28.2840 S.o2      1 CDK500      0.0000 
     23 O1         19.4840   25.4450   27.3850 O.2       1 CDK500      0.0000 
     24 O2         20.0620   24.7470   29.6370 O.2       1 CDK500      0.0000 
     25 N2         21.4760   23.8290   27.6680 N.pl3     1 CDK500      0.0000 
     26 C6         20.6200   22.6290   27.6210 C.3       1 CDK500      0.0000 
     27 C7         20.7430   21.8030   28.9100 C.3       1 CDK500      0.0000 
     28 O          19.6010   21.9430   29.7940 O.3       1 CDK500      0.0000 
     29 C8         19.2510   20.6700   30.3310 C.3       1 CDK500      0.0000 
     30 H          27.4868   32.3457   26.7728 H         1 CDK500      0.0000 
     31 H          26.0810   33.4935   28.3498 H         1 CDK500      0.0000 
     32 H          23.3491   30.5266   29.9864 H         1 CDK500      0.0000 
     33 H          22.0386   29.0036   30.6365 H         1 CDK500      0.0000 
     34 H          20.7692   26.9687   30.3264 H         1 CDK500      0.0000 
     35 H          23.9705   28.3904   26.9707 H         1 CDK500      0.0000 
     36 H          22.6655   26.3744   26.6357 H         1 CDK500      0.0000 
     37 H          22.3337   23.9398   27.4197 H         1 CDK500      0.0000 
     38 H          20.9000   21.9883   26.7766 H         1 CDK500      0.0000 
     39 H          19.5680   22.9103   27.4946 H         1 CDK500      0.0000 
     40 H          21.6769   22.1140   29.4182 H         1 CDK500      0.0000 
     41 H          20.8882   20.7449   28.6161 H         1 CDK500      0.0000 
     42 H          30.2847   30.7299   26.9435 H         1 CDK500      0.0000 
     43 H          29.8547   31.8579   25.8811 H         1 CDK500      0.0000 
     44 H          28.9696   31.6186   27.2023 H         1 CDK500      0.0000 
     45 H          31.1888   29.2383   25.0195 H         1 CDK500      0.0000 
     46 H          30.7318   28.8231   23.5346 H         1 CDK500      0.0000 
     47 H          30.7719   30.3736   23.9596 H         1 CDK500      0.0000 
     48 H          20.0024   20.2685   30.8546 H         1 CDK500      0.0000 
     49 H          18.4645   20.7297   30.9457 H         1 CDK500      0.0000 
     50 H          19.0125   20.0167   29.6125 H         1 CDK500      0.0000 
@<TRIPOS>BOND
     1    2    1 1    
     2   42    1 1    
     3   43    1 1    
     4   44    1 1    
     5    3    2 1    
     6    8    2 2    
     7    4    3 1    
     8    5    3 am   
     9   45    4 1    
    10   46    4 1    
    11   47    4 1    
    12    6    5 2    
    13    7    5 1    
    14    8    7 1    
    15    9    8 1    
    16   10    9 ar   
    17   11    9 ar   
    18   14   10 ar   
    19   12   11 ar   
    20   30   11 1    
    21   13   12 ar   
    22   31   12 1    
    23   14   13 ar   
    24   15   14 1    
    25   16   15 1    
    26   32   15 1    
    27   17   16 ar   
    28   19   16 ar   
    29   18   17 ar   
    30   33   17 1    
    31   21   18 ar   
    32   34   18 1    
    33   20   19 ar   
    34   35   19 1    
    35   21   20 ar   
    36   36   20 1    
    37   22   21 1    
    38   23   22 2    
    39   24   22 2    
    40   25   22 1    
    41   26   25 1    
    42   37   25 1    
    43   27   26 1    
    44   38   26 1    
    45   39   26 1    
    46   28   27 1    
    47   40   27 1    
    48   41   27 1    
    49   29   28 1    
    50   48   29 1    
    51   49   29 1    
    52   50   29 1    
@<TRIPOS>SUBSTRUCTURE
     1 CDK500      1 GROUP   
@<TRIPOS>SET

