#    Name: 2w2l_NAD_3_INTS_M
#    Modification time : Tue Mar 25 03:31:51 2014

@<TRIPOS>MOLECULE
2w2l_NAD_3_INTS_M
   67     0     9     0     0
SMALL
NO_CHARGES


@<TRIPOS>ATOM
      1 N          70.6600   -6.1560   43.3640 N.am      2 SEC2        0.0000 
      2 N          72.0270   -6.1910   42.5510 N.am      8 SEL2        0.0000 
      3 N          69.2930   -6.1210   44.1770 N.am      5 SEP2        0.0000 
      4 N          68.6830   -6.4340   36.8155 N.am      2 SEC2        0.0000 
      5 N          70.1420   -6.5040   36.4920 N.am      8 SEL2        0.0000 
      6 N          67.2240   -6.3640   37.1390 N.am      5 SEP2        0.0000 
      7 O          69.0885   -6.1910   35.8475 O.2       1 ALC1        0.0000 
      8 O          70.1420   -6.5040   36.4920 O.2       7 ALL1        0.0000 
      9 O          68.0350   -5.8780   35.2030 O.2       4 ALP1        0.0000 
     10 CA         70.8425   -2.2135   37.2160 C.3       3 GLC5        0.0000 
     11 CA         69.9280   -4.1180   36.8990 C.3       9 GLL5        0.0000 
     12 CA         71.7570   -0.3090   37.5330 C.3       6 GLP5        0.0000 
     13 CA         66.4435   -2.3885   35.6385 C.3       3 GLC5        0.0000 
     14 CA         67.2310   -2.0050   33.8310 C.3       9 GLL5        0.0000 
     15 CA         65.6560   -2.7720   37.4460 C.3       6 GLP5        0.0000 
     16 CA         66.3570   -3.8285   33.8775 C.3       3 GLC5        0.0000 
     17 CA         65.4830   -5.6520   33.9240 C.3       6 GLP5        0.0000 
     18 CA         68.4315   -3.0235   32.6495 C.3       3 GLC5        0.0000 
     19 CA         69.6320   -4.0420   31.4680 C.3       6 GLP5        0.0000 
     20 CA         67.3420   -0.6920   35.1800 C.3       3 GLC5        0.0000 
     21 CA         67.4530    0.6210   36.5290 C.3       6 GLP5        0.0000 
     22 CA         67.4605   -2.6735   36.1855 C.3       3 GLC5        0.0000 
     23 CA         69.2650   -2.5750   34.9250 C.3       9 GLL5        0.0000 
     24 N          69.2650   -3.3940   45.1815 N.am      2 SEC2        0.0000 
     25 N          70.0730   -2.8230   44.3800 N.am      8 SEL2        0.0000 
     26 N          68.4570   -3.9650   45.9830 N.am      5 SEP2        0.0000 
     27 O          71.2840    5.6765   42.7880 O.2       1 ALC1        0.0000 
     28 O          71.9770    4.3710   42.4860 O.2       7 ALL1        0.0000 
     29 O          70.5910    6.9820   43.0900 O.2       4 ALP1        0.0000 
     30 CA         70.6545    1.2280   45.2655 C.3       3 GLC5        0.0000 
     31 CA         71.0260    2.6220   43.9050 C.3       9 GLL5        0.0000 
     32 CA         70.2830   -0.1660   46.6260 C.3       6 GLP5        0.0000 
     33 CA         69.7785    4.9340   44.0820 C.3       3 GLC5        0.0000 
     34 CA         70.8220    4.2280   45.8120 C.3       9 GLL5        0.0000 
     35 CA         68.7350    5.6400   42.3520 C.3       6 GLP5        0.0000 
     36 N          70.6765    5.9735   50.4000 N.am      2 SEC2        0.0000 
     37 N          71.1720    6.3130   48.9610 N.am      8 SEL2        0.0000 
     38 N          70.1810    5.6340   51.8390 N.am      5 SEP2        0.0000 
     39 O          68.7365    5.8225   46.1790 O.2       1 ALC1        0.0000 
     40 O          69.4010    6.4480   47.3470 O.2       7 ALL1        0.0000 
     41 O          68.0720    5.1970   45.0110 O.2       4 ALP1        0.0000 
     42 CA         69.9887   -4.8057   40.7190 C.3       3 GLC5        0.0000 
     43 CA         71.9310   -3.7140   39.8990 C.3       9 GLL5        0.0000 
     44 CA         68.5930   -5.5680   41.9610 C.3       6 GLP5        0.0000 
     45 CA         71.5708   -2.1763   38.5050 C.3       3 GLC5        0.0000 
     46 CA         70.8380   -4.3730   39.0550 C.3       9 GLL5        0.0000 
     47 CA         70.4930   -5.2378   34.9737 C.3       3 GLC5        0.0000 
     48 CA         70.5980   -5.7440   33.0750 C.3       6 GLP5        0.0000 
     49 CA         70.6827   -1.2298   36.0132 C.3       3 GLC5        0.0000 
     50 CA         69.9520   -1.7260   34.0620 C.3       9 GLL5        0.0000 
     51 CA         70.1800    0.5895   33.3277 C.3       3 GLC5        0.0000 
     52 CA         70.7490    2.5490   33.0860 C.3       6 GLP5        0.0000 
     53 CA         69.5350   -3.0072   32.8576 C.3       3 GLC5        0.0000 
     54 CA         68.4455   -0.6758   35.3881 C.3       3 GLC5        0.0000 
     55 CA         69.2700   -1.0140   33.0770 C.3       9 GLL5        0.0000 
     56 CA         72.3716    1.4166   40.2511 C.3       3 GLC5        0.0000 
     57 CA         72.1520    2.0400   41.9070 C.3       9 GLL5        0.0000 
     58 CA         72.8300    1.7030   38.4100 C.3       6 GLP5        0.0000 
     59 CA         70.1650    4.2410   42.9027 C.3       3 GLC5        0.0000 
     60 CA         72.1640    3.0620   43.0020 C.3       9 GLL5        0.0000 
     61 CA         69.8092    3.7292   47.8474 C.3       3 GLC5        0.0000 
     62 CA         68.0840    3.2820   48.5390 C.3       6 GLP5        0.0000 
     63 CA         74.3280    1.5065   46.3882 C.3       3 GLC5        0.0000 
     64 CA         72.6430    2.7570   47.3050 C.3       9 GLL5        0.0000 
     65 CA         76.1850    0.4600   46.1140 C.3       6 GLP5        0.0000 
     66 CA         71.3770    1.1935   46.6442 C.3       3 GLC5        0.0000 
     67 CA         72.2990    2.3490   46.0200 C.3       9 GLL5        0.0000 
@<TRIPOS>BOND
@<TRIPOS>SUBSTRUCTURE
     1 ALC1        7 GROUP        1 X    ALC  0     ROOT ALC X 1
     2 SEC2        1 GROUP        1 X    SEC  0     **** SEC X 2
     3 GLC5       10 GROUP        1 X    GLC  0     **** GLC X 6
     4 ALP1        9 GROUP        1 Y    ALP  0     ROOT ALP Y 8
     5 SEP2        3 GROUP        1 Y    SEP  0     **** SEP Y 9
     6 GLP5       12 GROUP        1 Y    GLP  0     **** GLP Y 13
     7 ALL1        8 GROUP        1 Z    ALL  0     ROOT ALL Z 15
     8 SEL2        2 GROUP        1 Z    SEL  0     **** SEL Z 16
     9 GLL5       11 GROUP        1 Z    GLL  0     **** GLL Z 20
@<TRIPOS>SET

