#    Name: 2w2l_NAD_3_ligand
#    Modification time : Tue Mar 25 03:31:51 2014

@<TRIPOS>MOLECULE
2w2l_NAD_3_ligand
   70    74     1     0     0
SMALL
NO_CHARGES


@<TRIPOS>ATOM
      1 PA         72.3900   -4.7610   42.3720 P.3       1 NAD1346     0.0000 
      2 O1A        73.8380   -4.7300   42.0790 O.co2     1 NAD1346     0.0000 
      3 O2A        72.0270   -6.1910   42.5510 O.co2     1 NAD1346     0.0000 
      4 O5B        71.5810   -3.9070   41.2600 O.3       1 NAD1346     0.0000 
      5 C5B        71.9310   -3.7140   39.8990 C.3       1 NAD1346     0.0000 
      6 C4B        70.8380   -4.3730   39.0550 C.3       1 NAD1346     0.0000 
      7 O4B        70.1910   -3.4860   38.1390 O.3       1 NAD1346     0.0000 
      8 C3B        71.4280   -5.5210   38.2510 C.3       1 NAD1346     0.0000 
      9 O3B        71.1150   -6.7530   38.8790 O.3       1 NAD1346     0.0000 
     10 C2B        70.8480   -5.3450   36.8460 C.3       1 NAD1346     0.0000 
     11 O2B        70.1420   -6.5040   36.4920 O.3       1 NAD1346     0.0000 
     12 C1B        69.9280   -4.1180   36.8990 C.3       1 NAD1346     0.0000 
     13 N9A        70.1790   -3.1470   35.7960 N.pl3     1 NAD1346     0.0000 
     14 C8A        71.4050   -2.6440   35.4340 C.2       1 NAD1346     0.0000 
     15 N7A        71.2550   -1.7880   34.3940 N.2       1 NAD1346     0.0000 
     16 C5A        69.9520   -1.7260   34.0620 C.ar      1 NAD1346     0.0000 
     17 C6A        69.2700   -1.0140   33.0770 C.ar      1 NAD1346     0.0000 
     18 N6A        69.9050   -0.5600   32.0150 N.pl3     1 NAD1346     0.0000 
     19 N1A        67.9080   -1.1610   32.9630 N.ar      1 NAD1346     0.0000 
     20 C2A        67.2310   -2.0050   33.8310 C.ar      1 NAD1346     0.0000 
     21 N3A        67.9240   -2.7050   34.7930 N.ar      1 NAD1346     0.0000 
     22 C4A        69.2650   -2.5750   34.9250 C.ar      1 NAD1346     0.0000 
     23 O3         72.1120   -3.8990   43.7120 O.3       1 NAD1346     0.0000 
     24 PN         71.4210   -2.4320   43.8840 P.3       1 NAD1346     0.0000 
     25 O1N        70.0730   -2.8230   44.3800 O.co2     1 NAD1346     0.0000 
     26 O2N        72.3240   -1.5670   44.6890 O.co2     1 NAD1346     0.0000 
     27 O5D        71.3030   -1.6030   42.4800 O.3       1 NAD1346     0.0000 
     28 C5D        72.0650   -0.4360   42.2010 C.3       1 NAD1346     0.0000 
     29 C4D        71.2840    0.8770   42.3540 C.3       1 NAD1346     0.0000 
     30 O4D        70.9620    1.2070   43.6960 O.3       1 NAD1346     0.0000 
     31 C3D        72.1520    2.0400   41.9070 C.3       1 NAD1346     0.0000 
     32 O3D        71.5070    2.7370   40.8980 O.3       1 NAD1346     0.0000 
     33 C2D        72.1640    3.0620   43.0020 C.3       1 NAD1346     0.0000 
     34 O2D        71.9770    4.3710   42.4860 O.3       1 NAD1346     0.0000 
     35 C1D        71.0260    2.6220   43.9050 C.3       1 NAD1346     0.0000 
     36 N1N        71.3690    3.0670   45.2870 N.pl3     1 NAD1346     0.0000 
     37 C2N        70.8220    4.2280   45.8120 C.ar      1 NAD1346     0.0000 
     38 C3N        71.1640    4.6600   47.1110 C.ar      1 NAD1346     0.0000 
     39 C7N        70.5300    5.8560   47.7980 C.2       1 NAD1346     0.0000 
     40 O7N        71.1720    6.3130   48.9610 O.2       1 NAD1346     0.0000 
     41 N7N        69.4010    6.4480   47.3470 N.am      1 NAD1346     0.0000 
     42 C4N        72.0760    3.9090   47.8500 C.ar      1 NAD1346     0.0000 
     43 C5N        72.6430    2.7570   47.3050 C.ar      1 NAD1346     0.0000 
     44 C6N        72.2990    2.3490   46.0200 C.ar      1 NAD1346     0.0000 
     45 H          72.8763   -4.1857   39.6449 H         1 NAD1346     0.0000 
     46 H          71.9709   -2.6625   39.6280 H         1 NAD1346     0.0000 
     47 H          70.1066   -4.8161   39.7397 H         1 NAD1346     0.0000 
     48 H          72.4934   -5.3397   38.1905 H         1 NAD1346     0.0000 
     49 H          71.6599   -5.1249   36.1846 H         1 NAD1346     0.0000 
     50 H          68.9105   -4.4658   36.8614 H         1 NAD1346     0.0000 
     51 H          72.2415   -2.8724   35.8625 H         1 NAD1346     0.0000 
     52 H          70.8913   -0.7230   31.9890 H         1 NAD1346     0.0000 
     53 H          69.3427   -0.0939   31.3319 H         1 NAD1346     0.0000 
     54 H          66.2074   -2.1052   33.7520 H         1 NAD1346     0.0000 
     55 H          72.4728   -0.4531   41.1632 H         1 NAD1346     0.0000 
     56 H          72.9578   -0.3629   42.8651 H         1 NAD1346     0.0000 
     57 H          70.4202    0.8604   41.7277 H         1 NAD1346     0.0000 
     58 H          73.1088    1.7426   41.6834 H         1 NAD1346     0.0000 
     59 H          73.0787    2.9490   43.5507 H         1 NAD1346     0.0000 
     60 H          70.1461    3.1169   43.5536 H         1 NAD1346     0.0000 
     61 H          70.1589    4.7877   45.2572 H         1 NAD1346     0.0000 
     62 H          68.9801    6.0351   46.5393 H         1 NAD1346     0.0000 
     63 H          69.0871    7.2462   47.8612 H         1 NAD1346     0.0000 
     64 H          72.3325    4.2049   48.8015 H         1 NAD1346     0.0000 
     65 H          73.3170    2.2088   47.8556 H         1 NAD1346     0.0000 
     66 H          72.7392    1.5098   45.6153 H         1 NAD1346     0.0000 
     67 H          70.3407   -7.1176   38.3618 H         1 NAD1346     0.0000 
     68 H          69.6415   -6.2586   35.6618 H         1 NAD1346     0.0000 
     69 H          71.4719    3.6834   41.2190 H         1 NAD1346     0.0000 
     70 H          71.1687    4.7223   42.9585 H         1 NAD1346     0.0000 
@<TRIPOS>BOND
     1    2    1 ar   
     2    3    1 ar   
     3    4    1 1    
     4   23    1 1    
     5    5    4 1    
     6    6    5 1    
     7   45    5 1    
     8   46    5 1    
     9    7    6 1    
    10    8    6 1    
    11   47    6 1    
    12   12    7 1    
    13    9    8 1    
    14   10    8 1    
    15   48    8 1    
    16   67    9 1    
    17   11   10 1    
    18   12   10 1    
    19   49   10 1    
    20   68   11 1    
    21   13   12 1    
    22   50   12 1    
    23   14   13 1    
    24   22   13 1    
    25   15   14 2    
    26   51   14 1    
    27   16   15 1    
    28   17   16 ar   
    29   22   16 ar   
    30   18   17 1    
    31   19   17 ar   
    32   52   18 1    
    33   53   18 1    
    34   20   19 ar   
    35   21   20 ar   
    36   54   20 1    
    37   22   21 ar   
    38   24   23 1    
    39   25   24 ar   
    40   26   24 ar   
    41   27   24 1    
    42   28   27 1    
    43   29   28 1    
    44   55   28 1    
    45   56   28 1    
    46   30   29 1    
    47   31   29 1    
    48   57   29 1    
    49   35   30 1    
    50   32   31 1    
    51   33   31 1    
    52   58   31 1    
    53   69   32 1    
    54   34   33 1    
    55   35   33 1    
    56   59   33 1    
    57   70   34 1    
    58   36   35 1    
    59   60   35 1    
    60   37   36 ar   
    61   44   36 ar   
    62   38   37 ar   
    63   61   37 1    
    64   39   38 1    
    65   42   38 ar   
    66   40   39 2    
    67   41   39 am   
    68   62   41 1    
    69   63   41 1    
    70   43   42 ar   
    71   64   42 1    
    72   44   43 ar   
    73   65   43 1    
    74   66   44 1    
@<TRIPOS>SUBSTRUCTURE
     1 NAD1346     1 GROUP   
@<TRIPOS>SET

