#    Name: 2vs5_GDU_1_INTS_M
#    Modification time : Tue Mar 25 02:50:32 2014

@<TRIPOS>MOLECULE
2vs5_GDU_1_INTS_M
   81     0    15     0     0
SMALL
NO_CHARGES


@<TRIPOS>ATOM
      1 O           3.2760   29.1580   18.1140 O.2       1 ALC1        0.0000 
      2 O           3.3830   28.2790   19.2860 O.2      11 ALL1        0.0000 
      3 O           3.1690   30.0370   16.9420 O.2       6 ALP1        0.0000 
      4 CA          5.0670   28.1725   21.3580 C.3       5 GLC5        0.0000 
      5 CA          3.2650   27.9090   21.3920 C.3      15 GLL5        0.0000 
      6 CA          6.8690   28.4360   21.3240 C.3      10 GLP5        0.0000 
      7 CA          2.3340   28.6170   23.0725 C.3       5 GLC5        0.0000 
      8 CA          1.4030   29.3250   24.7530 C.3      10 GLP5        0.0000 
      9 CA          1.4135   28.5365   21.0125 C.3       5 GLC5        0.0000 
     10 CA         -0.4380   29.1640   20.6330 C.3      10 GLP5        0.0000 
     11 CA          5.1850   26.8515   20.8245 C.3       5 GLC5        0.0000 
     12 CA          3.3590   26.4460   21.0590 C.3      15 GLL5        0.0000 
     13 CA          7.0110   27.2570   20.5900 C.3      10 GLP5        0.0000 
     14 CA          1.6730   26.3510   20.4515 C.3       5 GLC5        0.0000 
     15 CA         -0.0130   26.2560   19.8440 C.3      10 GLP5        0.0000 
     16 N           3.1465   27.1680   16.5980 N.am      2 SEC2        0.0000 
     17 N           3.5630   26.5890   17.8220 N.am     12 SEL2        0.0000 
     18 N           2.7300   27.7470   15.3740 N.am      7 SEP2        0.0000 
     19 CA          1.7605   25.3640   19.8055 C.3       5 GLC5        0.0000 
     20 CA          3.5340   24.4720   19.7670 C.3      15 GLL5        0.0000 
     21 O           4.6850   23.4430   16.8785 O.2       1 ALC1        0.0000 
     22 O           4.8200   23.1810   18.1230 O.2      11 ALL1        0.0000 
     23 O           4.5500   23.7050   15.6340 O.2       6 ALP1        0.0000 
     24 CA          6.3775   25.5065   20.4605 C.3       5 GLC5        0.0000 
     25 CA          5.7440   23.7560   20.3310 C.3      15 GLL5        0.0000 
     26 CA          6.9890   21.8940   20.3090 C.3       5 GLC5        0.0000 
     27 CA          8.2340   20.0320   20.2870 C.3      10 GLP5        0.0000 
     28 N           7.4445   22.3045   18.7275 N.am      2 SEC2        0.0000 
     29 N           6.8500   22.9270   19.9530 N.am     12 SEL2        0.0000 
     30 N           8.0390   21.6820   17.5020 N.am      7 SEP2        0.0000 
     31 O           8.2325   22.9605   20.3825 O.2       1 ALC1        0.0000 
     32 O           6.8500   22.9270   19.9530 O.2      11 ALL1        0.0000 
     33 O           9.6150   22.9940   20.8120 O.2       6 ALP1        0.0000 
     34 CA          3.0215   22.7935   23.3235 C.3       5 GLC5        0.0000 
     35 CA          4.9570   22.7110   22.5770 C.3      15 GLL5        0.0000 
     36 CA          1.0860   22.8760   24.0700 C.3      10 GLP5        0.0000 
     37 Zn          8.3805   23.1335   22.8920 Zn        4 ZIC7        0.0000 
     38 Zn          7.5980   24.0260   22.8480 Zn       14 ZIL7        0.0000 
     39 Zn          9.1630   22.2410   22.9360 Zn        9 ZIP7        0.0000 
     40 NZ          6.2555   26.6200   25.0100 N.4       3 LYC4        0.0000 
     41 NZ          6.5190   25.9350   23.6870 N.4      13 LYL4        0.0000 
     42 NZ          5.8820   28.6200   26.4680 N.4       8 LYP4        0.0000 
     43 N           6.7460   27.1885   23.1900 N.am      2 SEC2        0.0000 
     44 N           6.5190   25.9350   23.6870 N.am     12 SEL2        0.0000 
     45 N           6.9730   28.4420   22.6930 N.am      7 SEP2        0.0000 
     46 N           6.2555   26.6200   25.0100 N.am      2 SEC2        0.0000 
     47 N           5.9920   27.3050   26.3330 N.am      7 SEP2        0.0000 
     48 Zn          9.0530   22.7650   24.1280 Zn        4 ZIC7        0.0000 
     49 Zn          8.9430   23.2890   25.3200 Zn       14 ZIL7        0.0000 
     50 CA          8.0600   18.0930   26.0145 C.3       5 GLC5        0.0000 
     51 CA          6.5630   19.4510   25.7580 C.3      15 GLL5        0.0000 
     52 CA          9.5570   16.7350   26.2710 C.3      10 GLP5        0.0000 
     53 CA          3.1555   23.6565   27.5415 C.3       5 GLC5        0.0000 
     54 CA          3.2950   21.4970   27.6820 C.3      15 GLL5        0.0000 
     55 CA          3.0160   25.8160   27.4010 C.3      10 GLP5        0.0000 
     56 CA          2.1905   22.1865   25.8760 C.3       5 GLC5        0.0000 
     57 CA          1.5430   21.3760   28.4715 C.3       5 GLC5        0.0000 
     58 CA         -0.2090   21.2550   29.2610 C.3      10 GLP5        0.0000 
     59 O           7.7335   19.8610   23.7775 O.2       1 ALC1        0.0000 
     60 O           7.7490   19.1760   25.0090 O.2      11 ALL1        0.0000 
     61 O           7.7180   20.5460   22.5460 O.2       6 ALP1        0.0000 
     62 N           4.0425   19.0575   23.1880 N.am      2 SEC2        0.0000 
     63 N           5.0330   18.4510   24.0330 N.am     12 SEL2        0.0000 
     64 N           3.0520   19.6640   22.3430 N.am      7 SEP2        0.0000 
     65 O           5.6230   18.9320   22.7270 O.2       1 ALC1        0.0000 
     66 O           5.0330   18.4510   24.0330 O.2      11 ALL1        0.0000 
     67 O           6.2130   19.4130   21.4210 O.2       6 ALP1        0.0000 
     68 O           2.7355   18.5540   25.7195 O.2       1 ALC1        0.0000 
     69 O           3.8320   18.7170   26.5670 O.2      11 ALL1        0.0000 
     70 O           1.6390   18.3910   24.8720 O.2       6 ALP1        0.0000 
     71 N           2.6035   22.7325   29.3385 N.am      2 SEC2        0.0000 
     72 N           3.7260   22.5820   28.4870 N.am     12 SEL2        0.0000 
     73 N           1.4810   22.8830   30.1900 N.am      7 SEP2        0.0000 
     74 CA          5.5510   25.8213   19.3188 C.3       5 GLC5        0.0000 
     75 CA          6.8760   27.3000   19.1880 C.3      10 GLP5        0.0000 
     76 CA          6.4760   24.2692   18.2142 C.3       5 GLC5        0.0000 
     77 CA          4.9180   24.2130   19.1320 C.3      15 GLL5        0.0000 
     78 CA          7.6210   24.5540   16.6970 C.3      10 GLP5        0.0000 
     79 CA          4.7484   17.7183   25.4944 C.3       5 GLC5        0.0000 
     80 CA          5.3000   19.5810   24.8570 C.3      15 GLL5        0.0000 
     81 CA          4.4810   15.7440   25.4550 C.3      10 GLP5        0.0000 
@<TRIPOS>BOND
@<TRIPOS>SUBSTRUCTURE
     1 ALC1        1 GROUP        1 X    ALC  0     ROOT ALC X 1
     2 SEC2       16 GROUP        1 X    SEC  0     **** SEC X 2
     3 LYC4       40 GROUP        1 X    LYC  0     **** LYC X 4
     4 ZIC7       37 GROUP        1 X    ZIC  0     **** ZIC X 5
     5 GLC5        4 GROUP        1 X    GLC  0     **** GLC X 6
     6 ALP1        3 GROUP        1 Y    ALP  0     ROOT ALP Y 8
     7 SEP2       18 GROUP        1 Y    SEP  0     **** SEP Y 9
     8 LYP4       42 GROUP        1 Y    LYP  0     **** LYP Y 11
     9 ZIP7       39 GROUP        1 Y    ZIP  0     **** ZIP Y 12
    10 GLP5        6 GROUP        1 Y    GLP  0     **** GLP Y 13
    11 ALL1        2 GROUP        1 Z    ALL  0     ROOT ALL Z 15
    12 SEL2       17 GROUP        1 Z    SEL  0     **** SEL Z 16
    13 LYL4       41 GROUP        1 Z    LYL  0     **** LYL Z 18
    14 ZIL7       38 GROUP        1 Z    ZIL  0     **** ZIL Z 19
    15 GLL5        5 GROUP        1 Z    GLL  0     **** GLL Z 20
@<TRIPOS>SET

