#    Name: 2vs5_GDU_1_ligand
#    Modification time : Tue Mar 25 02:50:32 2014

@<TRIPOS>MOLECULE
2vs5_GDU_1_ligand
   58    60     1     0     0
SMALL
NO_CHARGES


@<TRIPOS>ATOM
      1 N1          3.4530   25.8910   20.0250 N.am      1 GDU1368     0.0000 
      2 C2          3.4720   26.9010   18.9830 C.2       1 GDU1368     0.0000 
      3 N3          3.3830   28.2790   19.2860 N.am      1 GDU1368     0.0000 
      4 C4          3.2720   28.8600   20.5430 C.2       1 GDU1368     0.0000 
      5 C5          3.2650   27.9090   21.3920 C.2       1 GDU1368     0.0000 
      6 C6          3.3590   26.4460   21.0590 C.2       1 GDU1368     0.0000 
      7 O2          3.5630   26.5890   17.8220 O.2       1 GDU1368     0.0000 
      8 O4          3.2030   30.0170   20.7320 O.2       1 GDU1368     0.0000 
      9 C1D         3.5340   24.4720   19.7670 C.3       1 GDU1368     0.0000 
     10 C2D         4.9180   24.2130   19.1320 C.3       1 GDU1368     0.0000 
     11 O2D         4.8200   23.1810   18.1230 O.3       1 GDU1368     0.0000 
     12 C3D         5.7440   23.7560   20.3310 C.3       1 GDU1368     0.0000 
     13 C4D         4.6860   22.9100   21.0860 C.3       1 GDU1368     0.0000 
     14 O4D         3.4840   23.6510   20.9150 O.3       1 GDU1368     0.0000 
     15 O3D         6.8500   22.9270   19.9530 O.3       1 GDU1368     0.0000 
     16 C5D         4.9570   22.7110   22.5770 C.3       1 GDU1368     0.0000 
     17 O5D         5.1940   23.9470   23.2470 O.3       1 GDU1368     0.0000 
     18 PA          6.6040   24.5130   23.6960 P.3       1 GDU1368     0.0000 
     19 O1A         7.5980   24.0260   22.8480 O.co2     1 GDU1368     0.0000 
     20 O2A         6.5190   25.9350   23.6870 O.co2     1 GDU1368     0.0000 
     21 O3A         6.6990   24.0180   25.2040 O.3       1 GDU1368     0.0000 
     22 PB          7.7060   23.0870   25.9170 P.3       1 GDU1368     0.0000 
     23 O1B         7.6330   23.3660   27.2920 O.co2     1 GDU1368     0.0000 
     24 O2B         8.9430   23.2890   25.3200 O.co2     1 GDU1368     0.0000 
     25 O3B         7.0490   21.7020   25.6590 O.3       1 GDU1368     0.0000 
     26 C1'         6.7990   20.7170   26.6160 C.3       1 GDU1368     0.0000 
     27 C2'         6.5630   19.4510   25.7580 C.3       1 GDU1368     0.0000 
     28 C3'         5.3000   19.5810   24.8570 C.3       1 GDU1368     0.0000 
     29 C4'         4.1000   19.8690   25.7600 C.3       1 GDU1368     0.0000 
     30 C5'         4.3850   21.1310   26.6850 C.3       1 GDU1368     0.0000 
     31 C6'         3.2950   21.4970   27.6820 C.3       1 GDU1368     0.0000 
     32 O2'         7.7490   19.1760   25.0090 O.3       1 GDU1368     0.0000 
     33 O3'         5.0330   18.4510   24.0330 O.3       1 GDU1368     0.0000 
     34 O4'         3.8320   18.7170   26.5670 O.3       1 GDU1368     0.0000 
     35 O5'         5.6250   21.0330   27.4100 O.3       1 GDU1368     0.0000 
     36 O6'         3.7260   22.5820   28.4870 O.3       1 GDU1368     0.0000 
     37 H           3.4045   28.9465   18.4405 H         1 GDU1368     0.0000 
     38 H           3.1894   28.0721   22.4479 H         1 GDU1368     0.0000 
     39 H           3.3244   25.8783   22.0364 H         1 GDU1368     0.0000 
     40 H           2.8136   24.1700   19.0248 H         1 GDU1368     0.0000 
     41 H           5.2940   25.1269   18.7827 H         1 GDU1368     0.0000 
     42 H           5.9767   24.5794   20.9239 H         1 GDU1368     0.0000 
     43 H           4.6120   21.9612   20.5933 H         1 GDU1368     0.0000 
     44 H           5.8210   22.0268   22.6688 H         1 GDU1368     0.0000 
     45 H           4.0875   22.1775   23.0040 H         1 GDU1368     0.0000 
     46 H           7.6549   20.5251   27.2202 H         1 GDU1368     0.0000 
     47 H           6.3683   18.6298   26.4677 H         1 GDU1368     0.0000 
     48 H           5.4459   20.4889   24.2483 H         1 GDU1368     0.0000 
     49 H           3.2566   20.1207   25.1383 H         1 GDU1368     0.0000 
     50 H           4.4713   22.0065   25.9819 H         1 GDU1368     0.0000 
     51 H           3.0762   20.6034   28.2815 H         1 GDU1368     0.0000 
     52 H           2.3895   21.7438   27.1120 H         1 GDU1368     0.0000 
     53 H           5.2133   23.5874   17.2983 H         1 GDU1368     0.0000 
     54 H           7.6309   23.2897   20.4616 H         1 GDU1368     0.0000 
     55 H           7.6667   19.7310   24.1812 H         1 GDU1368     0.0000 
     56 H           5.7948   18.4168   23.3861 H         1 GDU1368     0.0000 
     57 H           3.3627   18.0779   25.9578 H         1 GDU1368     0.0000 
     58 H           4.7226   22.5040   28.5142 H         1 GDU1368     0.0000 
@<TRIPOS>BOND
     1    2    1 1    
     2    6    1 1    
     3    9    1 1    
     4    3    2 1    
     5    7    2 2    
     6    4    3 1    
     7   37    3 1    
     8    5    4 1    
     9    8    4 2    
    10    6    5 2    
    11   38    5 1    
    12   39    6 1    
    13   10    9 1    
    14   14    9 1    
    15   40    9 1    
    16   11   10 1    
    17   12   10 1    
    18   41   10 1    
    19   53   11 1    
    20   13   12 1    
    21   15   12 1    
    22   42   12 1    
    23   14   13 1    
    24   16   13 1    
    25   43   13 1    
    26   54   15 1    
    27   17   16 1    
    28   44   16 1    
    29   45   16 1    
    30   18   17 1    
    31   19   18 ar   
    32   20   18 ar   
    33   21   18 1    
    34   22   21 1    
    35   23   22 ar   
    36   24   22 ar   
    37   25   22 1    
    38   26   25 1    
    39   27   26 1    
    40   35   26 1    
    41   46   26 1    
    42   28   27 1    
    43   32   27 1    
    44   47   27 1    
    45   29   28 1    
    46   33   28 1    
    47   48   28 1    
    48   30   29 1    
    49   34   29 1    
    50   49   29 1    
    51   31   30 1    
    52   35   30 1    
    53   50   30 1    
    54   36   31 1    
    55   51   31 1    
    56   52   31 1    
    57   55   32 1    
    58   56   33 1    
    59   57   34 1    
    60   58   36 1    
@<TRIPOS>SUBSTRUCTURE
     1 GDU1368     1 GROUP   
@<TRIPOS>SET

