#    Name: 1h5s_TMP_8_INTS_M
#    Modification time : Tue Mar 25 04:43:19 2014

@<TRIPOS>MOLECULE
1h5s_TMP_8_INTS_M
   42     0     9     0     0
SMALL
NO_CHARGES


@<TRIPOS>ATOM
      1 CA         12.9430   15.3080   45.7870 C.3       3 GLC5        0.0000 
      2 CA         13.8100   14.2470   47.5650 C.3       9 GLL5        0.0000 
      3 CA         12.0760   16.3690   44.0090 C.3       6 GLP5        0.0000 
      4 CA         16.6235   15.5140   50.0205 C.3       3 GLC5        0.0000 
      5 CA         14.5250   15.8890   49.3510 C.3       9 GLL5        0.0000 
      6 CA         18.7220   15.1390   50.6900 C.3       6 GLP5        0.0000 
      7 N          17.3100   17.0195   49.4120 N.am      2 SEC2        0.0000 
      8 N          15.5960   16.8790   49.4440 N.am      8 SEL2        0.0000 
      9 N          19.0240   17.1600   49.3800 N.am      5 SEP2        0.0000 
     10 O          15.8425   17.1730   50.9100 O.2       1 ALC1        0.0000 
     11 O          15.5960   16.8790   49.4440 O.2       7 ALL1        0.0000 
     12 O          16.0890   17.4670   52.3760 O.2       4 ALP1        0.0000 
     13 CA         12.7875   19.0250   47.2840 C.3       3 GLC5        0.0000 
     14 CA         12.8300   17.3360   48.5440 C.3       9 GLL5        0.0000 
     15 CA         12.7450   20.7140   46.0240 C.3       6 GLP5        0.0000 
     16 N          12.1705   20.2530   49.7800 N.am      2 SEC2        0.0000 
     17 N          11.6130   19.7070   48.7230 N.am      8 SEL2        0.0000 
     18 N          12.7280   20.7990   50.8370 N.am      5 SEP2        0.0000 
     19 O           9.0135   20.0555   47.8905 O.2       1 ALC1        0.0000 
     20 O           9.6920   18.9120   47.6110 O.2       7 ALL1        0.0000 
     21 O           8.3350   21.1990   48.1700 O.2       4 ALP1        0.0000 
     22 N           7.4450   19.6365   46.4185 N.am      2 SEC2        0.0000 
     23 N           7.8010   18.1120   46.5230 N.am      8 SEL2        0.0000 
     24 N           7.0890   21.1610   46.3140 N.am      5 SEP2        0.0000 
     25 N           6.8395   17.8545   45.4645 N.am      2 SEC2        0.0000 
     26 N           5.8780   17.5970   44.4060 N.am      5 SEP2        0.0000 
     27 CA          7.9095   17.1000   48.3440 C.3       3 GLC5        0.0000 
     28 CA          9.5880   16.6480   47.0110 C.3       9 GLL5        0.0000 
     29 CA          6.2310   17.5520   49.6770 C.3       6 GLP5        0.0000 
     30 CA          7.7670   16.2860   44.8595 C.3       3 GLC5        0.0000 
     31 CA          8.8290   15.4660   46.4330 C.3       9 GLL5        0.0000 
     32 CA          6.7050   17.1060   43.2860 C.3       6 GLP5        0.0000 
     33 CA         10.3455   16.8795   49.5795 C.3       3 GLC5        0.0000 
     34 CA         10.8180   16.4610   47.5850 C.3       9 GLL5        0.0000 
     35 CA          9.8730   17.2980   51.5740 C.3       6 GLP5        0.0000 
     36 CA         15.1512   15.1185   46.0065 C.3       3 GLC5        0.0000 
     37 CA         14.3470   15.6390   47.8650 C.3       9 GLL5        0.0000 
     38 CA         16.2240   15.2940   44.2980 C.3       6 GLP5        0.0000 
     39 CA         11.4270   17.0877   50.3582 C.3       3 GLC5        0.0000 
     40 CA         11.2110   18.1097   46.1465 C.3       3 GLC5        0.0000 
     41 CA         12.2190   19.6650   44.9950 C.3       6 GLP5        0.0000 
     42 CA         11.0446   16.3140   45.5812 C.3       3 GLC5        0.0000 
@<TRIPOS>BOND
@<TRIPOS>SUBSTRUCTURE
     1 ALC1       10 GROUP        1 X    ALC  0     ROOT ALC X 1
     2 SEC2        7 GROUP        1 X    SEC  0     **** SEC X 2
     3 GLC5        1 GROUP        1 X    GLC  0     **** GLC X 6
     4 ALP1       12 GROUP        1 Y    ALP  0     ROOT ALP Y 8
     5 SEP2        9 GROUP        1 Y    SEP  0     **** SEP Y 9
     6 GLP5        3 GROUP        1 Y    GLP  0     **** GLP Y 13
     7 ALL1       11 GROUP        1 Z    ALL  0     ROOT ALL Z 15
     8 SEL2        8 GROUP        1 Z    SEL  0     **** SEL Z 16
     9 GLL5        2 GROUP        1 Z    GLL  0     **** GLL Z 20
@<TRIPOS>SET

