#    Name: 1h5s_TMP_8_ligand
#    Modification time : Tue Mar 25 04:43:19 2014

@<TRIPOS>MOLECULE
1h5s_TMP_8_ligand
   34    35     1     0     0
SMALL
NO_CHARGES


@<TRIPOS>ATOM
      1 P          12.2650   12.4870   48.4820 P.3       1 TMP1293     0.0000 
      2 O1P        13.6420   12.4940   49.1120 O.co2     1 TMP1293     0.0000 
      3 O2P        11.0170   12.9330   49.1970 O.co2     1 TMP1293     0.0000 
      4 O3P        12.1120   12.0610   47.0260 O.co2     1 TMP1293     0.0000 
      5 O5'        12.5840   13.9450   48.1920 O.3       1 TMP1293     0.0000 
      6 C5'        13.8100   14.2470   47.5650 C.3       1 TMP1293     0.0000 
      7 C4'        14.3470   15.6390   47.8650 C.3       1 TMP1293     0.0000 
      8 O4'        13.4530   16.6690   47.4380 O.3       1 TMP1293     0.0000 
      9 C3'        14.5250   15.8890   49.3510 C.3       1 TMP1293     0.0000 
     10 O3'        15.5960   16.8790   49.4440 O.3       1 TMP1293     0.0000 
     11 C2'        13.1320   16.4190   49.7410 C.3       1 TMP1293     0.0000 
     12 C1'        12.8300   17.3360   48.5440 C.3       1 TMP1293     0.0000 
     13 N1         11.4440   17.4910   48.1490 N.am      1 TMP1293     0.0000 
     14 C2         10.9020   18.7060   48.1770 C.2       1 TMP1293     0.0000 
     15 O2         11.6130   19.7070   48.7230 O.2       1 TMP1293     0.0000 
     16 N3          9.6920   18.9120   47.6110 N.am      1 TMP1293     0.0000 
     17 C4          9.0330   17.9210   47.0200 C.2       1 TMP1293     0.0000 
     18 O4          7.8010   18.1120   46.5230 O.2       1 TMP1293     0.0000 
     19 C5          9.5880   16.6480   47.0110 C.2       1 TMP1293     0.0000 
     20 C5M         8.8290   15.4660   46.4330 C.3       1 TMP1293     0.0000 
     21 C6         10.8180   16.4610   47.5850 C.2       1 TMP1293     0.0000 
     22 H          13.7340   14.1575   46.4518 H         1 TMP1293     0.0000 
     23 H          14.6086   13.5179   47.8539 H         1 TMP1293     0.0000 
     24 H          15.3120   15.7634   47.3952 H         1 TMP1293     0.0000 
     25 H          14.7202   14.9937   49.8204 H         1 TMP1293     0.0000 
     26 H          13.2020   16.9877   50.6162 H         1 TMP1293     0.0000 
     27 H          12.4469   15.6289   49.7657 H         1 TMP1293     0.0000 
     28 H          13.3138   18.2751   48.6974 H         1 TMP1293     0.0000 
     29 H           9.2733   19.8771   47.6442 H         1 TMP1293     0.0000 
     30 H          11.2444   15.5134   47.5707 H         1 TMP1293     0.0000 
     31 H           9.3571   14.6191   46.4954 H         1 TMP1293     0.0000 
     32 H           7.9655   15.3089   46.9122 H         1 TMP1293     0.0000 
     33 H           8.6077   15.6030   45.4675 H         1 TMP1293     0.0000 
     34 H          15.7310   17.0228   50.4244 H         1 TMP1293     0.0000 
@<TRIPOS>BOND
     1    2    1 ar   
     2    3    1 ar   
     3    4    1 ar   
     4    5    1 1    
     5    6    5 1    
     6    7    6 1    
     7   22    6 1    
     8   23    6 1    
     9    8    7 1    
    10    9    7 1    
    11   24    7 1    
    12   12    8 1    
    13   10    9 1    
    14   11    9 1    
    15   25    9 1    
    16   34   10 1    
    17   12   11 1    
    18   26   11 1    
    19   27   11 1    
    20   13   12 1    
    21   28   12 1    
    22   14   13 am   
    23   21   13 1    
    24   15   14 2    
    25   16   14 1    
    26   17   16 am   
    27   29   16 1    
    28   18   17 2    
    29   19   17 1    
    30   20   19 1    
    31   21   19 2    
    32   31   20 1    
    33   32   20 1    
    34   33   20 1    
    35   30   21 1    
@<TRIPOS>SUBSTRUCTURE
     1 TMP1293     1 GROUP   
@<TRIPOS>SET

