#    Name: 3b2r_VDN_2_INTS_M
#    Modification time : Mon Mar 24 18:49:20 2014

@<TRIPOS>MOLECULE
3b2r_VDN_2_INTS_M
   76     0     6     0     0
SMALL
NO_CHARGES


@<TRIPOS>ATOM
      1 CA         62.1000   34.1305   26.2930 C.3       2 GLC5        0.0000 
      2 CA         63.8230   32.9420   25.6280 C.3       6 GLL5        0.0000 
      3 CA         60.3770   35.3190   26.9580 C.3       4 GLP5        0.0000 
      4 CA         63.3770   31.2275   26.9950 C.3       2 GLC5        0.0000 
      5 CA         62.9310   29.5130   28.3620 C.3       4 GLP5        0.0000 
      6 CA         65.1095   33.4130   27.1240 C.3       2 GLC5        0.0000 
      7 CA         66.3960   33.8840   28.6200 C.3       4 GLP5        0.0000 
      8 CA         64.1390   34.4745   24.6245 C.3       2 GLC5        0.0000 
      9 CA         64.4550   36.0070   23.6210 C.3       4 GLP5        0.0000 
     10 CA         65.6275   33.2760   24.4125 C.3       2 GLC5        0.0000 
     11 CA         64.1620   31.9110   24.5500 C.3       6 GLL5        0.0000 
     12 CA         67.0930   34.6410   24.2750 C.3       4 GLP5        0.0000 
     13 CA         63.3910   29.6070   26.1720 C.3       2 GLC5        0.0000 
     14 CA         63.8510   29.7010   23.9820 C.3       6 GLL5        0.0000 
     15 CA         65.2735   30.7170   21.5165 C.3       2 GLC5        0.0000 
     16 CA         65.0210   29.7160   23.2300 C.3       6 GLL5        0.0000 
     17 CA         65.5260   31.7180   19.8030 C.3       4 GLP5        0.0000 
     18 CA         66.7150   29.0295   21.3480 C.3       2 GLC5        0.0000 
     19 CA         65.2320   28.7420   22.2600 C.3       6 GLL5        0.0000 
     20 CA         68.1980   29.3170   20.4360 C.3       4 GLP5        0.0000 
     21 CA         63.7490   26.1540   24.0875 C.3       2 GLC5        0.0000 
     22 CA         63.1050   27.7390   22.7950 C.3       6 GLL5        0.0000 
     23 CA         64.3930   24.5690   25.3800 C.3       4 GLP5        0.0000 
     24 N          66.7565   24.8105   22.0195 N.am      1 SEC2        0.0000 
     25 N          65.3110   25.3980   21.3440 N.am      5 SEL2        0.0000 
     26 N          68.2020   24.2230   22.6950 N.am      3 SEP2        0.0000 
     27 CA         67.4065   24.6875   19.7625 C.3       2 GLC5        0.0000 
     28 CA         66.3740   26.4010   18.9570 C.3       6 GLL5        0.0000 
     29 CA         68.4390   22.9740   20.5680 C.3       4 GLP5        0.0000 
     30 CA         67.2860   27.8590   19.6965 C.3       2 GLC5        0.0000 
     31 CA         66.7000   23.6890   18.6295 C.3       2 GLC5        0.0000 
     32 CA         65.6670   25.5320   17.9150 C.3       6 GLL5        0.0000 
     33 CA         67.7330   21.8460   19.3440 C.3       4 GLP5        0.0000 
     34 CA         62.6475   28.3820   16.6780 C.3       2 GLC5        0.0000 
     35 CA         63.9240   27.1200   17.6610 C.3       6 GLL5        0.0000 
     36 CA         61.3710   29.6440   15.6950 C.3       4 GLP5        0.0000 
     37 CA         64.5560   30.0060   18.6730 C.3       2 GLC5        0.0000 
     38 CA         64.5600   28.0430   18.7020 C.3       6 GLL5        0.0000 
     39 CA         64.5520   31.9690   18.6440 C.3       4 GLP5        0.0000 
     40 N          59.4260   32.0495   24.6850 N.am      1 SEC2        0.0000 
     41 N          59.0670   30.8320   25.4700 N.am      5 SEL2        0.0000 
     42 N          59.7850   33.2670   23.9000 N.am      3 SEP2        0.0000 
     43 CA         57.5985   28.7550   29.3275 C.3       2 GLC5        0.0000 
     44 CA         57.2050   29.0530   27.1760 C.3       6 GLL5        0.0000 
     45 CA         57.9920   28.4570   31.4790 C.3       4 GLP5        0.0000 
     46 CA         55.9130   29.9680   28.3125 C.3       2 GLC5        0.0000 
     47 CA         54.6210   30.8830   29.4490 C.3       4 GLP5        0.0000 
     48 CA         55.7730   29.7280   25.6115 C.3       2 GLC5        0.0000 
     49 CA         54.3410   30.4030   24.0470 C.3       4 GLP5        0.0000 
     50 CA         57.6000   28.3615   25.1595 C.3       2 GLC5        0.0000 
     51 CA         57.9950   27.6700   23.1430 C.3       4 GLP5        0.0000 
     52 CA         60.1755   23.2895   25.4690 C.3       2 GLC5        0.0000 
     53 CA         60.2840   25.0760   26.5630 C.3       6 GLL5        0.0000 
     54 CA         60.0670   21.5030   24.3750 C.3       4 GLP5        0.0000 
     55 CA         58.2520   24.5495   26.4070 C.3       2 GLC5        0.0000 
     56 CA         56.2200   24.0230   26.2510 C.3       4 GLP5        0.0000 
     57 CA         59.2825   25.7045   24.9650 C.3       2 GLC5        0.0000 
     58 CA         58.2810   26.3330   23.3670 C.3       4 GLP5        0.0000 
     59 CA         60.0610   26.5995   30.1750 C.3       2 GLC5        0.0000 
     60 CA         61.1540   25.7290   28.8440 C.3       6 GLL5        0.0000 
     61 CA         58.9680   27.4700   31.5060 C.3       4 GLP5        0.0000 
     62 CA         62.0425   27.6210   28.6030 C.3       2 GLC5        0.0000 
     63 CA         62.6188   33.3148   23.6430 C.3       2 GLC5        0.0000 
     64 CA         61.2450   34.2030   22.1970 C.3       4 GLP5        0.0000 
     65 CA         61.8309   28.3676   21.6956 C.3       2 GLC5        0.0000 
     66 CA         60.3690   28.5040   20.3000 C.3       4 GLP5        0.0000 
     67 CA         62.1595   27.7968   18.5297 C.3       2 GLC5        0.0000 
     68 CA         60.0770   28.0120   18.8780 C.3       4 GLP5        0.0000 
     69 CA         59.8940   29.2978   27.9685 C.3       2 GLC5        0.0000 
     70 CA         59.4340   28.6220   25.9290 C.3       6 GLL5        0.0000 
     71 CA         60.8790   30.1910   29.6090 C.3       4 GLP5        0.0000 
     72 CA         62.3192   24.1328   26.2465 C.3       2 GLC5        0.0000 
     73 CA         63.7520   23.1960   25.4580 C.3       4 GLP5        0.0000 
     74 CA         63.3077   25.3965   28.6562 C.3       2 GLC5        0.0000 
     75 CA         61.4890   25.0630   27.5070 C.3       6 GLL5        0.0000 
     76 CA         65.2940   25.3970   29.1370 C.3       4 GLP5        0.0000 
@<TRIPOS>BOND
@<TRIPOS>SUBSTRUCTURE
     1 SEC2       24 GROUP        1 X    SEC  0     ROOT SEC X 2
     2 GLC5        1 GROUP        1 X    GLC  0     **** GLC X 6
     3 SEP2       26 GROUP        1 Y    SEP  0     ROOT SEP Y 9
     4 GLP5        3 GROUP        1 Y    GLP  0     **** GLP Y 13
     5 SEL2       25 GROUP        1 Z    SEL  0     ROOT SEL Z 16
     6 GLL5        2 GROUP        1 Z    GLL  0     **** GLL Z 20
@<TRIPOS>SET

