#    Name: 3b2r_VDN_2_ligand
#    Modification time : Mon Mar 24 18:49:20 2014

@<TRIPOS>MOLECULE
3b2r_VDN_2_ligand
   66    69     1     0     0
SMALL
NO_CHARGES


@<TRIPOS>ATOM
      1 C1         63.8230   32.9420   25.6280 C.3       1 VDN1        0.0000 
      2 C2         64.1620   31.9110   24.5500 C.3       1 VDN1        0.0000 
      3 O3         63.6480   30.6330   24.9530 O.3       1 VDN1        0.0000 
      4 C4         63.8510   29.7010   23.9820 C.ar      1 VDN1        0.0000 
      5 C5         65.0210   29.7160   23.2300 C.ar      1 VDN1        0.0000 
      6 C6         65.2320   28.7420   22.2600 C.ar      1 VDN1        0.0000 
      7 C7         64.2760   27.7560   22.0440 C.ar      1 VDN1        0.0000 
      8 C8         63.1050   27.7390   22.7950 C.ar      1 VDN1        0.0000 
      9 C9         62.8950   28.7150   23.7630 C.ar      1 VDN1        0.0000 
     10 S10        64.5520   26.5670   20.7900 S.o2      1 VDN1        0.0000 
     11 O11        65.3110   25.3980   21.3440 O.2       1 VDN1        0.0000 
     12 O12        63.2410   26.0830   20.2450 O.2       1 VDN1        0.0000 
     13 C13        64.6740   26.2540   14.5250 C.3       1 VDN1        0.0000 
     14 N14        65.4330   27.3080   19.6320 N.pl3     1 VDN1        0.0000 
     15 C15        66.3740   26.4010   18.9570 C.3       1 VDN1        0.0000 
     16 C16        65.6670   25.5320   17.9150 C.3       1 VDN1        0.0000 
     17 N17        64.9890   26.4040   16.9460 N.3       1 VDN1        0.0000 
     18 C18        63.9240   27.1200   17.6610 C.3       1 VDN1        0.0000 
     19 C19        64.5600   28.0430   18.7020 C.3       1 VDN1        0.0000 
     20 C20        64.4040   25.5860   15.8750 C.3       1 VDN1        0.0000 
     21 C21        61.7200   28.7100   24.5070 C.2       1 VDN1        0.0000 
     22 N22        60.9650   29.8840   24.6120 N.2       1 VDN1        0.0000 
     23 C23        59.7770   29.8350   25.3480 C.2       1 VDN1        0.0000 
     24 C24        59.4340   28.6220   25.9290 C.2       1 VDN1        0.0000 
     25 N25        60.2700   27.5140   25.7610 N.pl3     1 VDN1        0.0000 
     26 N26        61.3090   27.5800   25.1040 N.pl3     1 VDN1        0.0000 
     27 O27        59.0670   30.8320   25.4700 O.2       1 VDN1        0.0000 
     28 C28        58.3840   28.1870   26.7270 C.2       1 VDN1        0.0000 
     29 N29        58.5430   26.9050   27.0450 N.2       1 VDN1        0.0000 
     30 C30        59.6670   26.4730   26.4770 C.2       1 VDN1        0.0000 
     31 C31        57.2050   29.0530   27.1760 C.3       1 VDN1        0.0000 
     32 C32        60.2840   25.0760   26.5630 C.3       1 VDN1        0.0000 
     33 C33        61.4890   25.0630   27.5070 C.3       1 VDN1        0.0000 
     34 C34        61.1540   25.7290   28.8440 C.3       1 VDN1        0.0000 
     35 H          65.2469   31.8917   24.4332 H         1 VDN1        0.0000 
     36 H          63.7176   32.2477   23.6118 H         1 VDN1        0.0000 
     37 H          65.7270   30.4442   23.3906 H         1 VDN1        0.0000 
     38 H          66.0961   28.7513   21.7020 H         1 VDN1        0.0000 
     39 H          62.4009   27.0107   22.6354 H         1 VDN1        0.0000 
     40 H          66.8598   25.7375   19.6847 H         1 VDN1        0.0000 
     41 H          67.1633   26.9715   18.4497 H         1 VDN1        0.0000 
     42 H          64.9522   24.8926   18.4279 H         1 VDN1        0.0000 
     43 H          66.4115   24.9104   17.4229 H         1 VDN1        0.0000 
     44 H          63.2656   26.4237   18.1748 H         1 VDN1        0.0000 
     45 H          63.3368   27.7267   16.9760 H         1 VDN1        0.0000 
     46 H          65.1305   28.8188   18.1702 H         1 VDN1        0.0000 
     47 H          63.7523   28.5495   19.2510 H         1 VDN1        0.0000 
     48 H          64.8463   24.5913   15.8610 H         1 VDN1        0.0000 
     49 H          63.3269   25.4921   16.0029 H         1 VDN1        0.0000 
     50 H          61.9504   26.7184   24.9740 H         1 VDN1        0.0000 
     51 H          60.6038   24.7630   25.5698 H         1 VDN1        0.0000 
     52 H          59.5350   24.3746   26.9287 H         1 VDN1        0.0000 
     53 H          62.3168   25.5955   27.0388 H         1 VDN1        0.0000 
     54 H          61.7925   24.0317   27.6865 H         1 VDN1        0.0000 
     55 H          64.2216   32.6994   26.5124 H         1 VDN1        0.0000 
     56 H          64.1646   33.8518   25.3923 H         1 VDN1        0.0000 
     57 H          62.8359   33.0258   25.7645 H         1 VDN1        0.0000 
     58 H          65.6534   26.3525   14.3486 H         1 VDN1        0.0000 
     59 H          64.2911   25.7266   13.7665 H         1 VDN1        0.0000 
     60 H          64.2741   27.1693   14.4769 H         1 VDN1        0.0000 
     61 H          57.5064   29.8421   27.7112 H         1 VDN1        0.0000 
     62 H          56.6868   29.4074   26.3976 H         1 VDN1        0.0000 
     63 H          56.5633   28.5400   27.7462 H         1 VDN1        0.0000 
     64 H          61.9353   25.7227   29.4681 H         1 VDN1        0.0000 
     65 H          60.8814   26.6838   28.7253 H         1 VDN1        0.0000 
     66 H          60.4015   25.2653   29.3117 H         1 VDN1        0.0000 
@<TRIPOS>BOND
     1    2    1 1    
     2   55    1 1    
     3   56    1 1    
     4   57    1 1    
     5    3    2 1    
     6   35    2 1    
     7   36    2 1    
     8    4    3 1    
     9    5    4 ar   
    10    9    4 ar   
    11    6    5 ar   
    12   37    5 1    
    13    7    6 ar   
    14   38    6 1    
    15    8    7 ar   
    16   10    7 1    
    17    9    8 ar   
    18   39    8 1    
    19   21    9 1    
    20   11   10 2    
    21   12   10 2    
    22   14   10 1    
    23   20   13 1    
    24   58   13 1    
    25   59   13 1    
    26   60   13 1    
    27   15   14 1    
    28   19   14 1    
    29   16   15 1    
    30   40   15 1    
    31   41   15 1    
    32   17   16 1    
    33   42   16 1    
    34   43   16 1    
    35   18   17 1    
    36   20   17 1    
    37   19   18 1    
    38   44   18 1    
    39   45   18 1    
    40   46   19 1    
    41   47   19 1    
    42   48   20 1    
    43   49   20 1    
    44   22   21 2    
    45   26   21 1    
    46   23   22 1    
    47   24   23 1    
    48   27   23 2    
    49   25   24 1    
    50   28   24 2    
    51   26   25 1    
    52   30   25 1    
    53   50   26 1    
    54   29   28 1    
    55   31   28 1    
    56   30   29 2    
    57   32   30 1    
    58   61   31 1    
    59   62   31 1    
    60   63   31 1    
    61   33   32 1    
    62   51   32 1    
    63   52   32 1    
    64   34   33 1    
    65   53   33 1    
    66   54   33 1    
    67   64   34 1    
    68   65   34 1    
    69   66   34 1    
@<TRIPOS>SUBSTRUCTURE
     1 VDN1        1 GROUP   
@<TRIPOS>SET

