#    Name: 1f6m_3AA_3_INTS_M
#    Modification time : Tue Mar 25 00:56:22 2014

@<TRIPOS>MOLECULE
1f6m_3AA_3_INTS_M
   95     0    12     0     0
SMALL
NO_CHARGES


@<TRIPOS>ATOM
      1 CA         22.5070   17.6090   51.1685 C.3       4 GLC5        0.0000 
      2 CA         24.2690   18.4630   51.5980 C.3      12 GLL5        0.0000 
      3 CA         20.7450   16.7550   50.7390 C.3       8 GLP5        0.0000 
      4 CA         25.8965   20.0685   47.9465 C.3       4 GLC5        0.0000 
      5 CA         25.0140   21.1540   49.6950 C.3      12 GLL5        0.0000 
      6 CA         26.7790   18.9830   46.1980 C.3       8 GLP5        0.0000 
      7 CA         23.6115   19.8555   48.7190 C.3       4 GLC5        0.0000 
      8 CA         22.2090   18.5570   47.7430 C.3       8 GLP5        0.0000 
      9 CA         22.2135   23.7345   45.2195 C.3       4 GLC5        0.0000 
     10 CA         23.9310   23.8400   46.4850 C.3      12 GLL5        0.0000 
     11 CA         20.4960   23.6290   43.9540 C.3       8 GLP5        0.0000 
     12 CA         24.7685   25.0410   47.3160 C.3       4 GLC5        0.0000 
     13 CA         25.6060   26.2420   48.1470 C.3       8 GLP5        0.0000 
     14 CA         23.2835   22.0225   46.1905 C.3       4 GLC5        0.0000 
     15 CA         22.6360   20.2050   45.8960 C.3       8 GLP5        0.0000 
     16 CA         21.2150   23.9080   45.7370 C.3       4 GLC5        0.0000 
     17 CA         21.9340   24.1870   47.5200 C.3      12 GLL5        0.0000 
     18 CA         20.8015   22.6515   46.8950 C.3       4 GLC5        0.0000 
     19 CA         19.6690   21.1160   46.2700 C.3       8 GLP5        0.0000 
     20 NZ         26.5785   24.6675   51.8265 N.4       3 LYC4        0.0000 
     21 NZ         27.9270   24.3100   52.0630 N.4      11 LYL4        0.0000 
     22 NZ         24.9240   25.5470   50.4050 N.4       7 LYP4        0.0000 
     23 NZ         29.2420   23.6785   52.6880 N.4       3 LYC4        0.0000 
     24 NZ         31.5530   23.9150   53.4290 N.4       7 LYP4        0.0000 
     25 N          26.5785   24.6675   51.8265 N.am      2 SEC2        0.0000 
     26 N          27.9270   24.3100   52.0630 N.am     10 SEL2        0.0000 
     27 N          25.2300   25.0250   51.5900 N.am      6 SEP2        0.0000 
     28 N          29.2420   23.6785   52.6880 N.am      2 SEC2        0.0000 
     29 N          30.5570   23.0470   53.3130 N.am      6 SEP2        0.0000 
     30 NZ         26.7315   22.3630   54.8180 N.4       3 LYC4        0.0000 
     31 NZ         26.2190   23.1390   53.5030 N.4      11 LYL4        0.0000 
     32 NZ         27.4420   20.2900   55.9370 N.4       7 LYP4        0.0000 
     33 N          26.7315   22.3630   54.8180 N.am      2 SEC2        0.0000 
     34 N          26.2190   23.1390   53.5030 N.am     10 SEL2        0.0000 
     35 N          27.2440   21.5870   56.1330 N.am      6 SEP2        0.0000 
     36 NZ         29.9415   22.9180   53.0930 N.4       3 LYC4        0.0000 
     37 NZ         28.3300   21.9210   52.7570 N.4      11 LYL4        0.0000 
     38 NZ         27.8860   21.1055   54.3470 N.4       3 LYC4        0.0000 
     39 N          27.8765   19.5505   49.4325 N.am      2 SEC2        0.0000 
     40 N          27.5670   20.0810   50.6780 N.am     10 SEL2        0.0000 
     41 N          28.1860   19.0200   48.1870 N.am      6 SEP2        0.0000 
     42 N          25.9530   13.0755   50.5875 N.am      2 SEC2        0.0000 
     43 N          25.1850   14.0740   51.2720 N.am     10 SEL2        0.0000 
     44 N          26.7210   12.0770   49.9030 N.am      6 SEP2        0.0000 
     45 N          23.3295   12.7040   50.3810 N.am      2 SEC2        0.0000 
     46 N          22.7110   13.6220   50.8830 N.am     10 SEL2        0.0000 
     47 N          23.9480   11.7860   49.8790 N.am      6 SEP2        0.0000 
     48 CA         20.9400   13.2620   52.7780 C.3       4 GLC5        0.0000 
     49 CA         22.6220   13.2310   54.0610 C.3      12 GLL5        0.0000 
     50 CA         19.2580   13.2930   51.4950 C.3       8 GLP5        0.0000 
     51 O          22.9830   11.5315   57.8525 O.2       1 ALC1        0.0000 
     52 O          23.6230   12.9100   57.4820 O.2       9 ALL1        0.0000 
     53 O          22.3430   10.1530   58.2230 O.2       5 ALP1        0.0000 
     54 CA         26.6090   11.6665   54.1920 C.3       4 GLC5        0.0000 
     55 CA         25.1430   11.8730   55.7600 C.3      12 GLL5        0.0000 
     56 CA         28.0750   11.4600   52.6240 C.3       8 GLP5        0.0000 
     57 N          27.3610   11.4190   55.8700 N.am      2 SEC2        0.0000 
     58 N          26.0620   11.7830   56.8120 N.am     10 SEL2        0.0000 
     59 N          28.6600   11.0550   54.9280 N.am      6 SEP2        0.0000 
     60 N          25.7135   11.0140   57.9430 N.am      2 SEC2        0.0000 
     61 N          25.3650   10.2450   59.0740 N.am      6 SEP2        0.0000 
     62 CA         22.9845    9.1265   55.2210 C.3       4 GLC5        0.0000 
     63 CA         24.4300   10.5930   55.3520 C.3      12 GLL5        0.0000 
     64 CA         21.5390    7.6600   55.0900 C.3       8 GLP5        0.0000 
     65 CA         28.0660    8.3380   50.7045 C.3       4 GLC5        0.0000 
     66 CA         26.4240    8.5250   52.0940 C.3      12 GLL5        0.0000 
     67 CA         29.7080    8.1510   49.3150 C.3       8 GLP5        0.0000 
     68 CA         25.7450   10.5295   50.2665 C.3       4 GLC5        0.0000 
     69 CA         25.4270    9.4820   51.8360 C.3      12 GLL5        0.0000 
     70 CA         26.0630   11.5770   48.6970 C.3       8 GLP5        0.0000 
     71 O          28.5335    6.9405   52.3990 O.2       1 ALC1        0.0000 
     72 O          27.6380    7.3040   53.7310 O.2       9 ALL1        0.0000 
     73 O          29.4290    6.5770   51.0670 O.2       5 ALP1        0.0000 
     74 CA         23.5060   18.6522   49.4255 C.3       4 GLC5        0.0000 
     75 CA         27.6205   19.1645   49.9195 C.3       4 GLC5        0.0000 
     76 CA         25.3370   19.0320   50.6180 C.3      12 GLL5        0.0000 
     77 CA         29.4310   18.7920   48.9000 C.3       8 GLP5        0.0000 
     78 CA         22.3675   21.4708   47.7695 C.3       4 GLC5        0.0000 
     79 CA         23.6140   22.7920   48.3840 C.3      12 GLL5        0.0000 
     80 CA         21.7460   19.8840   47.0800 C.3       8 GLP5        0.0000 
     81 CA         24.0338   24.9321   48.0682 C.3       4 GLC5        0.0000 
     82 CA         26.8035   17.7439   51.1905 C.3       4 GLC5        0.0000 
     83 CA         26.2830   20.0420   51.2600 C.3      12 GLL5        0.0000 
     84 CA         28.0640   16.0930   51.1970 C.3       8 GLP5        0.0000 
     85 CA         26.4385   18.8659   52.8105 C.3       4 GLC5        0.0000 
     86 CA         27.3340   18.3370   54.4370 C.3       8 GLP5        0.0000 
     87 CA         22.0153   12.3212   57.2938 C.3       4 GLC5        0.0000 
     88 CA         24.0360   12.8360   56.1210 C.3      12 GLL5        0.0000 
     89 CA         20.5860   12.0310   58.8580 C.3       8 GLP5        0.0000 
     90 CA         27.2235    9.9955   53.3147 C.3       4 GLC5        0.0000 
     91 CA         26.0260    8.8530   54.5470 C.3      12 GLL5        0.0000 
     92 CA         24.9465    7.3455   54.4067 C.3       4 GLC5        0.0000 
     93 CA         26.7180    8.2090   53.4640 C.3      12 GLL5        0.0000 
     94 CA         23.5210    6.1600   54.8080 C.3       8 GLP5        0.0000 
     95 CA         26.7026   10.5101   52.5198 C.3       4 GLC5        0.0000 
@<TRIPOS>BOND
@<TRIPOS>SUBSTRUCTURE
     1 ALC1       51 GROUP        1 X    ALC  0     ROOT ALC X 1
     2 SEC2       25 GROUP        1 X    SEC  0     **** SEC X 2
     3 LYC4       20 GROUP        1 X    LYC  0     **** LYC X 4
     4 GLC5        1 GROUP        1 X    GLC  0     **** GLC X 6
     5 ALP1       53 GROUP        1 Y    ALP  0     ROOT ALP Y 8
     6 SEP2       27 GROUP        1 Y    SEP  0     **** SEP Y 9
     7 LYP4       22 GROUP        1 Y    LYP  0     **** LYP Y 11
     8 GLP5        3 GROUP        1 Y    GLP  0     **** GLP Y 13
     9 ALL1       52 GROUP        1 Z    ALL  0     ROOT ALL Z 15
    10 SEL2       26 GROUP        1 Z    SEL  0     **** SEL Z 16
    11 LYL4       21 GROUP        1 Z    LYL  0     **** LYL Z 18
    12 GLL5        2 GROUP        1 Z    GLL  0     **** GLL Z 20
@<TRIPOS>SET

