#    Name: 1f6m_3AA_3_ligand
#    Modification time : Tue Mar 25 00:56:22 2014

@<TRIPOS>MOLECULE
1f6m_3AA_3_ligand
   71    75     1     0     0
SMALL
NO_CHARGES


@<TRIPOS>ATOM
      1 PA         23.9480   16.5120   53.3630 P.3       1 3AA3501     0.0000 
      2 O1A        22.7450   17.1450   53.9520 O.co2     1 3AA3501     0.0000 
      3 O2A        24.9330   15.7590   54.1920 O.co2     1 3AA3501     0.0000 
      4 O5B        24.8350   17.6220   52.6400 O.3       1 3AA3501     0.0000 
      5 C5B        24.2690   18.4630   51.5980 C.3       1 3AA3501     0.0000 
      6 C4B        25.3370   19.0320   50.6180 C.3       1 3AA3501     0.0000 
      7 O4B        24.7060   19.7430   49.5500 O.3       1 3AA3501     0.0000 
      8 C1B        25.0140   21.1540   49.6950 C.3       1 3AA3501     0.0000 
      9 N9A        23.7980   21.9730   49.4830 N.pl3     1 3AA3501     0.0000 
     10 C4A        23.6140   22.7920   48.3840 C.ar      1 3AA3501     0.0000 
     11 N3A        24.4750   23.0170   47.3520 N.ar      1 3AA3501     0.0000 
     12 C2A        23.9310   23.8400   46.4850 C.ar      1 3AA3501     0.0000 
     13 N1A        22.7580   24.4230   46.5060 N.ar      1 3AA3501     0.0000 
     14 C6A        21.9340   24.1870   47.5200 C.ar      1 3AA3501     0.0000 
     15 N6A        20.7230   24.7110   47.5190 N.pl3     1 3AA3501     0.0000 
     16 C5A        22.3640   23.3230   48.5340 C.ar      1 3AA3501     0.0000 
     17 N7A        21.7520   22.8550   49.7060 N.2       1 3AA3501     0.0000 
     18 C8A        22.6330   22.0700   50.2190 C.2       1 3AA3501     0.0000 
     19 C2B        25.6110   21.3610   51.0590 C.3       1 3AA3501     0.0000 
     20 O2B        26.4850   22.4650   51.1140 O.3       1 3AA3501     0.0000 
     21 P2B        27.2860   22.9820   52.4340 P.3       1 3AA3501     0.0000 
     22 O1X        27.9270   24.3100   52.0630 O.co2     1 3AA3501     0.0000 
     23 O2X        26.2190   23.1390   53.5030 O.co2     1 3AA3501     0.0000 
     24 O3X        28.3300   21.9210   52.7570 O.co2     1 3AA3501     0.0000 
     25 C3B        26.2830   20.0420   51.2600 C.3       1 3AA3501     0.0000 
     26 O3B        27.5670   20.0810   50.6780 O.3       1 3AA3501     0.0000 
     27 O3         23.3490   15.5890   52.2280 O.3       1 3AA3501     0.0000 
     28 PN         23.7940   14.1120   51.7730 P.3       1 3AA3501     0.0000 
     29 O1N        25.1850   14.0740   51.2720 O.co2     1 3AA3501     0.0000 
     30 O2N        22.7110   13.6220   50.8830 O.co2     1 3AA3501     0.0000 
     31 O5D        23.7580   13.3240   53.1610 O.3       1 3AA3501     0.0000 
     32 C5D        22.6220   13.2310   54.0610 C.3       1 3AA3501     0.0000 
     33 C4D        22.8530   12.3870   55.3380 C.3       1 3AA3501     0.0000 
     34 O4D        23.0930   11.0060   55.0090 O.3       1 3AA3501     0.0000 
     35 C3D        24.0360   12.8360   56.1210 C.3       1 3AA3501     0.0000 
     36 O3D        23.6230   12.9100   57.4820 O.3       1 3AA3501     0.0000 
     37 C2D        25.1430   11.8730   55.7600 C.3       1 3AA3501     0.0000 
     38 O2D        26.0620   11.7830   56.8120 O.3       1 3AA3501     0.0000 
     39 C1D        24.4300   10.5930   55.3520 C.3       1 3AA3501     0.0000 
     40 N1N        25.0350    9.8070   54.2270 N.pl3     1 3AA3501     0.0000 
     41 C2N        26.0260    8.8530   54.5470 C.ar      1 3AA3501     0.0000 
     42 C4N        26.4240    8.5250   52.0940 C.ar      1 3AA3501     0.0000 
     43 C5N        25.4270    9.4820   51.8360 C.ar      1 3AA3501     0.0000 
     44 C6N        24.7350   10.1170   52.8660 C.ar      1 3AA3501     0.0000 
     45 C3N        26.7180    8.2090   53.4640 C.ar      1 3AA3501     0.0000 
     46 N7N        27.6380    7.3040   53.7310 N.pl3     1 3AA3501     0.0000 
     47 H          23.7311   19.3265   52.0296 H         1 3AA3501     0.0000 
     48 H          23.5340   17.9054   50.9896 H         1 3AA3501     0.0000 
     49 H          25.9230   18.2165   50.2322 H         1 3AA3501     0.0000 
     50 H          25.7665   21.4306   48.9547 H         1 3AA3501     0.0000 
     51 H          24.5666   24.0786   45.5938 H         1 3AA3501     0.0000 
     52 H          20.1379   24.4683   48.2928 H         1 3AA3501     0.0000 
     53 H          20.5004   25.3032   46.7445 H         1 3AA3501     0.0000 
     54 H          22.5298   21.5506   51.0777 H         1 3AA3501     0.0000 
     55 H          24.7909   21.4163   51.7557 H         1 3AA3501     0.0000 
     56 H          26.3050   19.8464   52.3183 H         1 3AA3501     0.0000 
     57 H          21.7371   12.7973   53.5382 H         1 3AA3501     0.0000 
     58 H          22.2964   14.2448   54.3938 H         1 3AA3501     0.0000 
     59 H          21.9705   12.4679   55.9616 H         1 3AA3501     0.0000 
     60 H          24.3006   13.8220   55.7295 H         1 3AA3501     0.0000 
     61 H          25.6011   12.2858   54.8449 H         1 3AA3501     0.0000 
     62 H          24.3671    9.9568   56.2463 H         1 3AA3501     0.0000 
     63 H          26.2488    8.6236   55.4973 H         1 3AA3501     0.0000 
     64 H          26.9238    8.0680   51.3525 H         1 3AA3501     0.0000 
     65 H          25.2040    9.7185   50.8505 H         1 3AA3501     0.0000 
     66 H          24.0094   10.8075   52.6622 H         1 3AA3501     0.0000 
     67 H          28.1042    6.9044   52.9417 H         1 3AA3501     0.0000 
     68 H          27.7861    7.0993   54.6985 H         1 3AA3501     0.0000 
     69 H          28.0891   20.7175   51.2457 H         1 3AA3501     0.0000 
     70 H          23.2024   12.0232   57.6733 H         1 3AA3501     0.0000 
     71 H          25.7828   12.4910   57.4607 H         1 3AA3501     0.0000 
@<TRIPOS>BOND
     1    2    1 ar   
     2    3    1 ar   
     3    4    1 1    
     4   27    1 1    
     5    5    4 1    
     6    6    5 1    
     7   47    5 1    
     8   48    5 1    
     9    7    6 1    
    10   25    6 1    
    11   49    6 1    
    12    8    7 1    
    13    9    8 1    
    14   19    8 1    
    15   50    8 1    
    16   10    9 1    
    17   18    9 1    
    18   11   10 ar   
    19   16   10 ar   
    20   12   11 ar   
    21   13   12 ar   
    22   51   12 1    
    23   14   13 ar   
    24   15   14 1    
    25   16   14 ar   
    26   52   15 1    
    27   53   15 1    
    28   17   16 1    
    29   18   17 2    
    30   54   18 1    
    31   20   19 1    
    32   25   19 1    
    33   55   19 1    
    34   21   20 1    
    35   22   21 ar   
    36   23   21 ar   
    37   24   21 ar   
    38   26   25 1    
    39   56   25 1    
    40   69   26 1    
    41   28   27 1    
    42   29   28 ar   
    43   30   28 ar   
    44   31   28 1    
    45   32   31 1    
    46   33   32 1    
    47   57   32 1    
    48   58   32 1    
    49   34   33 1    
    50   35   33 1    
    51   59   33 1    
    52   39   34 1    
    53   36   35 1    
    54   37   35 1    
    55   60   35 1    
    56   70   36 1    
    57   38   37 1    
    58   39   37 1    
    59   61   37 1    
    60   71   38 1    
    61   40   39 1    
    62   62   39 1    
    63   41   40 ar   
    64   44   40 ar   
    65   45   41 ar   
    66   63   41 1    
    67   43   42 ar   
    68   45   42 ar   
    69   64   42 1    
    70   44   43 ar   
    71   65   43 1    
    72   66   44 1    
    73   46   45 1    
    74   67   46 1    
    75   68   46 1    
@<TRIPOS>SUBSTRUCTURE
     1 3AA3501     1 GROUP   
@<TRIPOS>SET

