#    Name: 4jt8_1NR_1_INTS_M
#    Modification time : Tue Mar 25 06:16:41 2014

@<TRIPOS>MOLECULE
4jt8_1NR_1_INTS_M
   62     0     9     0     0
SMALL
NO_CHARGES


@<TRIPOS>ATOM
      1 CA         21.7705   46.4710  -17.4200 C.3       3 GLC5        0.0000 
      2 CA         22.3370   46.7530  -15.7980 C.3       9 GLL5        0.0000 
      3 CA         21.2040   46.1890  -19.0420 C.3       6 GLP5        0.0000 
      4 O          23.8705   44.3400  -16.2640 O.2       1 ALC1        0.0000 
      5 O          24.2820   44.9270  -15.0450 O.2       7 ALL1        0.0000 
      6 O          23.4590   43.7530  -17.4830 O.2       4 ALP1        0.0000 
      7 CA         26.4105   42.6270  -14.8960 C.3       3 GLC5        0.0000 
      8 CA         25.0530   43.7440  -14.6150 C.3       9 GLL5        0.0000 
      9 CA         27.7680   41.5100  -15.1770 C.3       6 GLP5        0.0000 
     10 CA         26.0290   42.1720  -13.8210 C.3       3 GLC5        0.0000 
     11 CA         24.1740   42.7190  -13.8550 C.3       9 GLL5        0.0000 
     12 CA         27.8840   41.6250  -13.7870 C.3       6 GLP5        0.0000 
     13 CA         23.6020   41.3995  -15.5235 C.3       3 GLC5        0.0000 
     14 CA         23.0300   40.0800  -17.1920 C.3       6 GLP5        0.0000 
     15 CA         21.6835   43.9460  -12.8185 C.3       3 GLC5        0.0000 
     16 CA         23.7290   43.2310  -12.4550 C.3       9 GLL5        0.0000 
     17 CA         19.6380   44.6610  -13.1820 C.3       6 GLP5        0.0000 
     18 CA         21.5230   41.0230  -12.7535 C.3       3 GLC5        0.0000 
     19 CA         22.6360   42.2990  -11.9010 C.3       9 GLL5        0.0000 
     20 CA         20.4100   39.7470  -13.6060 C.3       6 GLP5        0.0000 
     21 CA         21.0320   42.8600  -12.9410 C.3       3 GLC5        0.0000 
     22 CA         19.4280   43.4210  -13.9810 C.3       6 GLP5        0.0000 
     23 CA         20.9230   43.6880  -11.8305 C.3       3 GLC5        0.0000 
     24 CA         22.2080   42.7150  -10.4790 C.3       9 GLL5        0.0000 
     25 CA         26.1745   41.9870  -12.2085 C.3       3 GLC5        0.0000 
     26 CA         24.9320   43.3580  -11.4740 C.3       9 GLL5        0.0000 
     27 CA         27.4170   40.6160  -12.9430 C.3       6 GLP5        0.0000 
     28 CA         22.9005   41.6440   -5.0045 C.3       3 GLC5        0.0000 
     29 CA         24.6810   42.0730   -6.3110 C.3       9 GLL5        0.0000 
     30 CA         21.1200   41.2150   -3.6980 C.3       6 GLP5        0.0000 
     31 CA         24.8335   40.8790   -4.5635 C.3       3 GLC5        0.0000 
     32 CA         24.9860   39.6850   -2.8160 C.3       6 GLP5        0.0000 
     33 CA         26.1625   41.2025   -6.6105 C.3       3 GLC5        0.0000 
     34 CA         27.6440   40.3320   -6.9100 C.3       6 GLP5        0.0000 
     35 N          25.2460   40.4185   -5.3855 N.am      2 SEC2        0.0000 
     36 N          24.0030   40.8880   -6.0390 N.am      8 SEL2        0.0000 
     37 N          26.4890   39.9490   -4.7320 N.am      5 SEP2        0.0000 
     38 CA         21.7670   39.0050  -10.6495 C.3       3 GLC5        0.0000 
     39 CA         21.7900   40.0240   -8.9220 C.3       9 GLL5        0.0000 
     40 CA         21.7440   37.9860  -12.3770 C.3       6 GLP5        0.0000 
     41 N          19.6430   38.1170  -10.0420 N.am      2 SEC2        0.0000 
     42 N          20.2420   37.5980   -8.9550 N.am      8 SEL2        0.0000 
     43 N          19.0440   38.6360  -11.1290 N.am      5 SEP2        0.0000 
     44 N          19.5520   36.7685   -9.9405 N.am      2 SEC2        0.0000 
     45 N          18.8620   35.9390  -10.9260 N.am      5 SEP2        0.0000 
     46 O          19.3505   36.3595   -6.9880 O.2       1 ALC1        0.0000 
     47 O          20.5200   37.1670   -6.7650 O.2       7 ALL1        0.0000 
     48 O          18.1810   35.5520   -7.2110 O.2       4 ALP1        0.0000 
     49 O          20.9225   37.3285   -5.3035 O.2       1 ALC1        0.0000 
     50 O          21.3250   37.4900   -3.8420 O.2       4 ALP1        0.0000 
     51 CA         25.8700   47.7188  -15.1720 C.3       3 GLC5        0.0000 
     52 CA         23.4820   47.2480  -14.9290 C.3       9 GLL5        0.0000 
     53 CA         27.8180   47.7470  -14.9920 C.3       6 GLP5        0.0000 
     54 CA         21.3072   46.5759  -14.3203 C.3       3 GLC5        0.0000 
     55 CA         19.8470   45.9430  -13.5640 C.3       6 GLP5        0.0000 
     56 CA         25.4758   41.8042   -9.8770 C.3       3 GLC5        0.0000 
     57 CA         26.2590   40.0390   -8.9850 C.3       6 GLP5        0.0000 
     58 CA         21.9468   40.5003   -5.2702 C.3       3 GLC5        0.0000 
     59 CA         23.1320   40.3560   -6.9220 C.3       9 GLL5        0.0000 
     60 CA         19.7908   39.7145   -8.9220 C.3       3 GLC5        0.0000 
     61 CA         21.6170   38.8980   -7.7880 C.3       9 GLL5        0.0000 
     62 CA         17.8780   39.9680   -9.4890 C.3       6 GLP5        0.0000 
@<TRIPOS>BOND
@<TRIPOS>SUBSTRUCTURE
     1 ALC1        4 GROUP        1 X    ALC  0     ROOT ALC X 1
     2 SEC2       35 GROUP        1 X    SEC  0     **** SEC X 2
     3 GLC5        1 GROUP        1 X    GLC  0     **** GLC X 6
     4 ALP1        6 GROUP        1 Y    ALP  0     ROOT ALP Y 8
     5 SEP2       37 GROUP        1 Y    SEP  0     **** SEP Y 9
     6 GLP5        3 GROUP        1 Y    GLP  0     **** GLP Y 13
     7 ALL1        5 GROUP        1 Z    ALL  0     ROOT ALL Z 15
     8 SEL2       36 GROUP        1 Z    SEL  0     **** SEL Z 16
     9 GLL5        2 GROUP        1 Z    GLL  0     **** GLL Z 20
@<TRIPOS>SET

