#    Name: 4jt8_1NR_1_ligand
#    Modification time : Tue Mar 25 06:16:41 2014

@<TRIPOS>MOLECULE
4jt8_1NR_1_ligand
   54    56     1     0     0
SMALL
NO_CHARGES


@<TRIPOS>ATOM
      1 CAY        24.3620   48.1330  -15.7750 C.3       1 1NR402      0.0000 
      2 CAX        23.4820   47.2480  -14.9290 C.3       1 1NR402      0.0000 
      3 CAZ        22.9140   48.0810  -13.7810 C.3       1 1NR402      0.0000 
      4 CBA        22.3370   46.7530  -15.7980 C.3       1 1NR402      0.0000 
      5 CAA        24.3160   46.0840  -14.3640 C.2       1 1NR402      0.0000 
      6 OAC        24.9770   46.2380  -13.3400 O.2       1 1NR402      0.0000 
      7 NAB        24.2820   44.9270  -15.0450 N.am      1 1NR402      0.0000 
      8 CAD        25.0530   43.7440  -14.6150 C.3       1 1NR402      0.0000 
      9 CAE        24.1740   42.7190  -13.8550 C.3       1 1NR402      0.0000 
     10 CAF        23.7290   43.2310  -12.4550 C.3       1 1NR402      0.0000 
     11 CAK        22.6360   42.2990  -11.9010 C.3       1 1NR402      0.0000 
     12 CAJ        22.2080   42.7150  -10.4790 C.3       1 1NR402      0.0000 
     13 CAG        24.9320   43.3580  -11.4740 C.3       1 1NR402      0.0000 
     14 CAH        24.4530   43.7810  -10.0640 C.3       1 1NR402      0.0000 
     15 NAI        23.4000   42.8280   -9.5890 N.3       1 1NR402      0.0000 
     16 C6         23.5590   42.1400   -8.4180 C.ar      1 1NR402      0.0000 
     17 N1         24.4270   42.6770   -7.5330 N.ar      1 1NR402      0.0000 
     18 C2         24.6810   42.0730   -6.3110 C.ar      1 1NR402      0.0000 
     19 N3         24.0030   40.8880   -6.0390 N.ar      1 1NR402      0.0000 
     20 C4         23.1320   40.3560   -6.9220 C.ar      1 1NR402      0.0000 
     21 CAR        22.4150   39.2150   -6.7630 C.2       1 1NR402      0.0000 
     22 C5         22.9170   40.9870   -8.1060 C.ar      1 1NR402      0.0000 
     23 SAT        21.7900   40.0240   -8.9220 S.3       1 1NR402      0.0000 
     24 CAS        21.6170   38.8980   -7.7880 C.2       1 1NR402      0.0000 
     25 CAU        20.7890   37.8470   -7.8850 C.2       1 1NR402      0.0000 
     26 OAV        20.2420   37.5980   -8.9550 O.2       1 1NR402      0.0000 
     27 NAW        20.5200   37.1670   -6.7650 N.am      1 1NR402      0.0000 
     28 H          23.7148   44.8040  -15.9052 H         1 1NR402      0.0000 
     29 H          25.8761   44.0378  -13.9502 H         1 1NR402      0.0000 
     30 H          25.4927   43.2316  -15.4809 H         1 1NR402      0.0000 
     31 H          24.7376   41.7931  -13.7272 H         1 1NR402      0.0000 
     32 H          23.2841   42.5042  -14.4493 H         1 1NR402      0.0000 
     33 H          23.2931   44.2184  -12.5896 H         1 1NR402      0.0000 
     34 H          23.0163   41.2795  -11.8735 H         1 1NR402      0.0000 
     35 H          21.7688   42.3356  -12.5579 H         1 1NR402      0.0000 
     36 H          21.5171   41.9651  -10.0949 H         1 1NR402      0.0000 
     37 H          21.6893   43.6711  -10.5422 H         1 1NR402      0.0000 
     38 H          25.6189   44.1038  -11.8565 H         1 1NR402      0.0000 
     39 H          25.4333   42.3995  -11.4083 H         1 1NR402      0.0000 
     40 H          24.0536   44.7870  -10.1253 H         1 1NR402      0.0000 
     41 H          25.3055   43.7681   -9.3943 H         1 1NR402      0.0000 
     42 H          25.3267   42.4717   -5.6480 H         1 1NR402      0.0000 
     43 H          22.4860   38.6526   -5.9268 H         1 1NR402      0.0000 
     44 H          20.9580   37.5022   -5.9308 H         1 1NR402      0.0000 
     45 H          19.9051   36.3844   -6.8623 H         1 1NR402      0.0000 
     46 H          25.1196   48.5170  -15.2472 H         1 1NR402      0.0000 
     47 H          24.7632   47.6331  -16.5425 H         1 1NR402      0.0000 
     48 H          23.8534   48.9029  -16.1605 H         1 1NR402      0.0000 
     49 H          23.6375   48.4630  -13.2059 H         1 1NR402      0.0000 
     50 H          22.3682   48.8496  -14.1145 H         1 1NR402      0.0000 
     51 H          22.3222   47.5378  -13.1854 H         1 1NR402      0.0000 
     52 H          22.6666   46.2310  -16.5847 H         1 1NR402      0.0000 
     53 H          21.7160   46.1563  -15.2897 H         1 1NR402      0.0000 
     54 H          21.7892   47.5089  -16.1565 H         1 1NR402      0.0000 
@<TRIPOS>BOND
     1    2    1 1    
     2   46    1 1    
     3   47    1 1    
     4   48    1 1    
     5    3    2 1    
     6    4    2 1    
     7    5    2 1    
     8   49    3 1    
     9   50    3 1    
    10   51    3 1    
    11   52    4 1    
    12   53    4 1    
    13   54    4 1    
    14    6    5 2    
    15    7    5 am   
    16    8    7 1    
    17   28    7 1    
    18    9    8 1    
    19   29    8 1    
    20   30    8 1    
    21   10    9 1    
    22   31    9 1    
    23   32    9 1    
    24   11   10 1    
    25   13   10 1    
    26   33   10 1    
    27   12   11 1    
    28   34   11 1    
    29   35   11 1    
    30   15   12 1    
    31   36   12 1    
    32   37   12 1    
    33   14   13 1    
    34   38   13 1    
    35   39   13 1    
    36   15   14 1    
    37   40   14 1    
    38   41   14 1    
    39   16   15 1    
    40   17   16 ar   
    41   22   16 ar   
    42   18   17 ar   
    43   19   18 ar   
    44   42   18 1    
    45   20   19 ar   
    46   21   20 1    
    47   22   20 ar   
    48   24   21 2    
    49   43   21 1    
    50   23   22 1    
    51   24   23 1    
    52   25   24 1    
    53   26   25 2    
    54   27   25 am   
    55   44   27 1    
    56   45   27 1    
@<TRIPOS>SUBSTRUCTURE
     1 1NR402      1 GROUP   
@<TRIPOS>SET

