#    Name: 4bjy_FAD_1_INTS_M
#    Modification time : Tue Mar 25 07:48:54 2014

@<TRIPOS>MOLECULE
4bjy_FAD_1_INTS_M
  102     0     9     0     0
SMALL
NO_CHARGES


@<TRIPOS>ATOM
      1 CA         18.5760   -2.3435    8.1210 C.3       3 GLC5        0.0000 
      2 CA         18.3730   -0.9090    9.5820 C.3       9 GLL5        0.0000 
      3 CA         18.7790   -3.7780    6.6600 C.3       6 GLP5        0.0000 
      4 CA         19.3145   -2.6385    9.8745 C.3       3 GLC5        0.0000 
      5 CA         20.2560   -4.3680   10.1670 C.3       6 GLP5        0.0000 
      6 CA         17.3640    0.2365    6.9380 C.3       3 GLC5        0.0000 
      7 CA         17.1730   -0.1300    8.9940 C.3       9 GLL5        0.0000 
      8 CA         17.5550    0.6030    4.8820 C.3       6 GLP5        0.0000 
      9 O          15.2700    1.9915    8.7535 O.2       1 ALC1        0.0000 
     10 O          15.6380    1.4940    9.9980 O.2       7 ALL1        0.0000 
     11 O          14.9020    2.4890    7.5090 O.2       4 ALP1        0.0000 
     12 N          13.0550   -1.8230   10.0435 N.am      2 SEC2        0.0000 
     13 N          13.5490   -0.2710    9.4870 N.am      8 SEL2        0.0000 
     14 N          12.5610   -3.3750   10.6000 N.am      5 SEP2        0.0000 
     15 O          13.2310    0.8470    8.8785 O.2       1 ALC1        0.0000 
     16 O          13.5490   -0.2710    9.4870 O.2       7 ALL1        0.0000 
     17 O          12.9130    1.9650    8.2700 O.2       4 ALP1        0.0000 
     18 CA         16.4005   -0.0960    6.3675 C.3       3 GLC5        0.0000 
     19 CA         15.2460   -0.7950    7.8530 C.3       9 GLL5        0.0000 
     20 CA         12.2750   -3.9915    3.4500 C.3       3 GLC5        0.0000 
     21 CA         14.0560   -3.5270    3.9990 C.3       9 GLL5        0.0000 
     22 CA         10.4940   -4.4560    2.9010 C.3       6 GLP5        0.0000 
     23 O          13.6355   -5.2545    2.1740 O.2       1 ALC1        0.0000 
     24 O          13.9580   -4.7490    3.4840 O.2       7 ALL1        0.0000 
     25 O          13.3130   -5.7600    0.8640 O.2       4 ALP1        0.0000 
     26 N          13.1545   -2.6825    1.9075 N.am      2 SEC2        0.0000 
     27 N          13.8410   -2.4280    3.2170 N.am      8 SEL2        0.0000 
     28 N          12.4680   -2.9370    0.5980 N.am      5 SEP2        0.0000 
     29 CA         15.7870   -0.2815    4.2695 C.3       3 GLC5        0.0000 
     30 CA         14.0190   -1.1660    3.6570 C.3       9 GLL5        0.0000 
     31 CA         13.6950    0.8195    4.0520 C.3       3 GLC5        0.0000 
     32 CA         13.3710    2.8050    4.4470 C.3       6 GLP5        0.0000 
     33 CA         12.5165   -1.0795    4.9505 C.3       3 GLC5        0.0000 
     34 CA         11.0140   -0.9930    6.2440 C.3       6 GLP5        0.0000 
     35 CA         12.2710   -1.6590    2.7500 C.3       3 GLC5        0.0000 
     36 CA         10.5230   -2.1520    1.8430 C.3       6 GLP5        0.0000 
     37 N          13.1090    0.0780    5.1230 N.am      2 SEC2        0.0000 
     38 N          14.3020   -0.8780    4.9400 N.am      8 SEL2        0.0000 
     39 N          11.9160    1.0340    5.3060 N.am      5 SEP2        0.0000 
     40 CA         16.0475   -0.6530    5.3340 C.3       3 GLC5        0.0000 
     41 CA         14.5400   -1.9090    5.7860 C.3       9 GLL5        0.0000 
     42 N          26.9660    1.7380   16.9495 N.am      2 SEC2        0.0000 
     43 N          26.6940    1.8400   18.4110 N.am      8 SEL2        0.0000 
     44 N          27.2380    1.6360   15.4880 N.am      5 SEP2        0.0000 
     45 N          28.7660    3.3855   16.2725 N.am      2 SEC2        0.0000 
     46 N          28.3240    3.2910   17.7170 N.am      8 SEL2        0.0000 
     47 N          29.2080    3.4800   14.8280 N.am      5 SEP2        0.0000 
     48 O          28.2835    4.7775   20.0485 O.2       1 ALC1        0.0000 
     49 O          27.6110    3.5200   19.8500 O.2       7 ALL1        0.0000 
     50 O          28.9560    6.0350   20.2470 O.2       4 ALP1        0.0000 
     51 N          27.0335    5.1485   22.1275 N.am      2 SEC2        0.0000 
     52 N          26.9430    3.7600   22.0180 N.am      8 SEL2        0.0000 
     53 N          27.1240    6.5370   22.2370 N.am      5 SEP2        0.0000 
     54 CA         21.2295   -2.4930   25.1150 C.3       3 GLC5        0.0000 
     55 CA         21.7400   -1.3230   23.6360 C.3       9 GLL5        0.0000 
     56 CA         20.7190   -3.6630   26.5940 C.3       6 GLP5        0.0000 
     57 CA         25.0980    2.1465   16.1060 C.3       3 GLC5        0.0000 
     58 CA         24.1520    0.5130   16.8540 C.3       9 GLL5        0.0000 
     59 CA         26.0440    3.7800   15.3580 C.3       6 GLP5        0.0000 
     60 N          22.5240    1.8065   18.3380 N.am      2 SEC2        0.0000 
     61 N          22.8600    0.6840   17.4750 N.am      8 SEL2        0.0000 
     62 N          22.1880    2.9290   19.2010 N.am      5 SEP2        0.0000 
     63 N          21.9095    1.7225   17.3690 N.am      2 SEC2        0.0000 
     64 N          20.9590    2.7610   17.2630 N.am      5 SEP2        0.0000 
     65 O          25.2205   -2.0525   14.4395 O.2       1 ALC1        0.0000 
     66 O          25.2670   -0.9410   15.2650 O.2       7 ALL1        0.0000 
     67 O          25.1740   -3.1640   13.6140 O.2       4 ALP1        0.0000 
     68 O          24.1760   -2.1660   14.7885 O.2       1 ALC1        0.0000 
     69 O          23.0850   -3.3910   14.3120 O.2       4 ALP1        0.0000 
     70 N          21.7070    2.0200   16.0290 N.am      2 SEC2        0.0000 
     71 N          22.4550    1.2790   14.7950 N.am      8 SEL2        0.0000 
     72 CA         23.4770   -2.1245   12.6280 C.3       3 GLC5        0.0000 
     73 CA         23.3660   -0.2030   13.1720 C.3       9 GLL5        0.0000 
     74 CA         23.5880   -4.0460   12.0840 C.3       6 GLP5        0.0000 
     75 N          22.5675    2.4905    9.7855 N.am      2 SEC2        0.0000 
     76 N          21.8820    1.2620    9.9660 N.am      8 SEL2        0.0000 
     77 N          23.2530    3.7190    9.6050 N.am      5 SEP2        0.0000 
     78 N          24.2670   -1.9330   10.2475 N.am      2 SEC2        0.0000 
     79 N          23.4410   -0.8020   10.1290 N.am      8 SEL2        0.0000 
     80 N          25.0930   -3.0640   10.3660 N.am      5 SEP2        0.0000 
     81 N          23.1130   -1.7310    9.1260 N.am      2 SEC2        0.0000 
     82 N          22.7850   -2.6600    8.1230 N.am      5 SEP2        0.0000 
     83 CA         18.4310    1.4838    9.6230 C.3       3 GLC5        0.0000 
     84 CA         19.0890    3.4870    9.9580 C.3       6 GLP5        0.0000 
     85 CA         12.7385   -1.7960    5.9190 C.3       3 GLC5        0.0000 
     86 CA         16.1212   -3.6572    5.5161 C.3       3 GLC5        0.0000 
     87 CA         14.3860   -3.2890    5.4020 C.3       9 GLL5        0.0000 
     88 CA         17.8620   -4.6560    5.7890 C.3       6 GLP5        0.0000 
     89 CA         25.3212   -1.1085   21.6848 C.3       3 GLC5        0.0000 
     90 CA         24.2210   -0.1110   20.2540 C.3       9 GLL5        0.0000 
     91 CA         26.3880   -2.4490   22.4610 C.3       6 GLP5        0.0000 
     92 CA         24.1752   -1.6353   23.4920 C.3       3 GLC5        0.0000 
     93 CA         23.4740    0.1530   22.6230 C.3       9 GLL5        0.0000 
     94 CA         25.9600   -2.4240   23.8990 C.3       6 GLP5        0.0000 
     95 CA         24.6740   -1.9022   21.5315 C.3       3 GLC5        0.0000 
     96 CA         22.5490   -1.5820   21.1310 C.3       9 GLL5        0.0000 
     97 CA         26.2761   -0.3020   16.2164 C.3       3 GLC5        0.0000 
     98 CA         24.9870   -0.2950   17.8810 C.3       9 GLL5        0.0000 
     99 CA         28.2610   -0.5220   15.9570 C.3       6 GLP5        0.0000 
    100 CA         25.3642    1.4623   14.7875 C.3       3 GLC5        0.0000 
    101 CA         24.0130   -0.2730   15.5840 C.3       9 GLL5        0.0000 
    102 CA         26.8920    2.7660   14.5880 C.3       6 GLP5        0.0000 
@<TRIPOS>BOND
@<TRIPOS>SUBSTRUCTURE
     1 ALC1        9 GROUP        1 X    ALC  0     ROOT ALC X 1
     2 SEC2       12 GROUP        1 X    SEC  0     **** SEC X 2
     3 GLC5        1 GROUP        1 X    GLC  0     **** GLC X 6
     4 ALP1       11 GROUP        1 Y    ALP  0     ROOT ALP Y 8
     5 SEP2       14 GROUP        1 Y    SEP  0     **** SEP Y 9
     6 GLP5        3 GROUP        1 Y    GLP  0     **** GLP Y 13
     7 ALL1       10 GROUP        1 Z    ALL  0     ROOT ALL Z 15
     8 SEL2       13 GROUP        1 Z    SEL  0     **** SEL Z 16
     9 GLL5        2 GROUP        1 Z    GLL  0     **** GLL Z 20
@<TRIPOS>SET

