#    Name: 4bjy_FAD_1_ligand
#    Modification time : Tue Mar 25 07:48:54 2014

@<TRIPOS>MOLECULE
4bjy_FAD_1_ligand
   84    89     1     0     0
SMALL
NO_CHARGES


@<TRIPOS>ATOM
      1 PA         19.7290   -0.5630   11.7880 P.3       1 FAD500      0.0000 
      2 O1A        19.8480    0.5350   12.7500 O.co2     1 FAD500      0.0000 
      3 O2A        19.1320   -1.8560   12.2300 O.co2     1 FAD500      0.0000 
      4 O5B        18.8910    0.0150   10.5480 O.3       1 FAD500      0.0000 
      5 C5B        18.3730   -0.9090    9.5820 C.3       1 FAD500      0.0000 
      6 C4B        17.1730   -0.1300    8.9940 C.3       1 FAD500      0.0000 
      7 O4B        16.7550   -0.9050    7.8330 O.3       1 FAD500      0.0000 
      8 C3B        15.9980    0.0710    9.9580 C.3       1 FAD500      0.0000 
      9 O3B        15.6380    1.4940    9.9980 O.3       1 FAD500      0.0000 
     10 C2B        14.9010   -0.8310    9.3000 C.3       1 FAD500      0.0000 
     11 O2B        13.5490   -0.2710    9.4870 O.3       1 FAD500      0.0000 
     12 C1B        15.2460   -0.7950    7.8530 C.3       1 FAD500      0.0000 
     13 N9A        14.8210   -1.9460    7.0810 N.pl3     1 FAD500      0.0000 
     14 C8A        14.8940   -3.2930    7.4250 C.2       1 FAD500      0.0000 
     15 N7A        14.6310   -4.1580    6.4350 N.2       1 FAD500      0.0000 
     16 C5A        14.3860   -3.2890    5.4020 C.ar      1 FAD500      0.0000 
     17 C6A        14.0560   -3.5270    3.9990 C.ar      1 FAD500      0.0000 
     18 N6A        13.9580   -4.7490    3.4840 N.pl3     1 FAD500      0.0000 
     19 N1A        13.8410   -2.4280    3.2170 N.ar      1 FAD500      0.0000 
     20 C2A        14.0190   -1.1660    3.6570 C.ar      1 FAD500      0.0000 
     21 N3A        14.3020   -0.8780    4.9400 N.ar      1 FAD500      0.0000 
     22 C4A        14.5400   -1.9090    5.7860 C.ar      1 FAD500      0.0000 
     23 N1         26.6940    1.8400   18.4110 N.2       1 FAD500      0.0000 
     24 C2         27.5900    2.8480   18.6320 C.2       1 FAD500      0.0000 
     25 O2         28.3240    3.2910   17.7170 O.2       1 FAD500      0.0000 
     26 N3         27.6110    3.5200   19.8500 N.am      1 FAD500      0.0000 
     27 C4         26.8630    3.1400   20.9140 C.2       1 FAD500      0.0000 
     28 O4         26.9430    3.7600   22.0180 O.2       1 FAD500      0.0000 
     29 C4X        25.9300    2.0480   20.7540 C.2       1 FAD500      0.0000 
     30 N5         25.1470    1.6080   21.7750 N.2       1 FAD500      0.0000 
     31 C5X        24.2880    0.5750   21.5630 C.ar      1 FAD500      0.0000 
     32 C6         23.4740    0.1530   22.6230 C.ar      1 FAD500      0.0000 
     33 C7         22.6080   -0.8930   22.4450 C.ar      1 FAD500      0.0000 
     34 C7M        21.7400   -1.3230   23.6360 C.3       1 FAD500      0.0000 
     35 C8         22.5490   -1.5820   21.1310 C.ar      1 FAD500      0.0000 
     36 C8M        21.5800   -2.7530   20.8820 C.3       1 FAD500      0.0000 
     37 C9         23.3710   -1.1290   20.0730 C.ar      1 FAD500      0.0000 
     38 C9A        24.2210   -0.1110   20.2540 C.ar      1 FAD500      0.0000 
     39 N10        25.0560    0.3850   19.2060 N.pl3     1 FAD500      0.0000 
     40 C10        25.9130    1.3840   19.4190 C.2       1 FAD500      0.0000 
     41 C1'        24.9870   -0.2950   17.8810 C.3       1 FAD500      0.0000 
     42 C2'        24.1520    0.5130   16.8540 C.3       1 FAD500      0.0000 
     43 O2'        22.8600    0.6840   17.4750 O.3       1 FAD500      0.0000 
     44 C3'        24.0130   -0.2730   15.5840 C.3       1 FAD500      0.0000 
     45 O3'        25.2670   -0.9410   15.2650 O.3       1 FAD500      0.0000 
     46 C4'        23.6600    0.5900   14.3900 C.3       1 FAD500      0.0000 
     47 O4'        22.4550    1.2790   14.7950 O.3       1 FAD500      0.0000 
     48 C5'        23.3660   -0.2030   13.1720 C.3       1 FAD500      0.0000 
     49 O5'        22.9050    0.6850   12.1300 O.3       1 FAD500      0.0000 
     50 P          22.3920    0.0840   10.7490 P.3       1 FAD500      0.0000 
     51 O1P        21.8820    1.2620    9.9660 O.co2     1 FAD500      0.0000 
     52 O2P        23.4410   -0.8020   10.1290 O.co2     1 FAD500      0.0000 
     53 O3P        21.1510   -0.8660   11.0950 O.3       1 FAD500      0.0000 
     54 H          17.9989   -1.8000   10.0276 H         1 FAD500      0.0000 
     55 H          19.0584   -1.1012    8.7910 H         1 FAD500      0.0000 
     56 H          17.5390    0.8331    8.6639 H         1 FAD500      0.0000 
     57 H          16.2544   -0.3375   10.8841 H         1 FAD500      0.0000 
     58 H          15.0017   -1.8025    9.6732 H         1 FAD500      0.0000 
     59 H          14.9855    0.1161    7.4104 H         1 FAD500      0.0000 
     60 H          15.1307   -3.5729    8.3623 H         1 FAD500      0.0000 
     61 H          13.6753   -4.8015    2.5262 H         1 FAD500      0.0000 
     62 H          14.1758   -5.5053    4.1009 H         1 FAD500      0.0000 
     63 H          13.9320   -0.3689    2.9621 H         1 FAD500      0.0000 
     64 H          28.2422    4.3608   19.9337 H         1 FAD500      0.0000 
     65 H          23.5376    0.6381   23.5289 H         1 FAD500      0.0000 
     66 H          23.2894   -1.6138   19.1578 H         1 FAD500      0.0000 
     67 H          24.5302   -1.2858   17.9840 H         1 FAD500      0.0000 
     68 H          25.9933   -0.4294   17.4682 H         1 FAD500      0.0000 
     69 H          24.6332    1.4325   16.6865 H         1 FAD500      0.0000 
     70 H          23.2336   -1.0173   15.7032 H         1 FAD500      0.0000 
     71 H          24.4419    1.2867   14.2208 H         1 FAD500      0.0000 
     72 H          22.6036   -0.9544   13.4068 H         1 FAD500      0.0000 
     73 H          24.2736   -0.7311   12.8583 H         1 FAD500      0.0000 
     74 H          22.2958   -1.6060   24.4176 H         1 FAD500      0.0000 
     75 H          21.1476   -0.5814   23.9508 H         1 FAD500      0.0000 
     76 H          21.1466   -2.0937   23.4040 H         1 FAD500      0.0000 
     77 H          21.6603   -3.1100   19.9514 H         1 FAD500      0.0000 
     78 H          21.7522   -3.5163   21.5046 H         1 FAD500      0.0000 
     79 H          20.6266   -2.4797   21.0099 H         1 FAD500      0.0000 
     80 H          15.5746    1.7718    9.0395 H         1 FAD500      0.0000 
     81 H          13.5433    0.5748    8.9536 H         1 FAD500      0.0000 
     82 H          22.6029   -0.2286   17.7927 H         1 FAD500      0.0000 
     83 H          25.0073   -1.7195   14.6936 H         1 FAD500      0.0000 
     84 H          22.3972    1.1397   15.7836 H         1 FAD500      0.0000 
@<TRIPOS>BOND
     1    2    1 ar   
     2    3    1 ar   
     3    4    1 1    
     4   53    1 1    
     5    5    4 1    
     6    6    5 1    
     7   54    5 1    
     8   55    5 1    
     9    7    6 1    
    10    8    6 1    
    11   56    6 1    
    12   12    7 1    
    13    9    8 1    
    14   10    8 1    
    15   57    8 1    
    16   80    9 1    
    17   11   10 1    
    18   12   10 1    
    19   58   10 1    
    20   81   11 1    
    21   13   12 1    
    22   59   12 1    
    23   14   13 1    
    24   22   13 1    
    25   15   14 2    
    26   60   14 1    
    27   16   15 1    
    28   17   16 ar   
    29   22   16 ar   
    30   18   17 1    
    31   19   17 ar   
    32   61   18 1    
    33   62   18 1    
    34   20   19 ar   
    35   21   20 ar   
    36   63   20 1    
    37   22   21 ar   
    38   24   23 1    
    39   40   23 2    
    40   25   24 2    
    41   26   24 am   
    42   27   26 am   
    43   64   26 1    
    44   28   27 2    
    45   29   27 1    
    46   30   29 2    
    47   40   29 1    
    48   31   30 1    
    49   32   31 ar   
    50   38   31 ar   
    51   33   32 ar   
    52   65   32 1    
    53   34   33 1    
    54   35   33 ar   
    55   74   34 1    
    56   75   34 1    
    57   76   34 1    
    58   36   35 1    
    59   37   35 ar   
    60   77   36 1    
    61   78   36 1    
    62   79   36 1    
    63   38   37 ar   
    64   66   37 1    
    65   39   38 1    
    66   40   39 1    
    67   41   39 1    
    68   42   41 1    
    69   67   41 1    
    70   68   41 1    
    71   43   42 1    
    72   44   42 1    
    73   69   42 1    
    74   82   43 1    
    75   45   44 1    
    76   46   44 1    
    77   70   44 1    
    78   83   45 1    
    79   47   46 1    
    80   48   46 1    
    81   71   46 1    
    82   84   47 1    
    83   49   48 1    
    84   72   48 1    
    85   73   48 1    
    86   50   49 1    
    87   51   50 ar   
    88   52   50 ar   
    89   53   50 1    
@<TRIPOS>SUBSTRUCTURE
     1 FAD500      1 GROUP   
@<TRIPOS>SET

