#    Name: 2hms_NAI_2_INTS_M
#    Modification time : Tue Mar 25 16:48:57 2014

@<TRIPOS>MOLECULE
2hms_NAI_2_INTS_M
   72     0    12     0     0
SMALL
NO_CHARGES


@<TRIPOS>ATOM
      1 N         154.4550   34.2495   14.5420 N.am      2 SEC2        0.0000 
      2 N         153.9040   35.2170   15.6520 N.am     10 SEL2        0.0000 
      3 N         155.0060   33.2820   13.4320 N.am      6 SEP2        0.0000 
      4 CA        154.0040   32.5305   16.4330 C.3       4 GLC5        0.0000 
      5 CA        153.8200   33.7270   18.2760 C.3      12 GLL5        0.0000 
      6 CA        154.1880   31.3340   14.5900 C.3       8 GLP5        0.0000 
      7 CA        154.1295   32.3245   21.0180 C.3       4 GLC5        0.0000 
      8 CA        154.0710   33.8950   19.7460 C.3      12 GLL5        0.0000 
      9 CA        154.1880   30.7540   22.2900 C.3       8 GLP5        0.0000 
     10 O         153.8465   35.2030   22.5945 O.2       1 ALC1        0.0000 
     11 O         153.3670   35.6850   21.2990 O.2       9 ALL1        0.0000 
     12 O         154.3260   34.7210   23.8900 O.2       5 ALP1        0.0000 
     13 O         155.1535   35.5265   22.7845 O.2       1 ALC1        0.0000 
     14 O         155.9810   36.3320   21.6790 O.2       9 ALL1        0.0000 
     15 O         156.1720   35.9110   22.9020 O.2       1 ALC1        0.0000 
     16 O         156.3630   35.4900   24.1250 O.2       5 ALP1        0.0000 
     17 CA        155.1545   32.3795   21.5880 C.3       4 GLC5        0.0000 
     18 CA        156.1210   34.0050   20.8860 C.3      12 GLL5        0.0000 
     19 CA        156.7910   31.9905   20.1910 C.3       4 GLC5        0.0000 
     20 CA        157.4610   29.9760   19.4960 C.3       8 GLP5        0.0000 
     21 CA        159.8165   34.7815   21.1710 C.3       4 GLC5        0.0000 
     22 CA        159.6190   32.9860   20.7590 C.3      12 GLL5        0.0000 
     23 CA        160.0140   36.5770   21.5830 C.3       8 GLP5        0.0000 
     24 CA        161.0650   33.6010   22.6155 C.3       4 GLC5        0.0000 
     25 CA        160.7120   32.3380   21.4480 C.3      12 GLL5        0.0000 
     26 CA        161.4180   34.8640   23.7830 C.3       8 GLP5        0.0000 
     27 CA        162.0050   32.2320   23.2765 C.3       4 GLC5        0.0000 
     28 CA        163.2980   32.1260   25.1050 C.3       8 GLP5        0.0000 
     29 CA        160.9735   30.2900   22.2780 C.3       4 GLC5        0.0000 
     30 CA        161.2350   28.2420   23.1080 C.3       8 GLP5        0.0000 
     31 O         163.2140   32.0675   21.7120 O.2       1 ALC1        0.0000 
     32 O         161.9280   32.1910   20.9180 O.2       9 ALL1        0.0000 
     33 O         164.5000   31.9440   22.5060 O.2       5 ALP1        0.0000 
     34 N         161.4585   30.9585   23.4390 N.am      2 SEC2        0.0000 
     35 N         160.4470   31.8620   22.7230 N.am     10 SEL2        0.0000 
     36 N         162.4700   30.0550   24.1550 N.am      6 SEP2        0.0000 
     37 CA        158.5070   30.1495   23.4535 C.3       4 GLC5        0.0000 
     38 CA        159.1850   32.0190   23.2700 C.3      12 GLL5        0.0000 
     39 CA        157.8290   28.2800   23.6370 C.3       8 GLP5        0.0000 
     40 CA        158.0050   32.7210   24.6620 C.3       4 GLC5        0.0000 
     41 CA        156.8250   33.4230   26.0540 C.3       8 GLP5        0.0000 
     42 CA        160.3015   33.4415   23.5265 C.3       4 GLC5        0.0000 
     43 CA        160.2100   30.1305   23.1890 C.3       4 GLC5        0.0000 
     44 CA        159.0520   30.8295   21.4690 C.3       4 GLC5        0.0000 
     45 CA        158.9190   29.6400   19.6680 C.3       8 GLP5        0.0000 
     46 N         158.3730   33.7335   23.9815 N.am      2 SEC2        0.0000 
     47 N         158.1310   32.5970   22.7110 N.am     10 SEL2        0.0000 
     48 N         158.6150   34.8700   25.2520 N.am      6 SEP2        0.0000 
     49 CA        158.9105   34.6170   22.1820 C.3       4 GLC5        0.0000 
     50 CA        158.3960   33.0620   21.4520 C.3      12 GLL5        0.0000 
     51 CA        159.4250   36.1720   22.9120 C.3       8 GLP5        0.0000 
     52 CA        157.9285   31.5190   20.4740 C.3       4 GLC5        0.0000 
     53 N         148.4525   34.4980   18.1260 N.am      2 SEC2        0.0000 
     54 N         149.2270   35.0730   16.9720 N.am     10 SEL2        0.0000 
     55 N         147.6780   33.9230   19.2800 N.am      6 SEP2        0.0000 
     56 NZ        150.4170   31.9220   15.2855 N.4       3 LYC4        0.0000 
     57 NZ        150.8320   33.2030   16.6410 N.4      11 LYL4        0.0000 
     58 NZ        150.0020   30.6410   13.9300 N.4       7 LYP4        0.0000 
     59 N         147.9580   35.6925   12.7920 N.am      2 SEC2        0.0000 
     60 N         149.5120   35.9330   12.4500 N.am     10 SEL2        0.0000 
     61 N         146.4040   35.4520   13.1340 N.am      6 SEP2        0.0000 
     62 CA        149.1650   38.5740    9.3980 C.3       4 GLC5        0.0000 
     63 CA        148.8650   39.0220   11.1680 C.3      12 GLL5        0.0000 
     64 CA        149.4650   38.1260    7.6280 C.3       8 GLP5        0.0000 
     65 CA        151.9038   33.9475   19.6965 C.3       4 GLC5        0.0000 
     66 CA        149.8620   34.0840   20.3820 C.3       8 GLP5        0.0000 
     67 CA        154.7183   31.9700   18.4785 C.3       4 GLC5        0.0000 
     68 CA        155.4910   30.1290   17.9460 C.3       8 GLP5        0.0000 
     69 CA        157.6800   35.4465   21.8180 C.3       4 GLC5        0.0000 
     70 CA        159.5422   31.1510   20.3858 C.3       4 GLC5        0.0000 
     71 CA        150.0135   37.3047    9.3803 C.3       4 GLC5        0.0000 
     72 CA        151.2450   36.2280   10.9060 C.3      12 GLL5        0.0000 
@<TRIPOS>BOND
@<TRIPOS>SUBSTRUCTURE
     1 ALC1       10 GROUP        1 X    ALC  0     ROOT ALC X 1
     2 SEC2        1 GROUP        1 X    SEC  0     **** SEC X 2
     3 LYC4       56 GROUP        1 X    LYC  0     **** LYC X 4
     4 GLC5        4 GROUP        1 X    GLC  0     **** GLC X 6
     5 ALP1       12 GROUP        1 Y    ALP  0     ROOT ALP Y 8
     6 SEP2        3 GROUP        1 Y    SEP  0     **** SEP Y 9
     7 LYP4       58 GROUP        1 Y    LYP  0     **** LYP Y 11
     8 GLP5        6 GROUP        1 Y    GLP  0     **** GLP Y 13
     9 ALL1       11 GROUP        1 Z    ALL  0     ROOT ALL Z 15
    10 SEL2        2 GROUP        1 Z    SEL  0     **** SEL Z 16
    11 LYL4       57 GROUP        1 Z    LYL  0     **** LYL Z 18
    12 GLL5        5 GROUP        1 Z    GLL  0     **** GLL Z 20
@<TRIPOS>SET

