#    Name: 2hms_NAI_2_ligand
#    Modification time : Tue Mar 25 16:48:57 2014

@<TRIPOS>MOLECULE
2hms_NAI_2_ligand
   71    75     1     0     0
SMALL
NO_CHARGES


@<TRIPOS>ATOM
      1 PA        152.8870   35.6170   16.6290 P.3       1 NAI602      0.0000 
      2 O1A       153.9040   35.2170   15.6520 O.co2     1 NAI602      0.0000 
      3 O2A       153.1630   36.9430   17.2190 O.co2     1 NAI602      0.0000 
      4 O5B       152.7540   34.6360   17.8840 O.3       1 NAI602      0.0000 
      5 C5B       153.8200   33.7270   18.2760 C.3       1 NAI602      0.0000 
      6 C4B       154.0710   33.8950   19.7460 C.3       1 NAI602      0.0000 
      7 O4B       155.3350   33.2360   20.0210 O.3       1 NAI602      0.0000 
      8 C3B       154.2550   35.3530   20.2160 C.3       1 NAI602      0.0000 
      9 O3B       153.3670   35.6850   21.2990 O.3       1 NAI602      0.0000 
     10 C2B       155.7490   35.4370   20.5620 C.3       1 NAI602      0.0000 
     11 O2B       155.9810   36.3320   21.6790 O.3       1 NAI602      0.0000 
     12 C1B       156.1210   34.0050   20.8860 C.3       1 NAI602      0.0000 
     13 N9A       157.5240   33.7110   20.5880 N.pl3     1 NAI602      0.0000 
     14 C8A       158.2450   33.9870   19.4430 C.2       1 NAI602      0.0000 
     15 N7A       159.5330   33.5670   19.4910 N.2       1 NAI602      0.0000 
     16 C5A       159.6190   32.9860   20.7590 C.ar      1 NAI602      0.0000 
     17 C6A       160.7120   32.3380   21.4480 C.ar      1 NAI602      0.0000 
     18 N6A       161.9280   32.1910   20.9180 N.pl3     1 NAI602      0.0000 
     19 N1A       160.4470   31.8620   22.7230 N.ar      1 NAI602      0.0000 
     20 C2A       159.1850   32.0190   23.2700 C.ar      1 NAI602      0.0000 
     21 N3A       158.1310   32.5970   22.7110 N.ar      1 NAI602      0.0000 
     22 C4A       158.3960   33.0620   21.4520 C.ar      1 NAI602      0.0000 
     23 O3        151.4740   35.5230   15.9950 O.3       1 NAI602      0.0000 
     24 PN        150.2760   34.4590   16.1030 P.3       1 NAI602      0.0000 
     25 O1N       149.2270   35.0730   16.9720 O.co2     1 NAI602      0.0000 
     26 O2N       150.8320   33.2030   16.6410 O.co2     1 NAI602      0.0000 
     27 O5D       149.7210   34.3590   14.6050 O.3       1 NAI602      0.0000 
     28 C5D       150.6490   34.0720   13.5260 C.3       1 NAI602      0.0000 
     29 C4D       150.0670   34.5960   12.2270 C.3       1 NAI602      0.0000 
     30 O4D       149.5120   35.9330   12.4500 O.3       1 NAI602      0.0000 
     31 C3D       151.0910   34.6970   11.0900 C.3       1 NAI602      0.0000 
     32 O3D       150.7140   33.9880    9.8920 O.3       1 NAI602      0.0000 
     33 C2D       151.2450   36.2280   10.9060 C.3       1 NAI602      0.0000 
     34 O2D       151.6080   36.5520    9.5390 O.3       1 NAI602      0.0000 
     35 C1D       149.8790   36.7390   11.3590 C.3       1 NAI602      0.0000 
     36 N1N       149.8350   38.1790   11.7850 N.pl3     1 NAI602      0.0000 
     37 C2N       150.7640   38.5550   12.7640 C.2       1 NAI602      0.0000 
     38 C3N       150.7360   39.8870   13.1740 C.2       1 NAI602      0.0000 
     39 C7N       151.6980   40.4210   14.2350 C.2       1 NAI602      0.0000 
     40 O7N       151.6280   41.6000   14.5580 O.2       1 NAI602      0.0000 
     41 N7N       152.5970   39.5950   14.7920 N.am      1 NAI602      0.0000 
     42 C4N       149.7840   40.8430   12.6110 C.3       1 NAI602      0.0000 
     43 C5N       148.8970   40.3210   11.6230 C.2       1 NAI602      0.0000 
     44 C6N       148.8650   39.0220   11.1680 C.2       1 NAI602      0.0000 
     45 H         154.7384   33.9487   17.7319 H         1 NAI602      0.0000 
     46 H         153.5387   32.6920   18.0804 H         1 NAI602      0.0000 
     47 H         153.2975   33.4390   20.3161 H         1 NAI602      0.0000 
     48 H         154.0957   35.9748   19.3406 H         1 NAI602      0.0000 
     49 H         156.2688   35.7306   19.6783 H         1 NAI602      0.0000 
     50 H         155.8886   33.8091   21.9009 H         1 NAI602      0.0000 
     51 H         157.8438   34.4523   18.6613 H         1 NAI602      0.0000 
     52 H         162.6169   31.7691   21.5075 H         1 NAI602      0.0000 
     53 H         162.0410   32.5160   19.9790 H         1 NAI602      0.0000 
     54 H         159.0665   31.6134   24.2769 H         1 NAI602      0.0000 
     55 H         150.8130   32.9988   13.4236 H         1 NAI602      0.0000 
     56 H         151.6107   34.5576   13.6950 H         1 NAI602      0.0000 
     57 H         149.2708   33.9328   11.9043 H         1 NAI602      0.0000 
     58 H         152.0400   34.3489   11.5014 H         1 NAI602      0.0000 
     59 H         151.9739   36.5452   11.6258 H         1 NAI602      0.0000 
     60 H         149.1803   36.5858   10.5390 H         1 NAI602      0.0000 
     61 H         151.4150   37.8964   13.1484 H         1 NAI602      0.0000 
     62 H         152.5529   38.6383   14.5044 H         1 NAI602      0.0000 
     63 H         153.2306   40.0100   15.4449 H         1 NAI602      0.0000 
     64 H         150.3596   41.7162   12.1885 H         1 NAI602      0.0000 
     65 H         149.1927   41.3005   13.4556 H         1 NAI602      0.0000 
     66 H         148.2006   41.0175   11.2097 H         1 NAI602      0.0000 
     67 H         148.2457   38.6850   10.4873 H         1 NAI602      0.0000 
     68 H         153.8029   35.3074   22.1160 H         1 NAI602      0.0000 
     69 H         156.1176   35.7320   22.4672 H         1 NAI602      0.0000 
     70 H         151.3669   33.2339    9.8214 H         1 NAI602      0.0000 
     71 H         151.4388   35.7136    9.0208 H         1 NAI602      0.0000 
@<TRIPOS>BOND
     1    2    1 ar   
     2    3    1 ar   
     3    4    1 1    
     4   23    1 1    
     5    5    4 1    
     6    6    5 1    
     7   45    5 1    
     8   46    5 1    
     9    7    6 1    
    10    8    6 1    
    11   47    6 1    
    12   12    7 1    
    13    9    8 1    
    14   10    8 1    
    15   48    8 1    
    16   68    9 1    
    17   11   10 1    
    18   12   10 1    
    19   49   10 1    
    20   69   11 1    
    21   13   12 1    
    22   50   12 1    
    23   14   13 1    
    24   22   13 1    
    25   15   14 2    
    26   51   14 1    
    27   16   15 1    
    28   17   16 ar   
    29   22   16 ar   
    30   18   17 1    
    31   19   17 ar   
    32   52   18 1    
    33   53   18 1    
    34   20   19 ar   
    35   21   20 ar   
    36   54   20 1    
    37   22   21 ar   
    38   24   23 1    
    39   25   24 ar   
    40   26   24 ar   
    41   27   24 1    
    42   28   27 1    
    43   29   28 1    
    44   55   28 1    
    45   56   28 1    
    46   30   29 1    
    47   31   29 1    
    48   57   29 1    
    49   35   30 1    
    50   32   31 1    
    51   33   31 1    
    52   58   31 1    
    53   70   32 1    
    54   34   33 1    
    55   35   33 1    
    56   59   33 1    
    57   71   34 1    
    58   36   35 1    
    59   60   35 1    
    60   37   36 1    
    61   44   36 1    
    62   38   37 2    
    63   61   37 1    
    64   39   38 1    
    65   42   38 1    
    66   40   39 2    
    67   41   39 am   
    68   62   41 1    
    69   63   41 1    
    70   43   42 1    
    71   64   42 1    
    72   65   42 1    
    73   44   43 2    
    74   66   43 1    
    75   67   44 1    
@<TRIPOS>SUBSTRUCTURE
     1 NAI602      1 GROUP   
@<TRIPOS>SET

