#    Name: 4fk8_FAD_1_INTS_M
#    Modification time : Mon Mar 24 20:12:30 2014

@<TRIPOS>MOLECULE
4fk8_FAD_1_INTS_M
   87     0    12     0     0
SMALL
NO_CHARGES


@<TRIPOS>ATOM
      1 N         -25.5145   -4.5235   27.7675 N.am      2 SEC2        0.0000 
      2 N         -25.5280   -3.0520   27.1570 N.am     10 SEL2        0.0000 
      3 N         -25.5010   -5.9950   28.3780 N.am      6 SEP2        0.0000 
      4 O         -27.3045    0.6015   22.7160 O.2       1 ALC1        0.0000 
      5 O         -26.8440    1.7640   23.3880 O.2       9 ALL1        0.0000 
      6 O         -27.7650   -0.5610   22.0440 O.2       5 ALP1        0.0000 
      7 O         -18.3765    0.6455   22.7550 O.2       1 ALC1        0.0000 
      8 O         -19.3560    0.5220   23.5990 O.2       9 ALL1        0.0000 
      9 O         -17.3970    0.7690   21.9110 O.2       5 ALP1        0.0000 
     10 CA        -22.5325    2.1990   26.4270 C.3       4 GLC5        0.0000 
     11 CA        -22.7380    2.0760   24.2360 C.3      12 GLL5        0.0000 
     12 CA        -22.3270    2.3220   28.6180 C.3       8 GLP5        0.0000 
     13 N         -16.6645   -0.6600   26.3100 N.am      2 SEC2        0.0000 
     14 N         -17.2180   -1.5340   25.2810 N.am     10 SEL2        0.0000 
     15 N         -16.1110    0.2140   27.3390 N.am      6 SEP2        0.0000 
     16 O         -15.1010   -2.9025   24.3810 O.2       1 ALC1        0.0000 
     17 O         -16.3390   -2.8680   23.7140 O.2       9 ALL1        0.0000 
     18 O         -13.8630   -2.9370   25.0480 O.2       5 ALP1        0.0000 
     19 N         -15.6490   -5.7550   21.5915 N.am      2 SEC2        0.0000 
     20 N         -15.5180   -4.2180   22.1180 N.am     10 SEL2        0.0000 
     21 N         -15.7800   -7.2920   21.0650 N.am      6 SEP2        0.0000 
     22 N         -16.9235   -6.0705   21.1140 N.am      2 SEC2        0.0000 
     23 N         -18.0670   -4.8490   21.1630 N.am     10 SEL2        0.0000 
     24 CA        -18.5360   -7.9590   19.2600 C.3       4 GLC5        0.0000 
     25 CA        -19.5130   -5.9830   19.6580 C.3      12 GLL5        0.0000 
     26 CA        -17.5590   -9.9350   18.8620 C.3       8 GLP5        0.0000 
     27 CA        -20.2025   -8.7215   17.5910 C.3       4 GLC5        0.0000 
     28 CA        -21.0250   -7.1920   18.0470 C.3      12 GLL5        0.0000 
     29 CA        -19.3800  -10.2510   17.1350 C.3       8 GLP5        0.0000 
     30 CA        -20.5825   -6.7005   16.2010 C.3       4 GLC5        0.0000 
     31 CA        -20.1400   -6.2090   14.3550 C.3       8 GLP5        0.0000 
     32 CA        -25.1060   -5.1850   19.7185 C.3       4 GLC5        0.0000 
     33 CA        -23.3700   -5.9780   19.4630 C.3      12 GLL5        0.0000 
     34 CA        -26.8420   -4.3920   19.9740 C.3       8 GLP5        0.0000 
     35 CA        -22.2210   -1.7310   22.3360 C.3       4 GLC5        0.0000 
     36 CA        -21.3670   -3.1010   23.3140 C.3      12 GLL5        0.0000 
     37 CA        -23.0750   -0.3610   21.3580 C.3       8 GLP5        0.0000 
     38 O         -20.9035   -6.1875   23.7925 O.2       1 ALC1        0.0000 
     39 O         -21.9270   -5.4360   24.0770 O.2       9 ALL1        0.0000 
     40 O         -19.8800   -6.9390   23.5080 O.2       5 ALP1        0.0000 
     41 CA        -19.6100   -4.0530   26.9260 C.3       4 GLC5        0.0000 
     42 CA        -21.4160   -2.7860   26.6230 C.3      12 GLL5        0.0000 
     43 CA        -17.8040   -5.3200   27.2290 C.3       8 GLP5        0.0000 
     44 NZ        -25.8425   -4.8350   30.1125 N.4       3 LYC4        0.0000 
     45 NZ        -24.5470   -3.8010   30.2250 N.4      11 LYL4        0.0000 
     46 NZ        -26.4030   -6.5920   29.1660 N.4       7 LYP4        0.0000 
     47 N         -25.0240   -4.8980   29.3015 N.am      2 SEC2        0.0000 
     48 N         -24.5470   -3.8010   30.2250 N.am     10 SEL2        0.0000 
     49 N         -25.8425   -4.8350   30.1125 N.am      2 SEC2        0.0000 
     50 N         -27.1380   -5.8690   30.0000 N.am      6 SEP2        0.0000 
     51 N         -24.1440   -4.1615   31.5535 N.am      2 SEC2        0.0000 
     52 N         -23.7410   -4.5220   32.8820 N.am      6 SEP2        0.0000 
     53 N         -22.0195   -2.5335   31.5680 N.am      2 SEC2        0.0000 
     54 N         -22.9030   -1.8110   30.6540 N.am     10 SEL2        0.0000 
     55 N         -21.1360   -3.2560   32.4820 N.am      6 SEP2        0.0000 
     56 N         -21.8535   -1.1850   30.9985 N.am      2 SEC2        0.0000 
     57 N         -20.8040   -0.5590   31.3430 N.am      6 SEP2        0.0000 
     58 CA        -25.3175    1.8653   28.8655 C.3       4 GLC5        0.0000 
     59 CA        -26.4350    0.6150   27.9330 C.3      12 GLL5        0.0000 
     60 CA        -24.1420    2.6040   30.3550 C.3       8 GLP5        0.0000 
     61 CA        -25.1007    1.6558   22.8507 C.3       4 GLC5        0.0000 
     62 CA        -25.1080    2.1640   25.0350 C.3      12 GLL5        0.0000 
     63 CA        -24.5760    1.6270   20.9430 C.3       8 GLP5        0.0000 
     64 CA        -20.0385    0.8797   25.5847 C.3       4 GLC5        0.0000 
     65 CA        -21.6920    1.0470   24.2220 C.3      12 GLL5        0.0000 
     66 CA        -19.0420    0.5270   27.2300 C.3       8 GLP5        0.0000 
     67 CA        -22.4808    0.6466   22.7229 C.3       4 GLC5        0.0000 
     68 CA        -20.3780    1.4180   23.6570 C.3      12 GLL5        0.0000 
     69 CA        -20.4952   -7.1820   20.9507 C.3       4 GLC5        0.0000 
     70 CA        -19.3180   -5.1290   20.7490 C.3      12 GLL5        0.0000 
     71 CA        -21.5750   -8.8080   21.6980 C.3       8 GLP5        0.0000 
     72 CA        -18.3197   -6.6805   21.5667 C.3       4 GLC5        0.0000 
     73 CA        -17.2240   -7.8050   22.9300 C.3       8 GLP5        0.0000 
     74 CA        -21.2432   -7.7692   20.1685 C.3       4 GLC5        0.0000 
     75 CA        -20.7980   -6.2690   19.2310 C.3      12 GLL5        0.0000 
     76 CA        -22.1200   -7.3157   20.6973 C.3       4 GLC5        0.0000 
     77 CA        -21.9600   -5.6690   19.9300 C.3      12 GLL5        0.0000 
     78 CA        -21.3530   -6.7410   21.4678 C.3       4 GLC5        0.0000 
     79 CA        -21.7760   -4.8200   21.0170 C.3      12 GLL5        0.0000 
     80 CA        -22.2345   -3.1656   20.6259 C.3       4 GLC5        0.0000 
     81 CA        -23.2920   -1.4450   20.2860 C.3       8 GLP5        0.0000 
     82 CA        -22.0375   -5.6530   26.0005 C.3       4 GLC5        0.0000 
     83 CA        -21.4590   -4.1350   24.4880 C.3      12 GLL5        0.0000 
     84 CA        -22.2220   -7.3710   26.8830 C.3       8 GLP5        0.0000 
     85 CA        -20.4415   -0.9567   27.1923 C.3       4 GLC5        0.0000 
     86 CA        -20.7270   -2.3537   28.6532 C.3       4 GLC5        0.0000 
     87 CA        -19.6130   -2.2670   30.1520 C.3       8 GLP5        0.0000 
@<TRIPOS>BOND
@<TRIPOS>SUBSTRUCTURE
     1 ALC1        4 GROUP        1 X    ALC  0     ROOT ALC X 1
     2 SEC2        1 GROUP        1 X    SEC  0     **** SEC X 2
     3 LYC4       44 GROUP        1 X    LYC  0     **** LYC X 4
     4 GLC5       10 GROUP        1 X    GLC  0     **** GLC X 6
     5 ALP1        6 GROUP        1 Y    ALP  0     ROOT ALP Y 8
     6 SEP2        3 GROUP        1 Y    SEP  0     **** SEP Y 9
     7 LYP4       46 GROUP        1 Y    LYP  0     **** LYP Y 11
     8 GLP5       12 GROUP        1 Y    GLP  0     **** GLP Y 13
     9 ALL1        5 GROUP        1 Z    ALL  0     ROOT ALL Z 15
    10 SEL2        2 GROUP        1 Z    SEL  0     **** SEL Z 16
    11 LYL4       45 GROUP        1 Z    LYL  0     **** LYL Z 18
    12 GLL5       11 GROUP        1 Z    GLL  0     **** GLL Z 20
@<TRIPOS>SET

