#    Name: 4fk8_FAD_1_ligand
#    Modification time : Mon Mar 24 20:12:30 2014

@<TRIPOS>MOLECULE
4fk8_FAD_1_ligand
   84    89     1     0     0
SMALL
NO_CHARGES


@<TRIPOS>ATOM
      1 PA        -26.0260   -1.9830   28.0820 P.3       1 FAD301      0.0000 
      2 O1A       -25.5280   -3.0520   27.1570 O.co2     1 FAD301      0.0000 
      3 O2A       -27.2000   -2.2930   28.9930 O.co2     1 FAD301      0.0000 
      4 O5B       -26.3240   -0.6510   27.2750 O.3       1 FAD301      0.0000 
      5 C5B       -26.4350    0.6150   27.9330 C.3       1 FAD301      0.0000 
      6 C4B       -26.5510    1.6380   26.8190 C.3       1 FAD301      0.0000 
      7 O4B       -25.2660    2.1680   26.4560 O.3       1 FAD301      0.0000 
      8 C3B       -27.0870    0.9070   25.6040 C.3       1 FAD301      0.0000 
      9 O3B       -28.3870    1.3550   25.2540 O.3       1 FAD301      0.0000 
     10 C2B       -26.1430    1.2050   24.4820 C.3       1 FAD301      0.0000 
     11 O2B       -26.8440    1.7640   23.3880 O.3       1 FAD301      0.0000 
     12 C1B       -25.1080    2.1640   25.0350 C.3       1 FAD301      0.0000 
     13 N9A       -23.8030    1.5130   24.7800 N.pl3     1 FAD301      0.0000 
     14 C8A       -23.5160    0.2340   25.0980 C.2       1 FAD301      0.0000 
     15 N7A       -22.2340   -0.0590   24.7630 N.2       1 FAD301      0.0000 
     16 C5A       -21.6920    1.0470   24.2220 C.ar      1 FAD301      0.0000 
     17 C6A       -20.3780    1.4180   23.6570 C.ar      1 FAD301      0.0000 
     18 N6A       -19.3560    0.5220   23.5990 N.pl3     1 FAD301      0.0000 
     19 N1A       -20.2350    2.6770   23.1900 N.ar      1 FAD301      0.0000 
     20 C2A       -21.2330    3.5810   23.2380 C.ar      1 FAD301      0.0000 
     21 N3A       -22.4640    3.3000   23.7370 N.ar      1 FAD301      0.0000 
     22 C4A       -22.7380    2.0760   24.2360 C.ar      1 FAD301      0.0000 
     23 N1        -18.6790   -2.5420   23.9670 N.2       1 FAD301      0.0000 
     24 C2        -17.4080   -2.3120   24.3350 C.2       1 FAD301      0.0000 
     25 O2        -17.2180   -1.5340   25.2810 O.2       1 FAD301      0.0000 
     26 N3        -16.3390   -2.8680   23.7140 N.am      1 FAD301      0.0000 
     27 C4        -16.4950   -3.7050   22.6830 C.2       1 FAD301      0.0000 
     28 O4        -15.5180   -4.2180   22.1180 O.2       1 FAD301      0.0000 
     29 C4X       -17.8550   -4.0240   22.2120 C.2       1 FAD301      0.0000 
     30 N5        -18.0670   -4.8490   21.1630 N.2       1 FAD301      0.0000 
     31 C5X       -19.3180   -5.1290   20.7490 C.ar      1 FAD301      0.0000 
     32 C6        -19.5130   -5.9830   19.6580 C.ar      1 FAD301      0.0000 
     33 C7        -20.7980   -6.2690   19.2310 C.ar      1 FAD301      0.0000 
     34 C7M       -21.0250   -7.1920   18.0470 C.3       1 FAD301      0.0000 
     35 C8        -21.9600   -5.6690   19.9300 C.ar      1 FAD301      0.0000 
     36 C8M       -23.3700   -5.9780   19.4630 C.3       1 FAD301      0.0000 
     37 C9        -21.7760   -4.8200   21.0170 C.ar      1 FAD301      0.0000 
     38 C9A       -20.4860   -4.5280   21.4580 C.ar      1 FAD301      0.0000 
     39 N10       -20.2680   -3.6580   22.5490 N.pl3     1 FAD301      0.0000 
     40 C10       -18.9580   -3.3870   22.9450 C.2       1 FAD301      0.0000 
     41 C1'       -21.3670   -3.1010   23.3140 C.3       1 FAD301      0.0000 
     42 C2'       -21.4590   -4.1350   24.4880 C.3       1 FAD301      0.0000 
     43 O2'       -21.9270   -5.4360   24.0770 O.3       1 FAD301      0.0000 
     44 C3'       -22.2470   -3.7350   25.7480 C.3       1 FAD301      0.0000 
     45 O3'       -23.5380   -3.1720   25.4220 O.3       1 FAD301      0.0000 
     46 C4'       -21.4160   -2.7860   26.6230 C.3       1 FAD301      0.0000 
     47 O4'       -20.4740   -3.6150   27.3020 O.3       1 FAD301      0.0000 
     48 C5'       -22.2660   -2.0950   27.6860 C.3       1 FAD301      0.0000 
     49 O5'       -22.9530   -3.1020   28.4630 O.3       1 FAD301      0.0000 
     50 P         -23.8160   -2.6070   29.7230 P.3       1 FAD301      0.0000 
     51 O1P       -24.5470   -3.8010   30.2250 O.co2     1 FAD301      0.0000 
     52 O2P       -22.9030   -1.8110   30.6540 O.co2     1 FAD301      0.0000 
     53 O3P       -24.7960   -1.5120   29.0430 O.3       1 FAD301      0.0000 
     54 H         -25.5575    0.8446   28.5179 H         1 FAD301      0.0000 
     55 H         -27.3212    0.6753   28.5461 H         1 FAD301      0.0000 
     56 H         -27.2398    2.3908   27.0927 H         1 FAD301      0.0000 
     57 H         -27.0558   -0.1461   25.8018 H         1 FAD301      0.0000 
     58 H         -25.6373    0.2888   24.2180 H         1 FAD301      0.0000 
     59 H         -25.1767    3.0784   24.5956 H         1 FAD301      0.0000 
     60 H         -24.1387   -0.3951   25.5106 H         1 FAD301      0.0000 
     61 H         -19.5559   -0.3962   23.9410 H         1 FAD301      0.0000 
     62 H         -18.4950    0.8606   23.2195 H         1 FAD301      0.0000 
     63 H         -21.0525    4.5605   22.8692 H         1 FAD301      0.0000 
     64 H         -15.3732   -2.6317   24.0552 H         1 FAD301      0.0000 
     65 H         -18.7019   -6.3923   19.1808 H         1 FAD301      0.0000 
     66 H         -22.5868   -4.4093   21.4936 H         1 FAD301      0.0000 
     67 H         -22.2808   -3.1290   22.7887 H         1 FAD301      0.0000 
     68 H         -21.1342   -2.1610   23.7312 H         1 FAD301      0.0000 
     69 H         -20.3852   -4.2823   24.8503 H         1 FAD301      0.0000 
     70 H         -22.3861   -4.6633   26.3370 H         1 FAD301      0.0000 
     71 H         -20.9406   -2.0711   26.0135 H         1 FAD301      0.0000 
     72 H         -22.9698   -1.4328   27.1808 H         1 FAD301      0.0000 
     73 H         -21.6057   -1.4921   28.3101 H         1 FAD301      0.0000 
     74 H         -20.6007   -6.8381   17.2135 H         1 FAD301      0.0000 
     75 H         -20.6427   -8.1021   18.2069 H         1 FAD301      0.0000 
     76 H         -21.9982   -7.3131   17.8518 H         1 FAD301      0.0000 
     77 H         -23.5188   -5.6918   18.5165 H         1 FAD301      0.0000 
     78 H         -23.5701   -6.9567   19.5081 H         1 FAD301      0.0000 
     79 H         -24.0566   -5.5124   20.0214 H         1 FAD301      0.0000 
     80 H         -28.2649    1.8622   24.4009 H         1 FAD301      0.0000 
     81 H         -27.1866    0.9790   22.8719 H         1 FAD301      0.0000 
     82 H         -21.1893   -6.0653   24.3214 H         1 FAD301      0.0000 
     83 H         -24.0757   -3.2549   26.2610 H         1 FAD301      0.0000 
     84 H         -19.6042   -3.4536   26.8358 H         1 FAD301      0.0000 
@<TRIPOS>BOND
     1    2    1 ar   
     2    3    1 ar   
     3    4    1 1    
     4   53    1 1    
     5    5    4 1    
     6    6    5 1    
     7   54    5 1    
     8   55    5 1    
     9    7    6 1    
    10    8    6 1    
    11   56    6 1    
    12   12    7 1    
    13    9    8 1    
    14   10    8 1    
    15   57    8 1    
    16   80    9 1    
    17   11   10 1    
    18   12   10 1    
    19   58   10 1    
    20   81   11 1    
    21   13   12 1    
    22   59   12 1    
    23   14   13 1    
    24   22   13 1    
    25   15   14 2    
    26   60   14 1    
    27   16   15 1    
    28   17   16 ar   
    29   22   16 ar   
    30   18   17 1    
    31   19   17 ar   
    32   61   18 1    
    33   62   18 1    
    34   20   19 ar   
    35   21   20 ar   
    36   63   20 1    
    37   22   21 ar   
    38   24   23 1    
    39   40   23 2    
    40   25   24 2    
    41   26   24 am   
    42   27   26 am   
    43   64   26 1    
    44   28   27 2    
    45   29   27 1    
    46   30   29 2    
    47   40   29 1    
    48   31   30 1    
    49   32   31 ar   
    50   38   31 ar   
    51   33   32 ar   
    52   65   32 1    
    53   34   33 1    
    54   35   33 ar   
    55   74   34 1    
    56   75   34 1    
    57   76   34 1    
    58   36   35 1    
    59   37   35 ar   
    60   77   36 1    
    61   78   36 1    
    62   79   36 1    
    63   38   37 ar   
    64   66   37 1    
    65   39   38 1    
    66   40   39 1    
    67   41   39 1    
    68   42   41 1    
    69   67   41 1    
    70   68   41 1    
    71   43   42 1    
    72   44   42 1    
    73   69   42 1    
    74   82   43 1    
    75   45   44 1    
    76   46   44 1    
    77   70   44 1    
    78   83   45 1    
    79   47   46 1    
    80   48   46 1    
    81   71   46 1    
    82   84   47 1    
    83   49   48 1    
    84   72   48 1    
    85   73   48 1    
    86   50   49 1    
    87   51   50 ar   
    88   52   50 ar   
    89   53   50 1    
@<TRIPOS>SUBSTRUCTURE
     1 FAD301      1 GROUP   
@<TRIPOS>SET

