#    Name: 3w5a_TM1_1_INTS_M
#    Modification time : Tue Mar 25 02:18:05 2014

@<TRIPOS>MOLECULE
3w5a_TM1_1_INTS_M
   38     0     9     0     0
SMALL
NO_CHARGES


@<TRIPOS>ATOM
      1 CA         67.5385   23.9555  106.6495 C.3       3 GLC5        0.0000 
      2 CA         69.1070   23.1800  107.5910 C.3       9 GLL5        0.0000 
      3 CA         65.9700   24.7310  105.7080 C.3       6 GLP5        0.0000 
      4 CA         68.8290   22.9845  109.3810 C.3       3 GLC5        0.0000 
      5 CA         68.5510   22.7890  111.1710 C.3       6 GLP5        0.0000 
      6 CA         70.6770   22.5190  107.9215 C.3       3 GLC5        0.0000 
      7 CA         72.2470   21.8580  108.2520 C.3       6 GLP5        0.0000 
      8 CA         68.0770   22.9600  105.0195 C.3       3 GLC5        0.0000 
      9 CA         69.8010   21.8740  105.6510 C.3       9 GLL5        0.0000 
     10 CA         66.3530   24.0460  104.3880 C.3       6 GLP5        0.0000 
     11 CA         72.0790   24.3315  106.2115 C.3       3 GLC5        0.0000 
     12 CA         70.1590   24.3300  105.7340 C.3       9 GLL5        0.0000 
     13 CA         73.9990   24.3330  106.6890 C.3       6 GLP5        0.0000 
     14 O          71.5995   26.2110  104.2355 O.2       1 ALC1        0.0000 
     15 O          70.6110   25.4400  105.1490 O.2       7 ALL1        0.0000 
     16 O          72.5880   26.9820  103.3220 O.2       4 ALP1        0.0000 
     17 N          75.0935   17.0460   99.7715 N.am      2 SEC2        0.0000 
     18 N          74.1130   17.8630   99.5780 N.am      8 SEL2        0.0000 
     19 N          76.0740   16.2290   99.9650 N.am      5 SEP2        0.0000 
     20 N          75.3135   19.8755  102.4645 N.am      2 SEC2        0.0000 
     21 N          74.9110   19.3500  101.3950 N.am      8 SEL2        0.0000 
     22 N          75.7160   20.4010  103.5340 N.am      5 SEP2        0.0000 
     23 N          69.1205   15.2565  103.5165 N.am      2 SEC2        0.0000 
     24 N          68.4340   16.6180  103.4710 N.am      8 SEL2        0.0000 
     25 N          69.8070   13.8950  103.5620 N.am      5 SEP2        0.0000 
     26 CA         63.2260   17.6335  103.7175 C.3       3 GLC5        0.0000 
     27 CA         64.8090   16.3920  103.5910 C.3       9 GLL5        0.0000 
     28 CA         61.6430   18.8750  103.8440 C.3       6 GLP5        0.0000 
     29 CA         73.0885   19.1120  103.3635 C.3       3 GLC5        0.0000 
     30 CA         71.7030   17.6720  102.4510 C.3       9 GLL5        0.0000 
     31 CA         74.4740   20.5520  104.2760 C.3       6 GLP5        0.0000 
     32 CA         71.1410   22.1565  106.8003 C.3       3 GLC5        0.0000 
     33 CA         68.8115   24.2390  104.4735 C.3       3 GLC5        0.0000 
     34 CA         70.2690   23.0360  105.0460 C.3       9 GLL5        0.0000 
     35 CA         67.4090   24.7950  103.5570 C.3       6 GLP5        0.0000 
     36 CA         67.2400   19.7410  104.9942 C.3       3 GLC5        0.0000 
     37 CA         69.6960   19.3980  105.0120 C.3       9 GLL5        0.0000 
     38 CA         65.3220   20.3280  105.4830 C.3       6 GLP5        0.0000 
@<TRIPOS>BOND
@<TRIPOS>SUBSTRUCTURE
     1 ALC1       14 GROUP        1 X    ALC  0     ROOT ALC X 1
     2 SEC2       17 GROUP        1 X    SEC  0     **** SEC X 2
     3 GLC5        1 GROUP        1 X    GLC  0     **** GLC X 6
     4 ALP1       16 GROUP        1 Y    ALP  0     ROOT ALP Y 8
     5 SEP2       19 GROUP        1 Y    SEP  0     **** SEP Y 9
     6 GLP5        3 GROUP        1 Y    GLP  0     **** GLP Y 13
     7 ALL1       15 GROUP        1 Z    ALL  0     ROOT ALL Z 15
     8 SEL2       18 GROUP        1 Z    SEL  0     **** SEL Z 16
     9 GLL5        2 GROUP        1 Z    GLL  0     **** GLL Z 20
@<TRIPOS>SET

