#    Name: 3w5a_TM1_1_ligand
#    Modification time : Tue Mar 25 02:18:05 2014

@<TRIPOS>MOLECULE
3w5a_TM1_1_ligand
   51    55     1     0     0
SMALL
NO_CHARGES


@<TRIPOS>ATOM
      1 N1         69.5580   24.3710  107.0350 N.ar      1 TM11001     0.0000 
      2 C2         69.1070   23.1800  107.5910 C.ar      1 TM11001     0.0000 
      3 N3         69.2290   21.9890  106.9170 N.ar      1 TM11001     0.0000 
      4 C4         69.8010   21.8740  105.6510 C.ar      1 TM11001     0.0000 
      5 C5         70.2690   23.0360  105.0460 C.ar      1 TM11001     0.0000 
      6 C6         70.1590   24.3300  105.7340 C.ar      1 TM11001     0.0000 
      7 N6         70.6110   25.4400  105.1490 N.pl3     1 TM11001     0.0000 
      8 N7         70.7760   22.7580  103.8610 N.2       1 TM11001     0.0000 
      9 C8         70.6350   21.4380  103.7060 C.2       1 TM11001     0.0000 
     10 N9         70.0440   20.9090  104.7900 N.pl3     1 TM11001     0.0000 
     11 PA         73.7020   18.6370  100.8700 P.3       1 TM11001     0.0000 
     12 C1'        69.6960   19.3980  105.0120 C.3       1 TM11001     0.0000 
     13 O1A        74.1130   17.8630   99.5780 O.co2     1 TM11001     0.0000 
     14 C1F        67.1910   17.1700  104.1540 C.3       1 TM11001     0.0000 
     15 C2'        68.6200   18.9100  103.9990 C.3       1 TM11001     0.0000 
     16 O2'        67.3040   18.6070  104.5440 O.3       1 TM11001     0.0000 
     17 O2A        74.9110   19.3500  101.3950 O.co2     1 TM11001     0.0000 
     18 C2F        65.9160   17.1740  103.2530 C.2       1 TM11001     0.0000 
     19 N2F        65.7550   17.9880  102.0050 N.pl3     1 TM11001     0.0000 
     20 O2F        66.5710   18.7530  101.4900 O.2       1 TM11001     0.0000 
     21 C3'        69.2540   17.8020  103.2440 C.3       1 TM11001     0.0000 
     22 O3'        68.4340   16.6180  103.4710 O.3       1 TM11001     0.0000 
     23 O3A        72.5590   19.6430  100.4930 O.co2     1 TM11001     0.0000 
     24 C3F        64.8090   16.3920  103.5910 C.2       1 TM11001     0.0000 
     25 O3F        64.7000   17.9420  101.3280 O.2       1 TM11001     0.0000 
     26 C4'        70.6200   17.5560  103.6550 C.3       1 TM11001     0.0000 
     27 O4'        70.7680   18.5340  104.6780 O.3       1 TM11001     0.0000 
     28 C4F        64.6830   15.5460  104.6780 C.3       1 TM11001     0.0000 
     29 N4F        63.6170   14.8100  104.9740 N.pl3     1 TM11001     0.0000 
     30 O4F        62.9520   14.9850  105.9700 O.2       1 TM11001     0.0000 
     31 C5'        71.7030   17.6720  102.4510 C.3       1 TM11001     0.0000 
     32 O5'        73.1210   17.5840  101.9990 O.3       1 TM11001     0.0000 
     33 C5F        65.7900   15.4770  105.5570 C.2       1 TM11001     0.0000 
     34 O5F        63.2420   13.9130  104.2730 O.2       1 TM11001     0.0000 
     35 C6F        67.0710   16.2390  105.3710 C.2       1 TM11001     0.0000 
     36 N6F        68.0350   16.0200  106.3840 N.pl3     1 TM11001     0.0000 
     37 O6F        67.8110   15.2570  107.3110 O.2       1 TM11001     0.0000 
     38 O7F        69.0970   16.5170  106.4450 O.2       1 TM11001     0.0000 
     39 H          68.6704   23.1977  108.5343 H         1 TM11001     0.0000 
     40 H          70.5241   26.2835  105.6791 H         1 TM11001     0.0000 
     41 H          70.9962   25.3290  104.2329 H         1 TM11001     0.0000 
     42 H          70.9194   20.9282  102.9196 H         1 TM11001     0.0000 
     43 H          69.3270   19.2353  105.9777 H         1 TM11001     0.0000 
     44 H          68.5305   19.7653  103.2631 H         1 TM11001     0.0000 
     45 H          69.2162   18.0479  102.1833 H         1 TM11001     0.0000 
     46 H          63.9601   16.4589  102.9269 H         1 TM11001     0.0000 
     47 H          70.6986   16.5630  104.0691 H         1 TM11001     0.0000 
     48 H          65.2588   14.4640  103.9165 H         1 TM11001     0.0000 
     49 H          71.2853   18.7570  101.9006 H         1 TM11001     0.0000 
     50 H          71.0617   17.0378  101.5339 H         1 TM11001     0.0000 
     51 H          65.7475   14.8677  106.3978 H         1 TM11001     0.0000 
@<TRIPOS>BOND
     1    2    1 ar   
     2    6    1 ar   
     3    3    2 ar   
     4   39    2 1    
     5    4    3 ar   
     6    5    4 ar   
     7   10    4 1    
     8    6    5 ar   
     9    8    5 1    
    10    7    6 1    
    11   40    7 1    
    12   41    7 1    
    13    9    8 2    
    14   10    9 1    
    15   42    9 1    
    16   12   10 1    
    17   13   11 ar   
    18   17   11 ar   
    19   23   11 ar   
    20   32   11 1    
    21   15   12 1    
    22   27   12 1    
    23   43   12 1    
    24   16   14 1    
    25   18   14 1    
    26   22   14 1    
    27   35   14 1    
    28   16   15 1    
    29   21   15 1    
    30   44   15 1    
    31   19   18 1    
    32   24   18 2    
    33   20   19 2    
    34   25   19 2    
    35   22   21 1    
    36   26   21 1    
    37   45   21 1    
    38   28   24 1    
    39   46   24 1    
    40   27   26 1    
    41   31   26 1    
    42   47   26 1    
    43   29   28 1    
    44   33   28 1    
    45   48   28 1    
    46   30   29 2    
    47   34   29 2    
    48   32   31 1    
    49   49   31 1    
    50   50   31 1    
    51   35   33 2    
    52   51   33 1    
    53   36   35 1    
    54   37   36 2    
    55   38   36 2    
@<TRIPOS>SUBSTRUCTURE
     1 TM11001     1 GROUP   
@<TRIPOS>SET

