#    Name: 3bej_MUF_1_INTS_M
#    Modification time : Mon Mar 24 19:20:03 2014

@<TRIPOS>MOLECULE
3bej_MUF_1_INTS_M
   83     0    12     0     0
SMALL
NO_CHARGES


@<TRIPOS>ATOM
      1 CA         22.7215   -7.8175    4.9575 C.3       4 GLC5        0.0000 
      2 CA         22.2900   -9.4740    6.1950 C.3      12 GLL5        0.0000 
      3 CA         23.1530   -6.1610    3.7200 C.3       8 GLP5        0.0000 
      4 CA         21.8265   -8.1370    3.9240 C.3       4 GLC5        0.0000 
      5 CA         21.8420   -9.9470    4.7820 C.3      12 GLL5        0.0000 
      6 CA         21.8110   -6.3270    3.0660 C.3       8 GLP5        0.0000 
      7 CA         19.2100  -13.1730    6.0645 C.3       4 GLC5        0.0000 
      8 CA         20.6410  -11.7950    6.0460 C.3      12 GLL5        0.0000 
      9 CA         17.7790  -14.5510    6.0830 C.3       8 GLP5        0.0000 
     10 CA         19.0040  -13.0860    7.2685 C.3       4 GLC5        0.0000 
     11 CA         20.2290  -11.6210    8.4540 C.3      12 GLL5        0.0000 
     12 CA         20.0530  -11.9205   11.6105 C.3       4 GLC5        0.0000 
     13 CA         20.1590  -10.8810    9.7720 C.3      12 GLL5        0.0000 
     14 CA         19.9470  -12.9600   13.4490 C.3       8 GLP5        0.0000 
     15 CA         22.7700  -10.6685    8.3690 C.3       4 GLC5        0.0000 
     16 CA         21.6100   -9.0680    8.6850 C.3      12 GLL5        0.0000 
     17 CA         23.9300  -12.2690    8.0530 C.3       8 GLP5        0.0000 
     18 CA         23.7380   -6.5780    8.1135 C.3       4 GLC5        0.0000 
     19 CA         22.0070   -7.5610    8.6590 C.3      12 GLL5        0.0000 
     20 CA         25.4690   -5.5950    7.5680 C.3       8 GLP5        0.0000 
     21 CA         21.1845   -5.9690    7.7220 C.3       4 GLC5        0.0000 
     22 CA         20.3620   -4.3770    6.7850 C.3       8 GLP5        0.0000 
     23 CA         23.8990   -6.0150    9.5125 C.3       4 GLC5        0.0000 
     24 CA         22.4590   -7.0870   10.0610 C.3      12 GLL5        0.0000 
     25 CA         25.3390   -4.9430    8.9640 C.3       8 GLP5        0.0000 
     26 CA         21.9380   -5.3190    9.0195 C.3       4 GLC5        0.0000 
     27 CA         21.4170   -3.5510    7.9780 C.3       8 GLP5        0.0000 
     28 CA         18.3260   -7.7500   12.7035 C.3       4 GLC5        0.0000 
     29 CA         20.0080   -8.9940   12.3020 C.3      12 GLL5        0.0000 
     30 CA         16.6440   -6.5060   13.1050 C.3       8 GLP5        0.0000 
     31 CA         19.9775  -10.9770   12.8755 C.3       4 GLC5        0.0000 
     32 CA         18.9615   -6.6520   13.3445 C.3       4 GLC5        0.0000 
     33 CA         20.5310   -7.9400   13.3230 C.3      12 GLL5        0.0000 
     34 CA         17.3920   -5.3640   13.3660 C.3       8 GLP5        0.0000 
     35 CA         20.3200   -6.5060   14.9705 C.3       4 GLC5        0.0000 
     36 CA         20.1090   -5.0720   16.6180 C.3       8 GLP5        0.0000 
     37 CA         19.5700   -5.4500    9.1140 C.3       4 GLC5        0.0000 
     38 CA         20.1310   -6.4030   10.8190 C.3      12 GLL5        0.0000 
     39 CA         19.0090   -4.4970    7.4090 C.3       8 GLP5        0.0000 
     40 CA         18.7615   -5.8835   12.0925 C.3       4 GLC5        0.0000 
     41 CA         18.9025   -6.8170    6.6170 C.3       4 GLC5        0.0000 
     42 CA         19.8870   -8.6300    6.7660 C.3      12 GLL5        0.0000 
     43 CA         17.9180   -5.0040    6.4680 C.3       8 GLP5        0.0000 
     44 CA         18.9640   -9.0065    5.0810 C.3       4 GLC5        0.0000 
     45 CA         18.0410   -9.3830    3.3960 C.3       8 GLP5        0.0000 
     46 NZ         20.4535  -12.0050    1.3325 N.4       3 LYC4        0.0000 
     47 NZ         21.3200  -11.6060    2.5960 N.4      11 LYL4        0.0000 
     48 NZ         18.5570  -11.6660    0.4760 N.4       7 LYP4        0.0000 
     49 N          19.9935  -11.2555    2.0795 N.am      2 SEC2        0.0000 
     50 N          21.3200  -11.6060    2.5960 N.am     10 SEL2        0.0000 
     51 N          18.6670  -10.9050    1.5630 N.am      6 SEP2        0.0000 
     52 N          20.4535  -12.0050    1.3325 N.am      2 SEC2        0.0000 
     53 N          19.5870  -12.4040    0.0690 N.am      6 SEP2        0.0000 
     54 O          28.3130   -4.6260   13.4360 O.2       1 ALC1        0.0000 
     55 O          27.3970   -3.7510   13.3440 O.2       9 ALL1        0.0000 
     56 O          29.2290   -5.5010   13.5280 O.2       5 ALP1        0.0000 
     57 CA         23.0890  -11.5158    5.3788 C.3       4 GLC5        0.0000 
     58 CA         24.1120  -13.3210    5.2690 C.3       8 GLP5        0.0000 
     59 CA         22.8122  -10.8885    7.3868 C.3       4 GLC5        0.0000 
     60 CA         22.5125  -12.4390    5.3685 C.3       4 GLC5        0.0000 
     61 CA         21.1850  -11.3190    4.8900 C.3      12 GLL5        0.0000 
     62 CA         22.4215  -11.9130    6.7605 C.3       4 GLC5        0.0000 
     63 CA         19.5591  -10.2985    4.4185 C.3       4 GLC5        0.0000 
     64 CA         18.6977  -10.8317    8.3113 C.3       4 GLC5        0.0000 
     65 CA         20.6320  -11.0300    7.2930 C.3      12 GLL5        0.0000 
     66 CA         16.9650  -10.3380    8.7490 C.3       8 GLP5        0.0000 
     67 CA         18.8130  -12.6590   10.0515 C.3       4 GLC5        0.0000 
     68 CA         17.4320  -14.0670   10.9900 C.3       8 GLP5        0.0000 
     69 CA         20.8715  -13.0910    9.2270 C.3       4 GLC5        0.0000 
     70 CA         21.5490  -14.9310    9.3410 C.3       8 GLP5        0.0000 
     71 CA         22.1124  -11.6861    8.4379 C.3       4 GLC5        0.0000 
     72 CA         18.6502  -10.2250    9.2583 C.3       4 GLC5        0.0000 
     73 CA         18.7290   -9.7120    7.8775 C.3       4 GLC5        0.0000 
     74 CA         18.6962   -9.0265   14.2003 C.3       4 GLC5        0.0000 
     75 CA         17.1230   -9.5860   15.5880 C.3       8 GLP5        0.0000 
     76 CA         25.6505   -7.6075   13.3435 C.3       4 GLC5        0.0000 
     77 CA         24.6070   -6.1380   13.4260 C.3      12 GLL5        0.0000 
     78 CA         26.0420   -9.3520   13.2210 C.3       8 GLP5        0.0000 
     79 CA         27.3945   -5.6248   12.3388 C.3       4 GLC5        0.0000 
     80 CA         25.9110   -5.5880   13.5060 C.3      12 GLL5        0.0000 
     81 CA         28.7720   -6.3430   11.3050 C.3       8 GLP5        0.0000 
     82 CA         25.0020   -4.3994   10.9485 C.3       4 GLC5        0.0000 
     83 CA         26.1230   -4.2250   13.2390 C.3      12 GLL5        0.0000 
@<TRIPOS>BOND
@<TRIPOS>SUBSTRUCTURE
     1 ALC1       54 GROUP        1 X    ALC  0     ROOT ALC X 1
     2 SEC2       49 GROUP        1 X    SEC  0     **** SEC X 2
     3 LYC4       46 GROUP        1 X    LYC  0     **** LYC X 4
     4 GLC5        1 GROUP        1 X    GLC  0     **** GLC X 6
     5 ALP1       56 GROUP        1 Y    ALP  0     ROOT ALP Y 8
     6 SEP2       51 GROUP        1 Y    SEP  0     **** SEP Y 9
     7 LYP4       48 GROUP        1 Y    LYP  0     **** LYP Y 11
     8 GLP5        3 GROUP        1 Y    GLP  0     **** GLP Y 13
     9 ALL1       55 GROUP        1 Z    ALL  0     ROOT ALL Z 15
    10 SEL2       50 GROUP        1 Z    SEL  0     **** SEL Z 16
    11 LYL4       47 GROUP        1 Z    LYL  0     **** LYL Z 18
    12 GLL5        2 GROUP        1 Z    GLL  0     **** GLL Z 20
@<TRIPOS>SET

