#    Name: 3bej_MUF_1_ligand
#    Modification time : Mon Mar 24 19:20:03 2014

@<TRIPOS>MOLECULE
3bej_MUF_1_ligand
   62    66     1     0     0
SMALL
NO_CHARGES


@<TRIPOS>ATOM
      1 C1         22.2900   -9.4740    6.1950 C.3       1 MUF473      0.0000 
      2 C2         21.8420   -9.9470    4.7820 C.3       1 MUF473      0.0000 
      3 C3         21.1850  -11.3190    4.8900 C.2       1 MUF473      0.0000 
      4 C4         20.6410  -11.7950    6.0460 C.2       1 MUF473      0.0000 
      5 C5         20.6320  -11.0300    7.2930 C.2       1 MUF473      0.0000 
      6 C6         20.2290  -11.6210    8.4540 C.2       1 MUF473      0.0000 
      7 C7         20.1590  -10.8810    9.7720 C.3       1 MUF473      0.0000 
      8 C8         20.5120   -9.3430    9.7630 C.3       1 MUF473      0.0000 
      9 C9         21.6100   -9.0680    8.6850 C.3       1 MUF473      0.0000 
     10 C10        21.0990   -9.5420    7.2460 C.3       1 MUF473      0.0000 
     11 C11        22.0070   -7.5610    8.6590 C.3       1 MUF473      0.0000 
     12 C12        22.4590   -7.0870   10.0610 C.3       1 MUF473      0.0000 
     13 C13        21.3560   -7.3440   11.1680 C.3       1 MUF473      0.0000 
     14 C14        21.0110   -8.8670   11.1360 C.3       1 MUF473      0.0000 
     15 C15        20.0080   -8.9940   12.3020 C.3       1 MUF473      0.0000 
     16 C16        20.5310   -7.9400   13.3230 C.3       1 MUF473      0.0000 
     17 C17        21.7760   -7.2720   12.6610 C.3       1 MUF473      0.0000 
     18 C18        20.1310   -6.4030   10.8190 C.3       1 MUF473      0.0000 
     19 C19        19.8870   -8.6300    6.7660 C.3       1 MUF473      0.0000 
     20 C20        22.1100   -5.7930   12.9620 C.2       1 MUF473      0.0000 
     21 O52        21.2020   -4.9670   13.0830 O.2       1 MUF473      0.0000 
     22 C28        21.1160  -12.2400    3.7600 C.2       1 MUF473      0.0000 
     23 O76        21.3200  -11.6060    2.5960 O.co2     1 MUF473      0.0000 
     24 O82        20.9290  -13.4410    3.8530 O.co2     1 MUF473      0.0000 
     25 C52        23.5130   -5.2940   13.0660 C.ar      1 MUF473      0.0000 
     26 C53        24.6070   -6.1380   13.4260 C.ar      1 MUF473      0.0000 
     27 C54        25.9110   -5.5880   13.5060 C.ar      1 MUF473      0.0000 
     28 C55        26.1230   -4.2250   13.2390 C.ar      1 MUF473      0.0000 
     29 C56        25.0510   -3.3700   12.8910 C.ar      1 MUF473      0.0000 
     30 C57        23.7430   -3.9140   12.8010 C.ar      1 MUF473      0.0000 
     31 O57        27.3970   -3.7510   13.3440 O.3       1 MUF473      0.0000 
     32 H          22.6335   -8.4481    6.1405 H         1 MUF473      0.0000 
     33 H          23.0912  -10.1098    6.5517 H         1 MUF473      0.0000 
     34 H          22.7124  -10.0051    4.1448 H         1 MUF473      0.0000 
     35 H          21.1364   -9.2315    4.3855 H         1 MUF473      0.0000 
     36 H          20.2028  -12.7397    6.0856 H         1 MUF473      0.0000 
     37 H          19.9462  -12.6162    8.4999 H         1 MUF473      0.0000 
     38 H          20.8365  -11.3684   10.5111 H         1 MUF473      0.0000 
     39 H          19.1354  -10.9798   10.2026 H         1 MUF473      0.0000 
     40 H          19.6319   -8.7970    9.4902 H         1 MUF473      0.0000 
     41 H          22.4808   -9.6535    8.9254 H         1 MUF473      0.0000 
     42 H          21.1497   -6.9788    8.3437 H         1 MUF473      0.0000 
     43 H          22.8201   -7.4256    7.9562 H         1 MUF473      0.0000 
     44 H          22.6685   -6.0205   10.0342 H         1 MUF473      0.0000 
     45 H          23.3604   -7.6206   10.3521 H         1 MUF473      0.0000 
     46 H          21.9130   -9.3876   11.4235 H         1 MUF473      0.0000 
     47 H          20.0731   -9.9530   12.7278 H         1 MUF473      0.0000 
     48 H          19.0463   -8.7182   11.9790 H         1 MUF473      0.0000 
     49 H          20.8295   -8.4317   14.2167 H         1 MUF473      0.0000 
     50 H          19.7819   -7.2037   13.4856 H         1 MUF473      0.0000 
     51 H          22.6146   -7.9025   12.7639 H         1 MUF473      0.0000 
     52 H          24.4481   -7.1189   13.6213 H         1 MUF473      0.0000 
     53 H          26.6980   -6.1911   13.7599 H         1 MUF473      0.0000 
     54 H          25.2114   -2.3884   12.7092 H         1 MUF473      0.0000 
     55 H          22.9585   -3.3117   12.5440 H         1 MUF473      0.0000 
     56 H          20.3922   -5.4377   10.8198 H         1 MUF473      0.0000 
     57 H          19.7542   -6.6039    9.9148 H         1 MUF473      0.0000 
     58 H          19.3848   -6.5053   11.4769 H         1 MUF473      0.0000 
     59 H          20.1579   -7.6721    6.6712 H         1 MUF473      0.0000 
     60 H          19.5304   -8.9230    5.8789 H         1 MUF473      0.0000 
     61 H          19.1239   -8.6563    7.4118 H         1 MUF473      0.0000 
     62 H          27.9702   -4.5661   13.4281 H         1 MUF473      0.0000 
@<TRIPOS>BOND
     1    2    1 1    
     2   10    1 1    
     3   32    1 1    
     4   33    1 1    
     5    3    2 1    
     6   34    2 1    
     7   35    2 1    
     8    4    3 2    
     9   22    3 1    
    10    5    4 1    
    11   36    4 1    
    12    6    5 2    
    13   10    5 1    
    14    7    6 1    
    15   37    6 1    
    16    8    7 1    
    17   38    7 1    
    18   39    7 1    
    19    9    8 1    
    20   14    8 1    
    21   40    8 1    
    22   10    9 1    
    23   11    9 1    
    24   41    9 1    
    25   19   10 1    
    26   12   11 1    
    27   42   11 1    
    28   43   11 1    
    29   13   12 1    
    30   44   12 1    
    31   45   12 1    
    32   14   13 1    
    33   17   13 1    
    34   18   13 1    
    35   15   14 1    
    36   46   14 1    
    37   16   15 1    
    38   47   15 1    
    39   48   15 1    
    40   17   16 1    
    41   49   16 1    
    42   50   16 1    
    43   20   17 1    
    44   51   17 1    
    45   56   18 1    
    46   57   18 1    
    47   58   18 1    
    48   59   19 1    
    49   60   19 1    
    50   61   19 1    
    51   21   20 2    
    52   25   20 1    
    53   23   22 ar   
    54   24   22 ar   
    55   26   25 ar   
    56   30   25 ar   
    57   27   26 ar   
    58   52   26 1    
    59   28   27 ar   
    60   53   27 1    
    61   29   28 ar   
    62   31   28 1    
    63   30   29 ar   
    64   54   29 1    
    65   55   30 1    
    66   62   31 1    
@<TRIPOS>SUBSTRUCTURE
     1 MUF473      1 GROUP   
@<TRIPOS>SET

