#    Name: 4L2K_1_CAVITY_N1_ALL.mol2
#    Modification time : Tue Mar 11 12:42:44 2014

@<TRIPOS>MOLECULE
4L2K_1_CAVITY_N1_ALL.mol2
   92     0     6     0     0
SMALL
NO_CHARGES


@<TRIPOS>ATOM
      1 OG         -2.5879  -29.9283   10.9677 O.2       1 SER1        0.0000 
      2 N          -4.3876  -38.0795    3.9273 N.2       2 ALA2        0.0000 
      3 CA         -5.6946  -37.3563    4.0632 C.3       5 GLY6        0.0000 
      4 CA         -7.0017  -36.6331    4.1991 C.3       5 GLY6        0.0000 
      5 CA         -8.3088  -35.9099    4.3351 C.3       5 GLY6        0.0000 
      6 DU         -7.6323  -37.5909    3.2322 H         6 CUB7        0.0000 
      7 CA         -1.7062  -28.9123   14.0402 C.3       5 GLY6        0.0000 
      8 DU         -3.0133  -28.1891   14.1762 H         6 CUB7        0.0000 
      9 CA         -1.0297  -30.5934   12.9374 C.3       5 GLY6        0.0000 
     10 CA         -2.3368  -29.8702   13.0733 C.3       5 GLY6        0.0000 
     11 OG         -3.6439  -29.1469   13.2093 O.2       1 SER1        0.0000 
     12 OG         -4.9510  -28.4237   13.3452 O.2       1 SER1        0.0000 
     13 CZ         -1.6602  -31.5512   11.9704 C.ar      4 PHE5        0.0000 
     14 CZ         -2.9673  -30.8280   12.1064 C.ar      4 PHE5        0.0000 
     15 OG         -4.2744  -30.1048   12.2423 O.2       1 SER1        0.0000 
     16 CA         -5.4435  -37.2982    6.1688 C.3       5 GLY6        0.0000 
     17 CA         -6.7506  -36.5750    6.3047 C.3       5 GLY6        0.0000 
     18 N          -6.0740  -38.2560    5.2019 N.2       2 ALA2        0.0000 
     19 CA         -7.3811  -37.5328    5.3378 C.3       5 GLY6        0.0000 
     20 O          -8.6882  -36.8096    5.4737 O.2       2 ALA2        0.0000 
     21 N          -5.3975  -39.9371    4.0990 N.2       2 ALA2        0.0000 
     22 CZ         -6.7046  -39.2139    4.2349 C.ar      4 PHE5        0.0000 
     23 CZ         -8.0117  -38.4907    4.3709 C.ar      4 PHE5        0.0000 
     24 CA         -9.3188  -37.7674    4.5068 C.3       5 GLY6        0.0000 
     25 CA        -10.6258  -37.0442    4.6427 C.3       5 GLY6        0.0000 
     26 CZ         -9.9493  -38.7253    3.5399 C.ar      4 PHE5        0.0000 
     27 CA         -1.4551  -28.8542   16.1458 C.3       5 GLY6        0.0000 
     28 CA         -2.7622  -28.1310   16.2818 C.3       5 GLY6        0.0000 
     29 CA         -0.7786  -30.5353   15.0430 C.3       5 GLY6        0.0000 
     30 CA         -2.0856  -29.8120   15.1789 C.3       5 GLY6        0.0000 
     31 DU         -3.3927  -29.0888   15.3149 H         6 CUB7        0.0000 
     32 CA         -1.4091  -31.4931   14.0760 C.3       5 GLY6        0.0000 
     33 NZ         -2.7162  -30.7699   14.2120 N.2       3 LYS4        0.0000 
     34 OG         -4.0233  -30.0467   14.3479 O.2       1 SER1        0.0000 
     35 CZ         -2.0396  -32.4509   13.1091 C.ar      4 PHE5        0.0000 
     36 OG         -3.3467  -31.7277   13.2450 O.2       1 SER1        0.0000 
     37 CA         -5.1924  -37.2401    8.2744 C.3       5 GLY6        0.0000 
     38 CA         -6.4994  -36.5169    8.4103 C.3       5 GLY6        0.0000 
     39 N          -5.8229  -38.1979    7.3075 N.2       2 ALA2        0.0000 
     40 CA         -7.1300  -37.4747    7.4434 C.3       5 GLY6        0.0000 
     41 O          -8.4371  -36.7515    7.5793 O.2       2 ALA2        0.0000 
     42 N          -5.1464  -39.8790    6.2046 N.2       2 ALA2        0.0000 
     43 CZ         -6.4534  -39.1558    6.3405 C.ar      4 PHE5        0.0000 
     44 CZ         -7.7605  -38.4326    6.4765 C.ar      4 PHE5        0.0000 
     45 CA         -9.0676  -37.7093    6.6124 C.3       5 GLY6        0.0000 
     46 CZ         -5.7769  -40.8368    5.2376 C.ar      4 PHE5        0.0000 
     47 CZ         -8.3911  -39.3904    5.5095 C.ar      4 PHE5        0.0000 
     48 NZ         -1.8345  -29.7539   17.2845 N.2       3 LYS4        0.0000 
     49 NZ         -1.1580  -31.4350   16.1816 N.2       3 LYS4        0.0000 
     50 CZ         -0.4814  -33.1160   15.0787 C.ar      4 PHE5        0.0000 
     51 NZ         -1.7885  -32.3928   15.2147 N.2       3 LYS4        0.0000 
     52 NZ         -4.4027  -30.9464   15.4866 N.2       3 LYS4        0.0000 
     53 CZ         -2.4190  -33.3507   14.2478 C.ar      4 PHE5        0.0000 
     54 OG         -3.7261  -32.6274   14.3837 O.2       1 SER1        0.0000 
     55 OG         -4.3567  -33.5853   13.4168 O.2       1 SER1        0.0000 
     56 CA         -4.9412  -37.1820   10.3800 C.3       5 GLY6        0.0000 
     57 CZ         -6.2483  -36.4588   10.5159 C.ar      4 PHE5        0.0000 
     58 CA         -4.2647  -38.8630    9.2771 C.3       5 GLY6        0.0000 
     59 CA         -5.5718  -38.1398    9.4131 C.3       5 GLY6        0.0000 
     60 CZ         -6.8788  -37.4166    9.5490 C.ar      4 PHE5        0.0000 
     61 N          -6.2023  -39.0977    8.4461 N.2       2 ALA2        0.0000 
     62 DU         -7.5094  -38.3744    8.5821 H         6 CUB7        0.0000 
     63 CA         -8.8165  -37.6512    8.7180 C.3       5 GLY6        0.0000 
     64 N          -6.8328  -40.0555    7.4792 N.2       2 ALA2        0.0000 
     65 OG         -8.1399  -39.3323    7.6151 O.2       1 SER1        0.0000 
     66 CA         -9.4470  -38.6091    7.7511 C.3       5 GLY6        0.0000 
     67 OG         -8.7705  -40.2901    6.6482 O.2       1 SER1        0.0000 
     68 CZ         -2.7984  -34.2504   15.3864 C.ar      4 PHE5        0.0000 
     69 CZ         -4.7361  -34.4850   14.5554 C.ar      4 PHE5        0.0000 
     70 CZ         -5.3666  -35.4428   13.5885 C.ar      4 PHE5        0.0000 
     71 CZ         -5.9972  -36.4007   12.6215 C.ar      4 PHE5        0.0000 
     72 CA         -5.3206  -38.0817   11.5187 C.3       5 GLY6        0.0000 
     73 CZ         -6.6277  -37.3585   11.6546 C.ar      4 PHE5        0.0000 
     74 N          -5.9512  -39.0396   10.5517 N.2       2 ALA2        0.0000 
     75 N          -7.2582  -38.3163   10.6877 N.2       2 ALA2        0.0000 
     76 N          -6.5817  -39.9974    9.5848 N.2       2 ALA2        0.0000 
     77 N          -7.8888  -39.2742    9.7207 N.2       2 ALA2        0.0000 
     78 NZ         -5.1155  -35.3847   15.6941 N.2       3 LYS4        0.0000 
     79 CA         -6.4226  -34.6615   15.8300 C.3       5 GLY6        0.0000 
     80 CA         -5.7460  -36.3426   14.7271 C.3       5 GLY6        0.0000 
     81 CA         -6.3766  -37.3004   13.7602 C.3       5 GLY6        0.0000 
     82 CZ         -7.6836  -36.5772   13.8961 C.ar      4 PHE5        0.0000 
     83 N          -5.7000  -38.9814   12.6573 N.2       2 ALA2        0.0000 
     84 N          -7.0071  -38.2582   12.7933 N.2       2 ALA2        0.0000 
     85 N          -8.3142  -37.5350   12.9292 N.2       2 ALA2        0.0000 
     86 N          -7.6376  -39.2161   11.8263 N.2       2 ALA2        0.0000 
     87 O          -6.1254  -37.2423   15.8658 O.2       2 ALA2        0.0000 
     88 OG         -7.4325  -36.5191   16.0017 O.2       1 SER1        0.0000 
     89 N          -6.7560  -38.2001   14.8989 N.2       2 ALA2        0.0000 
     90 OG         -8.0630  -37.4769   15.0348 O.2       1 SER1        0.0000 
     91 O          -7.3865  -39.1580   13.9319 O.2       2 ALA2        0.0000 
     92 O          -8.6936  -38.4347   14.0679 O.2       2 ALA2        0.0000 
@<TRIPOS>BOND
@<TRIPOS>SUBSTRUCTURE
     1 SER1        1 GROUP   
     2 ALA2        2 GROUP   
     3 LYS4       33 GROUP   
     4 PHE5       13 GROUP   
     5 GLY6        3 GROUP   
     6 CUB7        6 GROUP   
@<TRIPOS>SET

