#    Name: 4l2k_1V8_1_INTS_M
#    Modification time : Mon Apr  7 23:51:15 2014

@<TRIPOS>MOLECULE
4l2k_1V8_1_INTS_M
   52     0     6     0     0
SMALL
NO_CHARGES


@<TRIPOS>ATOM
      1 CA         -8.9865  -40.0970    9.7535 C.3       2 GLC5        0.0000 
      2 CA         -7.5080  -38.5070    9.8510 C.3       6 GLL5        0.0000 
      3 CA        -10.4650  -41.6870    9.6560 C.3       4 GLP5        0.0000 
      4 N          -9.0470  -40.6470    7.9970 N.am      1 SEC2        0.0000 
      5 N          -8.0880  -39.3820    7.6380 N.am      5 SEL2        0.0000 
      6 N         -10.0060  -41.9120    8.3560 N.am      3 SEP2        0.0000 
      7 CA         -9.7980  -38.9800    6.6520 C.3       2 GLC5        0.0000 
      8 CA         -7.8410  -38.6440    6.3460 C.3       6 GLL5        0.0000 
      9 CA        -11.7550  -39.3160    6.9580 C.3       4 GLP5        0.0000 
     10 CA         -8.1180  -40.1290    5.2735 C.3       2 GLC5        0.0000 
     11 CA         -8.3950  -41.6140    4.2010 C.3       4 GLP5        0.0000 
     12 CA         -4.8380  -37.6940   12.9300 C.3       2 GLC5        0.0000 
     13 CA         -6.7420  -37.4680   12.0010 C.3       6 GLL5        0.0000 
     14 CA         -2.9340  -37.9200   13.8590 C.3       4 GLP5        0.0000 
     15 CA         -7.8585  -36.2075   11.8070 C.3       2 GLC5        0.0000 
     16 CA         -8.9750  -34.9470   11.6130 C.3       4 GLP5        0.0000 
     17 CA         -6.2925  -33.7040   16.3120 C.3       2 GLC5        0.0000 
     18 CA         -4.8550  -35.0030   15.6320 C.3       6 GLL5        0.0000 
     19 CA         -7.7300  -32.4050   16.9920 C.3       4 GLP5        0.0000 
     20 CA         -8.6910  -36.6965   16.2410 C.3       2 GLC5        0.0000 
     21 CA         -6.5220  -36.7400   16.0590 C.3       6 GLL5        0.0000 
     22 CA        -10.8600  -36.6530   16.4230 C.3       4 GLP5        0.0000 
     23 N          -9.3875  -39.4260   14.6185 N.am      1 SEC2        0.0000 
     24 N          -8.3510  -38.5400   14.9420 N.am      5 SEL2        0.0000 
     25 N         -10.4240  -40.3120   14.2950 N.am      3 SEP2        0.0000 
     26 N          -8.9640  -38.4845   16.1910 N.am      1 SEC2        0.0000 
     27 N          -9.5770  -38.4290   17.4400 N.am      3 SEP2        0.0000 
     28 CA         -9.5595  -39.0380   13.1530 C.3       2 GLC5        0.0000 
     29 CA         -7.5650  -38.1930   12.8480 C.3       6 GLL5        0.0000 
     30 CA        -11.5540  -39.8830   13.4580 C.3       4 GLP5        0.0000 
     31 CA         -8.8145  -37.0905   12.0985 C.3       2 GLC5        0.0000 
     32 CA        -10.0640  -35.9880   11.3490 C.3       4 GLP5        0.0000 
     33 CA         -8.5780  -37.0318   10.7853 C.3       2 GLC5        0.0000 
     34 CA         -6.6760  -37.6440   10.5920 C.3       6 GLL5        0.0000 
     35 CA         -6.4710  -35.6720    7.2800 C.3       2 GLC5        0.0000 
     36 CA         -5.6580  -37.0220    8.4820 C.3       6 GLL5        0.0000 
     37 CA         -6.8880  -33.8980    6.4030 C.3       4 GLP5        0.0000 
     38 CA         -3.9192  -36.8485    9.1250 C.3       2 GLC5        0.0000 
     39 CA         -2.1400  -36.7400    9.0770 C.3       4 GLP5        0.0000 
     40 CA         -4.1828  -36.8240   13.9520 C.3       2 GLC5        0.0000 
     41 CA         -5.8730  -36.2150   13.8240 C.3       6 GLL5        0.0000 
     42 CA         -4.0870  -36.6545   14.9657 C.3       2 GLC5        0.0000 
     43 CA         -4.4820  -34.6355   17.8193 C.3       2 GLC5        0.0000 
     44 CA         -3.7240  -33.8820   19.5660 C.3       4 GLP5        0.0000 
     45 CA         -5.3277  -38.1232   16.9390 C.3       2 GLC5        0.0000 
     46 CA         -5.6250  -35.7750   16.5130 C.3       6 GLL5        0.0000 
     47 CA         -4.5820  -39.9890   17.5920 C.3       4 GLP5        0.0000 
     48 CA         -6.6568  -36.5312   17.9600 C.3       2 GLC5        0.0000 
     49 CA         -7.2400  -36.8050   19.6340 C.3       4 GLP5        0.0000 
     50 CA         -6.9607  -34.8747   17.1675 C.3       2 GLC5        0.0000 
     51 CA         -7.8480  -33.4920   18.0490 C.3       4 GLP5        0.0000 
     52 CA         -4.7675  -37.3840   14.6192 C.3       2 GLC5        0.0000 
@<TRIPOS>BOND
@<TRIPOS>SUBSTRUCTURE
     1 SEC2        4 GROUP        1 X    SEC  0     ROOT SEC X 2
     2 GLC5        1 GROUP        1 X    GLC  0     **** GLC X 6
     3 SEP2        6 GROUP        1 Y    SEP  0     ROOT SEP Y 9
     4 GLP5        3 GROUP        1 Y    GLP  0     **** GLP Y 13
     5 SEL2        5 GROUP        1 Z    SEL  0     ROOT SEL Z 16
     6 GLL5        2 GROUP        1 Z    GLL  0     **** GLL Z 20
@<TRIPOS>SET

