#    Name: 4l2k_1V8_1_ligand
#    Modification time : Mon Apr  7 23:51:15 2014

@<TRIPOS>MOLECULE
4l2k_1V8_1_ligand
   30    33     1     0     0
SMALL
NO_CHARGES


@<TRIPOS>ATOM
      1 CAI        -7.5080  -38.5070    9.8510 C.ar      1 1V81201     0.0000 
      2 CAH        -7.3770  -38.6060    8.5130 C.ar      1 1V81201     0.0000 
      3 OAK        -8.0880  -39.3820    7.6380 O.3       1 1V81201     0.0000 
      4 CAM        -7.8410  -38.6440    6.3460 C.3       1 1V81201     0.0000 
      5 OAL        -6.4930  -38.0980    6.4830 O.3       1 1V81201     0.0000 
      6 CAJ        -6.4500  -37.8700    7.8320 C.ar      1 1V81201     0.0000 
      7 CAP        -5.6580  -37.0220    8.4820 C.ar      1 1V81201     0.0000 
      8 CAO        -5.7390  -36.8920    9.8640 C.ar      1 1V81201     0.0000 
      9 CAG        -6.6760  -37.6440   10.5920 C.ar      1 1V81201     0.0000 
     10 CAA        -6.7420  -37.4680   12.0010 C.2       1 1V81201     0.0000 
     11 OAC        -5.9630  -36.4410   12.4960 O.3       1 1V81201     0.0000 
     12 CAF        -5.8730  -36.2150   13.8240 C.ar      1 1V81201     0.0000 
     13 CAR        -4.9900  -35.2410   14.2660 C.ar      1 1V81201     0.0000 
     14 CAT        -4.8550  -35.0030   15.6320 C.ar      1 1V81201     0.0000 
     15 CAS        -5.6250  -35.7750   16.5130 C.ar      1 1V81201     0.0000 
     16 CAQ        -6.5220  -36.7400   16.0590 C.ar      1 1V81201     0.0000 
     17 CAE        -6.6800  -36.9560   14.7000 C.ar      1 1V81201     0.0000 
     18 CAD        -7.5580  -37.9330   14.2100 C.2       1 1V81201     0.0000 
     19 OAN        -8.3510  -38.5400   14.9420 O.2       1 1V81201     0.0000 
     20 CAB        -7.5650  -38.1930   12.8480 C.2       1 1V81201     0.0000 
     21 H          -8.2193  -39.0596   10.3649 H         1 1V81201     0.0000 
     22 H          -8.5678  -37.8604    6.2423 H         1 1V81201     0.0000 
     23 H          -7.8972  -39.3365    5.5273 H         1 1V81201     0.0000 
     24 H          -4.9597  -36.4361    7.9738 H         1 1V81201     0.0000 
     25 H          -5.1138  -36.2450   10.3607 H         1 1V81201     0.0000 
     26 H          -4.4384  -34.6976   13.5933 H         1 1V81201     0.0000 
     27 H          -4.2218  -34.2956   15.9815 H         1 1V81201     0.0000 
     28 H          -5.5211  -35.6202   17.5363 H         1 1V81201     0.0000 
     29 H          -7.0659  -37.2908   16.7372 H         1 1V81201     0.0000 
     30 H          -8.1812  -38.9241   12.4667 H         1 1V81201     0.0000 
@<TRIPOS>BOND
     1    2    1 ar   
     2    9    1 ar   
     3   21    1 1    
     4    3    2 1    
     5    6    2 ar   
     6    4    3 1    
     7    5    4 1    
     8   22    4 1    
     9   23    4 1    
    10    6    5 1    
    11    7    6 ar   
    12    8    7 ar   
    13   24    7 1    
    14    9    8 ar   
    15   25    8 1    
    16   10    9 1    
    17   11   10 1    
    18   20   10 2    
    19   12   11 1    
    20   13   12 ar   
    21   17   12 ar   
    22   14   13 ar   
    23   26   13 1    
    24   15   14 ar   
    25   27   14 1    
    26   16   15 ar   
    27   28   15 1    
    28   17   16 ar   
    29   29   16 1    
    30   18   17 1    
    31   19   18 2    
    32   20   18 1    
    33   30   20 1    
@<TRIPOS>SUBSTRUCTURE
     1 1V81201     1 GROUP   
@<TRIPOS>SET

