#    Name: 3o9e_A60_1_INTS_M
#    Modification time : Tue Mar 25 03:25:03 2014

@<TRIPOS>MOLECULE
3o9e_A60_1_INTS_M
   97     0     9     0     0
SMALL
NO_CHARGES


@<TRIPOS>ATOM
      1 O          13.3140   33.7970   18.7650 O.2       1 ALC1        0.0000 
      2 O          14.1220   34.9960   18.1770 O.2       7 ALL1        0.0000 
      3 O          12.5060   32.5980   19.3530 O.2       4 ALP1        0.0000 
      4 CA         15.1090   36.6065   15.7095 C.3       3 GLC5        0.0000 
      5 CA         16.0790   35.1940   16.7600 C.3       9 GLL5        0.0000 
      6 CA         14.1390   38.0190   14.6590 C.3       6 GLP5        0.0000 
      7 CA         15.1370   30.7555   15.3150 C.3       3 GLC5        0.0000 
      8 CA         15.8160   32.4820   16.1860 C.3       9 GLL5        0.0000 
      9 CA         14.4580   29.0290   14.4440 C.3       6 GLP5        0.0000 
     10 CA         22.8705   34.6010   14.3855 C.3       3 GLC5        0.0000 
     11 CA         21.9630   32.6500   15.0040 C.3       9 GLL5        0.0000 
     12 CA         23.7780   36.5520   13.7670 C.3       6 GLP5        0.0000 
     13 CA         21.2105   34.0805   13.7090 C.3       3 GLC5        0.0000 
     14 CA         20.4580   35.5110   12.4140 C.3       6 GLP5        0.0000 
     15 CA         22.7075   32.8950   19.0925 C.3       3 GLC5        0.0000 
     16 CA         21.9710   33.5400   17.3890 C.3       9 GLL5        0.0000 
     17 CA         23.4440   32.2500   20.7960 C.3       6 GLP5        0.0000 
     18 CA         17.4205   30.5885   17.8020 C.3       3 GLC5        0.0000 
     19 CA         18.8900   30.4560   16.2290 C.3       9 GLL5        0.0000 
     20 CA         15.9510   30.7210   19.3750 C.3       6 GLP5        0.0000 
     21 CA         22.8175   35.7740   15.3740 C.3       3 GLC5        0.0000 
     22 CA         21.8570   34.9960   16.9810 C.3       9 GLL5        0.0000 
     23 N          19.2725   27.7280   17.8240 N.am      2 SEC2        0.0000 
     24 N          19.8090   28.2110   16.5400 N.am      8 SEL2        0.0000 
     25 N          18.7360   27.2450   19.1080 N.am      5 SEP2        0.0000 
     26 O          20.6725   27.9060   17.4235 O.2       1 ALC1        0.0000 
     27 O          19.8090   28.2110   16.5400 O.2       7 ALL1        0.0000 
     28 O          21.5360   27.6010   18.3070 O.2       4 ALP1        0.0000 
     29 O          21.3615   28.6230   16.9430 O.2       1 ALC1        0.0000 
     30 O          22.9140   29.0350   17.3460 O.2       4 ALP1        0.0000 
     31 CA         24.1305   34.0560   13.9335 C.3       3 GLC5        0.0000 
     32 CA         23.4170   32.2320   14.8960 C.3       9 GLL5        0.0000 
     33 CA         24.8440   35.8800   12.9710 C.3       6 GLP5        0.0000 
     34 CA         24.5975   30.7760   14.9365 C.3       3 GLC5        0.0000 
     35 CA         25.7780   29.3200   14.9770 C.3       6 GLP5        0.0000 
     36 CA         24.2340   31.6935   13.1425 C.3       3 GLC5        0.0000 
     37 CA         25.0510   31.1550   11.3890 C.3       6 GLP5        0.0000 
     38 O          20.3745   26.6830   14.2155 O.2       1 ALC1        0.0000 
     39 O          20.6360   28.1570   13.7800 O.2       7 ALL1        0.0000 
     40 O          20.1130   25.2090   14.6510 O.2       4 ALP1        0.0000 
     41 CA         26.2010   25.6760   11.7080 C.3       3 GLC5        0.0000 
     42 CA         24.6080   27.0590   11.9260 C.3       9 GLL5        0.0000 
     43 CA         27.7940   24.2930   11.4900 C.3       6 GLP5        0.0000 
     44 CA         26.4860   27.8510   11.9460 C.3       3 GLC5        0.0000 
     45 CA         28.3640   28.6430   11.9660 C.3       6 GLP5        0.0000 
     46 CA         25.7615   27.8915   10.2405 C.3       3 GLC5        0.0000 
     47 CA         26.9150   28.7240    8.5550 C.3       6 GLP5        0.0000 
     48 CA         25.1930   28.1895   13.4515 C.3       3 GLC5        0.0000 
     49 N          25.2695   24.5355   12.4255 N.am      2 SEC2        0.0000 
     50 N          24.4060   25.6500   11.7980 N.am      8 SEL2        0.0000 
     51 N          26.1330   23.4210   13.0530 N.am      5 SEP2        0.0000 
     52 CA         23.2065   25.2475   12.8890 C.3       3 GLC5        0.0000 
     53 CA         23.5230   25.3880   10.7120 C.3       9 GLL5        0.0000 
     54 CA         22.8900   25.1070   15.0660 C.3       6 GLP5        0.0000 
     55 CA         23.7320   23.4865   11.2575 C.3       3 GLC5        0.0000 
     56 CA         23.9410   21.5850   11.8030 C.3       6 GLP5        0.0000 
     57 CA         25.6585   24.8405   11.1010 C.3       3 GLC5        0.0000 
     58 N          23.0200   23.8450   12.3785 N.am      2 SEC2        0.0000 
     59 N          22.5430   24.4650   11.1440 N.am      8 SEL2        0.0000 
     60 N          23.4970   23.2250   13.6130 N.am      5 SEP2        0.0000 
     61 CA         22.0790   25.1030   13.1310 C.3       3 GLC5        0.0000 
     62 CA         21.2680   25.0990   11.1960 C.3       9 GLL5        0.0000 
     63 CA         22.6045   23.3420   11.4995 C.3       3 GLC5        0.0000 
     64 CA         17.0705   25.2995   13.5195 C.3       3 GLC5        0.0000 
     65 CA         18.0640   26.4150   12.2380 C.3       9 GLL5        0.0000 
     66 CA         16.0770   24.1840   14.8010 C.3       6 GLP5        0.0000 
     67 CA         18.9890   29.4400    9.5035 C.3       3 GLC5        0.0000 
     68 CA         17.5110   28.3840   10.3910 C.3       9 GLL5        0.0000 
     69 CA         20.4670   30.4960    8.6160 C.3       6 GLP5        0.0000 
     70 CA         17.3455   30.2780    9.8820 C.3       3 GLC5        0.0000 
     71 CA         17.1800   32.1720    9.3730 C.3       6 GLP5        0.0000 
     72 CA         17.1960   30.7000   11.2325 C.3       3 GLC5        0.0000 
     73 CA         17.7040   28.7160   11.7220 C.3       9 GLL5        0.0000 
     74 CA         16.6880   32.6840   10.7430 C.3       6 GLP5        0.0000 
     75 CA         13.9683   34.7683   15.7245 C.3       3 GLC5        0.0000 
     76 CA         14.9120   33.0970   17.0460 C.3       9 GLL5        0.0000 
     77 CA         12.9580   35.7680   14.2590 C.3       6 GLP5        0.0000 
     78 CA         15.4778   32.8828   14.0535 C.3       3 GLC5        0.0000 
     79 CA         14.6070   32.9370   12.2090 C.3       6 GLP5        0.0000 
     80 CA         15.6741   31.9231   18.0315 C.3       3 GLC5        0.0000 
     81 CA         13.6271   32.9626   16.3780 C.3       3 GLC5        0.0000 
     82 CA         11.8570   32.8000   16.0680 C.3       6 GLP5        0.0000 
     83 CA         23.7055   34.5330   17.7660 C.3       3 GLC5        0.0000 
     84 CA         25.4970   34.7980   18.3470 C.3       6 GLP5        0.0000 
     85 CA         23.9535   26.7208   13.5987 C.3       3 GLC5        0.0000 
     86 CA         23.2940   27.6600   11.4710 C.3       9 GLL5        0.0000 
     87 CA         23.9560   26.0820   15.4990 C.3       6 GLP5        0.0000 
     88 CA         24.5010   29.2572   11.5437 C.3       3 GLC5        0.0000 
     89 CA         16.1590   26.2490   11.6955 C.3       3 GLC5        0.0000 
     90 CA         14.3500   26.2470   11.8210 C.3       6 GLP5        0.0000 
     91 CA         16.1900   28.0527    8.9503 C.3       3 GLC5        0.0000 
     92 CA         17.5830   27.0730    9.9760 C.3       9 GLL5        0.0000 
     93 CA         14.8330   28.3770    7.7170 C.3       6 GLP5        0.0000 
     94 CA         15.9485   26.9877   11.0023 C.3       3 GLC5        0.0000 
     95 CA         16.0983   27.2370   12.0075 C.3       3 GLC5        0.0000 
     96 CA         16.1824   28.6824   13.4984 C.3       3 GLC5        0.0000 
     97 CA         17.9890   27.7380   12.6660 C.3       9 GLL5        0.0000 
@<TRIPOS>BOND
@<TRIPOS>SUBSTRUCTURE
     1 ALC1        1 GROUP        1 X    ALC  0     ROOT ALC X 1
     2 SEC2       23 GROUP        1 X    SEC  0     **** SEC X 2
     3 GLC5        4 GROUP        1 X    GLC  0     **** GLC X 6
     4 ALP1        3 GROUP        1 Y    ALP  0     ROOT ALP Y 8
     5 SEP2       25 GROUP        1 Y    SEP  0     **** SEP Y 9
     6 GLP5        6 GROUP        1 Y    GLP  0     **** GLP Y 13
     7 ALL1        2 GROUP        1 Z    ALL  0     ROOT ALL Z 15
     8 SEL2       24 GROUP        1 Z    SEL  0     **** SEL Z 16
     9 GLL5        5 GROUP        1 Z    GLL  0     **** GLL Z 20
@<TRIPOS>SET

