#    Name: 3o9e_A60_1_ligand
#    Modification time : Tue Mar 25 03:25:03 2014

@<TRIPOS>MOLECULE
3o9e_A60_1_ligand
   81    84     1     0     0
SMALL
NO_CHARGES


@<TRIPOS>ATOM
      1 N1         14.1220   34.9960   18.1770 N.pl3     1 A60200      0.0000 
      2 C2         15.0450   34.4400   17.3340 C.ar      1 A60200      0.0000 
      3 C3         16.0790   35.1940   16.7600 C.ar      1 A60200      0.0000 
      4 C4         17.0010   34.5490   15.9040 C.ar      1 A60200      0.0000 
      5 C5         16.8810   33.1750   15.6100 C.ar      1 A60200      0.0000 
      6 C6         15.8160   32.4820   16.1860 C.ar      1 A60200      0.0000 
      7 C7         14.9120   33.0970   17.0460 C.ar      1 A60200      0.0000 
      8 S8         17.9220   32.3510   14.6640 S.o2      1 A60200      0.0000 
      9 O9         18.5510   33.2510   13.7270 O.2       1 A60200      0.0000 
     10 O10        17.2320   31.2410   14.0660 O.2       1 A60200      0.0000 
     11 N11        19.1350   31.7400   15.5410 N.pl3     1 A60200      0.0000 
     12 C12        19.8370   32.7500   16.3720 C.3       1 A60200      0.0000 
     13 C13        21.3460   32.5390   16.4010 C.3       1 A60200      0.0000 
     14 C14        21.9630   32.6500   15.0040 C.3       1 A60200      0.0000 
     15 C15        21.9710   33.5400   17.3890 C.3       1 A60200      0.0000 
     16 C16        18.8900   30.4560   16.2290 C.3       1 A60200      0.0000 
     17 C17        19.8470   29.3850   15.6840 C.3       1 A60200      0.0000 
     18 C18        21.8570   34.9960   16.9810 C.3       1 A60200      0.0000 
     19 O18        19.8090   28.2110   16.5400 O.3       1 A60200      0.0000 
     20 C19        19.5310   28.9630   14.2500 C.3       1 A60200      0.0000 
     21 C20        23.4170   32.2320   14.8960 C.3       1 A60200      0.0000 
     22 N20        20.6360   28.1570   13.7800 N.am      1 A60200      0.0000 
     23 C21        21.5070   28.5430   12.8640 C.2       1 A60200      0.0000 
     24 O22        21.5780   29.5870   12.2530 O.2       1 A60200      0.0000 
     25 O23        22.4610   27.5140   12.6150 O.3       1 A60200      0.0000 
     26 C24        23.2940   27.6600   11.4710 C.3       1 A60200      0.0000 
     27 C25        24.6080   27.0590   11.9260 C.3       1 A60200      0.0000 
     28 O26        24.4060   25.6500   11.7980 O.3       1 A60200      0.0000 
     29 C27        23.5230   25.3880   10.7120 C.3       1 A60200      0.0000 
     30 O28        22.5430   24.4650   11.1440 O.3       1 A60200      0.0000 
     31 C29        21.2680   25.0990   11.1960 C.3       1 A60200      0.0000 
     32 C30        21.3660   26.3480   10.3170 C.3       1 A60200      0.0000 
     33 C31        22.8460   26.7100   10.3840 C.3       1 A60200      0.0000 
     34 C32        18.2300   28.1730   14.1010 C.3       1 A60200      0.0000 
     35 C33        18.0640   26.4150   12.2380 C.ar      1 A60200      0.0000 
     36 C34        17.8720   26.0870   10.9020 C.ar      1 A60200      0.0000 
     37 C35        17.5830   27.0730    9.9760 C.ar      1 A60200      0.0000 
     38 C36        17.5110   28.3840   10.3910 C.ar      1 A60200      0.0000 
     39 C37        17.7040   28.7160   11.7220 C.ar      1 A60200      0.0000 
     40 C38        17.9890   27.7380   12.6660 C.ar      1 A60200      0.0000 
     41 H          14.2218   35.9750   18.3547 H         1 A60200      0.0000 
     42 H          13.4285   34.3746   18.5416 H         1 A60200      0.0000 
     43 H          16.1683   36.1862   16.9527 H         1 A60200      0.0000 
     44 H          17.7704   35.0915   15.4902 H         1 A60200      0.0000 
     45 H          15.6952   31.4707   15.9637 H         1 A60200      0.0000 
     46 H          14.1488   32.5483   17.4632 H         1 A60200      0.0000 
     47 H          19.4600   32.7154   17.4067 H         1 A60200      0.0000 
     48 H          19.6336   33.7623   15.9876 H         1 A60200      0.0000 
     49 H          21.5370   31.5352   16.7860 H         1 A60200      0.0000 
     50 H          21.8614   33.6998   14.6571 H         1 A60200      0.0000 
     51 H          21.3575   32.0384   14.3025 H         1 A60200      0.0000 
     52 H          23.0388   33.2803   17.5196 H         1 A60200      0.0000 
     53 H          21.4926   33.3995   18.3770 H         1 A60200      0.0000 
     54 H          17.8678   30.1188   16.0633 H         1 A60200      0.0000 
     55 H          19.0596   30.5542   17.3003 H         1 A60200      0.0000 
     56 H          20.8571   29.8032   15.6948 H         1 A60200      0.0000 
     57 H          19.4597   29.8624   13.6421 H         1 A60200      0.0000 
     58 H          20.7098   27.1974   14.2324 H         1 A60200      0.0000 
     59 H          23.4302   28.5998   11.1351 H         1 A60200      0.0000 
     60 H          24.7838   27.3515   12.9448 H         1 A60200      0.0000 
     61 H          25.3895   27.4158   11.2807 H         1 A60200      0.0000 
     62 H          24.0465   25.0577    9.8552 H         1 A60200      0.0000 
     63 H          21.0086   25.4165   12.1988 H         1 A60200      0.0000 
     64 H          20.4811   24.4707   10.7962 H         1 A60200      0.0000 
     65 H          20.7844   27.1267   10.7364 H         1 A60200      0.0000 
     66 H          21.0980   26.1065    9.3218 H         1 A60200      0.0000 
     67 H          23.1985   27.0144    9.4329 H         1 A60200      0.0000 
     68 H          17.3950   28.7963   14.4367 H         1 A60200      0.0000 
     69 H          18.2747   27.2894   14.7457 H         1 A60200      0.0000 
     70 H          18.2652   25.6685   12.9246 H         1 A60200      0.0000 
     71 H          17.9458   25.1026   10.6015 H         1 A60200      0.0000 
     72 H          17.4246   26.8276    8.9922 H         1 A60200      0.0000 
     73 H          17.3105   29.1328    9.7033 H         1 A60200      0.0000 
     74 H          17.6352   29.7057   12.0185 H         1 A60200      0.0000 
     75 H          22.2811   35.6041   17.6521 H         1 A60200      0.0000 
     76 H          22.3029   35.1718   16.1033 H         1 A60200      0.0000 
     77 H          20.9033   35.2820   16.8877 H         1 A60200      0.0000 
     78 H          24.0075   32.7873   15.4816 H         1 A60200      0.0000 
     79 H          23.5502   31.2782   15.1654 H         1 A60200      0.0000 
     80 H          23.7613   32.3234   13.9616 H         1 A60200      0.0000 
     81 H          20.7215   28.1569   16.9455 H         1 A60200      0.0000 
@<TRIPOS>BOND
     1    2    1 1    
     2   41    1 1    
     3   42    1 1    
     4    3    2 ar   
     5    7    2 ar   
     6    4    3 ar   
     7   43    3 1    
     8    5    4 ar   
     9   44    4 1    
    10    6    5 ar   
    11    8    5 1    
    12    7    6 ar   
    13   45    6 1    
    14   46    7 1    
    15    9    8 2    
    16   10    8 2    
    17   11    8 1    
    18   12   11 1    
    19   16   11 1    
    20   13   12 1    
    21   47   12 1    
    22   48   12 1    
    23   14   13 1    
    24   15   13 1    
    25   49   13 1    
    26   21   14 1    
    27   50   14 1    
    28   51   14 1    
    29   18   15 1    
    30   52   15 1    
    31   53   15 1    
    32   17   16 1    
    33   54   16 1    
    34   55   16 1    
    35   19   17 1    
    36   20   17 1    
    37   56   17 1    
    38   75   18 1    
    39   76   18 1    
    40   77   18 1    
    41   81   19 1    
    42   22   20 1    
    43   34   20 1    
    44   57   20 1    
    45   78   21 1    
    46   79   21 1    
    47   80   21 1    
    48   23   22 am   
    49   58   22 1    
    50   24   23 2    
    51   25   23 1    
    52   26   25 1    
    53   27   26 1    
    54   33   26 1    
    55   59   26 1    
    56   28   27 1    
    57   60   27 1    
    58   61   27 1    
    59   29   28 1    
    60   30   29 1    
    61   33   29 1    
    62   62   29 1    
    63   31   30 1    
    64   32   31 1    
    65   63   31 1    
    66   64   31 1    
    67   33   32 1    
    68   65   32 1    
    69   66   32 1    
    70   67   33 1    
    71   40   34 1    
    72   68   34 1    
    73   69   34 1    
    74   36   35 ar   
    75   40   35 ar   
    76   70   35 1    
    77   37   36 ar   
    78   71   36 1    
    79   38   37 ar   
    80   72   37 1    
    81   39   38 ar   
    82   73   38 1    
    83   40   39 ar   
    84   74   39 1    
@<TRIPOS>SUBSTRUCTURE
     1 A60200      1 GROUP   
@<TRIPOS>SET

