#    Name: 1uof_PNN_1_INTS_M
#    Modification time : Tue Mar 25 06:46:46 2014

@<TRIPOS>MOLECULE
1uof_PNN_1_INTS_M
   42     0     9     0     0
SMALL
NO_CHARGES


@<TRIPOS>ATOM
      1 CA          5.8430   17.4605   55.6970 C.3       3 GLC5        0.0000 
      2 CA          6.5320   15.5540   56.0950 C.3       9 GLL5        0.0000 
      3 CA          5.1540   19.3670   55.2990 C.3       6 GLP5        0.0000 
      4 Zn          8.3825   13.5655   55.2870 Zn        2 ZIC7        0.0000 
      5 Zn          8.1730   14.0230   56.2580 Zn        8 ZIL7        0.0000 
      6 Zn          8.5920   13.1080   54.3160 Zn        5 ZIP7        0.0000 
      7 Zn          8.4125   14.0505   54.2155 Zn        2 ZIC7        0.0000 
      8 Zn          8.2330   14.9930   54.1150 Zn        8 ZIL7        0.0000 
      9 N           8.9315   14.7230   52.8225 N.am      1 SEC2        0.0000 
     10 N           8.2330   14.9930   54.1150 N.am      7 SEL2        0.0000 
     11 N           9.6300   14.4530   51.5300 N.am      4 SEP2        0.0000 
     12 CA          5.4845   12.1405   57.4925 C.3       3 GLC5        0.0000 
     13 CA          5.5060   13.3280   55.6940 C.3       9 GLL5        0.0000 
     14 CA          5.4630   10.9530   59.2910 C.3       6 GLP5        0.0000 
     15 CA          5.6570   11.9955   53.9710 C.3       3 GLC5        0.0000 
     16 CA          5.8080   10.6630   52.2480 C.3       6 GLP5        0.0000 
     17 CA          4.6265   17.3300   55.8425 C.3       3 GLC5        0.0000 
     18 CA          4.0990   15.2930   56.3860 C.3       9 GLL5        0.0000 
     19 CA          5.5215   12.5825   58.8010 C.3       3 GLC5        0.0000 
     20 CA          5.5800   14.2120   58.3110 C.3       9 GLL5        0.0000 
     21 CA          6.8560   15.4560   60.6345 C.3       3 GLC5        0.0000 
     22 CA          6.3900   16.7900   59.3970 C.3       9 GLL5        0.0000 
     23 CA          7.3220   14.1220   61.8720 C.3       6 GLP5        0.0000 
     24 CA          1.9160   17.7565   62.6825 C.3       3 GLC5        0.0000 
     25 CA          3.6190   17.1610   61.8050 C.3       9 GLL5        0.0000 
     26 CA          0.2130   18.3520   63.5600 C.3       6 GLP5        0.0000 
     27 CA          4.2015   12.2465   61.2705 C.3       3 GLC5        0.0000 
     28 CA          2.6400   13.4710   61.7630 C.3       9 GLL5        0.0000 
     29 CA          5.7630   11.0220   60.7780 C.3       6 GLP5        0.0000 
     30 CA          6.7645   14.4790   60.1762 C.3       3 GLC5        0.0000 
     31 CA          8.6765   16.0035   59.5173 C.3       3 GLC5        0.0000 
     32 CA          6.8340   15.4600   58.6500 C.3       9 GLL5        0.0000 
     33 CA         10.7410   15.8820   60.0110 C.3       6 GLP5        0.0000 
     34 CA          4.5068   14.2655   63.1998 C.3       3 GLC5        0.0000 
     35 CA          3.1350   15.7920   62.2190 C.3       9 GLL5        0.0000 
     36 CA          6.0900   12.8320   63.5170 C.3       6 GLP5        0.0000 
     37 CA          4.1632   13.3325   63.5230 C.3       3 GLC5        0.0000 
     38 CA          2.2190   13.3030   63.0850 C.3       9 GLL5        0.0000 
     39 CA          3.1236   12.6565   64.1545 C.3       3 GLC5        0.0000 
     40 CA          2.2540   14.3630   63.9730 C.3       9 GLL5        0.0000 
     41 CA          3.8090   11.6610   65.6630 C.3       6 GLP5        0.0000 
     42 CA          4.4795   13.4630   62.5310 C.3       3 GLC5        0.0000 
@<TRIPOS>BOND
@<TRIPOS>SUBSTRUCTURE
     1 SEC2        9 GROUP        1 X    SEC  0     ROOT SEC X 2
     2 ZIC7        4 GROUP        1 X    ZIC  0     **** ZIC X 5
     3 GLC5        1 GROUP        1 X    GLC  0     **** GLC X 6
     4 SEP2       11 GROUP        1 Y    SEP  0     ROOT SEP Y 9
     5 ZIP7        6 GROUP        1 Y    ZIP  0     **** ZIP Y 12
     6 GLP5        3 GROUP        1 Y    GLP  0     **** GLP Y 13
     7 SEL2       10 GROUP        1 Z    SEL  0     ROOT SEL Z 16
     8 ZIL7        5 GROUP        1 Z    ZIL  0     **** ZIL Z 19
     9 GLL5        2 GROUP        1 Z    GLL  0     **** GLL Z 20
@<TRIPOS>SET

