#    Name: 1uof_PNN_1_ligand
#    Modification time : Tue Mar 25 06:46:46 2014

@<TRIPOS>MOLECULE
1uof_PNN_1_ligand
   40    42     1     0     0
SMALL
NO_CHARGES


@<TRIPOS>ATOM
      1 O8          5.8570   18.2970   57.4300 O.2       1 PNN1312     0.0000 
      2 C7          6.3390   17.2790   57.9390 C.2       1 PNN1312     0.0000 
      3 N4          6.9240   16.2160   57.4070 N.am      1 PNN1312     0.0000 
      4 C3          6.5320   15.5540   56.0950 C.3       1 PNN1312     0.0000 
      5 C11         7.7020   14.8230   55.4320 C.2       1 PNN1312     0.0000 
      6 O13         8.1730   14.0230   56.2580 O.co2     1 PNN1312     0.0000 
      7 O12         8.2330   14.9930   54.1150 O.co2     1 PNN1312     0.0000 
      8 C2          5.4370   14.6170   56.5510 C.3       1 PNN1312     0.0000 
      9 C10         5.5060   13.3280   55.6940 C.3       1 PNN1312     0.0000 
     10 C9          4.0990   15.2930   56.3860 C.3       1 PNN1312     0.0000 
     11 S1          5.5800   14.2120   58.3110 S.3       1 PNN1312     0.0000 
     12 C5          6.8340   15.4600   58.6500 C.3       1 PNN1312     0.0000 
     13 C6          6.3900   16.7900   59.3970 C.3       1 PNN1312     0.0000 
     14 N14         5.1150   16.6590   60.0040 N.am      1 PNN1312     0.0000 
     15 C15         5.0100   16.9770   61.2850 C.2       1 PNN1312     0.0000 
     16 O16         6.0350   17.0720   61.9470 O.2       1 PNN1312     0.0000 
     17 C17         3.6190   17.1610   61.8050 C.3       1 PNN1312     0.0000 
     18 C18         3.1350   15.7920   62.2190 C.ar      1 PNN1312     0.0000 
     19 C19         2.7120   15.6060   63.5460 C.ar      1 PNN1312     0.0000 
     20 C20         2.2540   14.3630   63.9730 C.ar      1 PNN1312     0.0000 
     21 C21         2.2190   13.3030   63.0850 C.ar      1 PNN1312     0.0000 
     22 C22         2.6400   13.4710   61.7630 C.ar      1 PNN1312     0.0000 
     23 C23         3.0980   14.7170   61.3270 C.ar      1 PNN1312     0.0000 
     24 H           6.1153   16.2874   55.4562 H         1 PNN1312     0.0000 
     25 H           7.6488   15.0747   58.9489 H         1 PNN1312     0.0000 
     26 H           7.1916   17.1536   59.8218 H         1 PNN1312     0.0000 
     27 H           4.3357   16.3283   59.4366 H         1 PNN1312     0.0000 
     28 H           2.9820   17.5499   61.0300 H         1 PNN1312     0.0000 
     29 H           3.6261   17.8149   62.6594 H         1 PNN1312     0.0000 
     30 H           2.7433   16.3980   64.2022 H         1 PNN1312     0.0000 
     31 H           1.9441   14.2372   64.9444 H         1 PNN1312     0.0000 
     32 H           1.8806   12.3788   63.3948 H         1 PNN1312     0.0000 
     33 H           2.6127   12.6781   61.1116 H         1 PNN1312     0.0000 
     34 H           3.4051   14.8418   60.3582 H         1 PNN1312     0.0000 
     35 H           6.3876   12.8656   55.7890 H         1 PNN1312     0.0000 
     36 H           4.8001   12.6698   55.9557 H         1 PNN1312     0.0000 
     37 H           5.3799   13.5217   54.7211 H         1 PNN1312     0.0000 
     38 H           4.0389   16.1339   56.9239 H         1 PNN1312     0.0000 
     39 H           3.9233   15.5413   55.4334 H         1 PNN1312     0.0000 
     40 H           3.3463   14.7033   56.6788 H         1 PNN1312     0.0000 
@<TRIPOS>BOND
     1    2    1 2    
     2    3    2 am   
     3   13    2 1    
     4    4    3 1    
     5   12    3 1    
     6    5    4 1    
     7    8    4 1    
     8   24    4 1    
     9    6    5 ar   
    10    7    5 ar   
    11    9    8 1    
    12   10    8 1    
    13   11    8 1    
    14   35    9 1    
    15   36    9 1    
    16   37    9 1    
    17   38   10 1    
    18   39   10 1    
    19   40   10 1    
    20   12   11 1    
    21   13   12 1    
    22   25   12 1    
    23   14   13 1    
    24   26   13 1    
    25   15   14 am   
    26   27   14 1    
    27   16   15 2    
    28   17   15 1    
    29   18   17 1    
    30   28   17 1    
    31   29   17 1    
    32   19   18 ar   
    33   23   18 ar   
    34   20   19 ar   
    35   30   19 1    
    36   21   20 ar   
    37   31   20 1    
    38   22   21 ar   
    39   32   21 1    
    40   23   22 ar   
    41   33   22 1    
    42   34   23 1    
@<TRIPOS>SUBSTRUCTURE
     1 PNN1312     1 GROUP   
@<TRIPOS>SET

