#    Name: 4jhd_ANP_3_INTS_M
#    Modification time : Tue Mar 25 05:51:34 2014

@<TRIPOS>MOLECULE
4jhd_ANP_3_INTS_M
   60     0    12     0     0
SMALL
NO_CHARGES


@<TRIPOS>ATOM
      1 N          24.0565   -9.3145    4.5765 N.am      2 SEC2        0.0000 
      2 N          22.5280   -8.6570    4.8510 N.am     10 SEL2        0.0000 
      3 N          25.5850   -9.9720    4.3020 N.am      6 SEP2        0.0000 
      4 N          23.5640   -9.4645    5.8920 N.am      2 SEC2        0.0000 
      5 N          24.6000  -10.2720    6.9330 N.am      6 SEP2        0.0000 
      6 N          22.2240   -5.5230    4.3830 N.am      2 SEC2        0.0000 
      7 N          21.6310   -6.4730    3.9070 N.am     10 SEL2        0.0000 
      8 N          22.8170   -4.5730    4.8590 N.am      6 SEP2        0.0000 
      9 N          21.7000   -6.5360    5.2305 N.am      2 SEC2        0.0000 
     10 N          21.7690   -6.5990    6.5540 N.am      6 SEP2        0.0000 
     11 NZ         24.4925   -5.4415    0.4310 N.4       3 LYC4        0.0000 
     12 NZ         23.9750   -6.6290    1.1390 N.4      11 LYL4        0.0000 
     13 NZ         25.0100   -4.2540   -0.2770 N.4       7 LYP4        0.0000 
     14 NZ         25.3030   -4.7135    1.1385 N.4       3 LYC4        0.0000 
     15 NZ         25.5960   -5.1730    2.5540 N.4      11 LYL4        0.0000 
     16 N          26.3180   -4.2405    3.0600 N.am      2 SEC2        0.0000 
     17 N          25.5960   -5.1730    2.5540 N.am     10 SEL2        0.0000 
     18 N          27.0400   -3.3080    3.5660 N.am      6 SEP2        0.0000 
     19 N          25.3030   -4.7135    1.1385 N.am      2 SEC2        0.0000 
     20 N          25.0100   -4.2540   -0.2770 N.am      6 SEP2        0.0000 
     21 N          26.4860   -9.7775   -1.1295 N.am      2 SEC2        0.0000 
     22 N          25.7580   -8.4990   -0.3710 N.am     10 SEL2        0.0000 
     23 N          27.2140  -11.0560   -1.8880 N.am      6 SEP2        0.0000 
     24 NZ         26.2425   -5.4250   -0.0890 N.4       3 LYC4        0.0000 
     25 NZ         27.4750   -6.5960    0.0990 N.4      11 LYL4        0.0000 
     26 CA         27.8580   -8.5735    3.8325 C.3       4 GLC5        0.0000 
     27 CA         28.8890   -8.6980    1.9350 C.3      12 GLL5        0.0000 
     28 CA         26.8270   -8.4490    5.7300 C.3       8 GLP5        0.0000 
     29 CA         28.7650   -9.9870    0.1400 C.3       4 GLC5        0.0000 
     30 CA         28.6410  -11.2760   -1.6550 C.3       8 GLP5        0.0000 
     31 CA         27.9245   -9.9265    4.0525 C.3       4 GLC5        0.0000 
     32 CA         29.3710   -9.9480    2.6790 C.3      12 GLL5        0.0000 
     33 CA         26.4780   -9.9050    5.4260 C.3       8 GLP5        0.0000 
     34 CA         29.1475  -11.6785    4.0940 C.3       4 GLC5        0.0000 
     35 CA         28.9240  -13.4090    5.5090 C.3       8 GLP5        0.0000 
     36 CA         28.6735   -9.0285    4.6760 C.3       4 GLC5        0.0000 
     37 CA         30.5200   -9.6080    3.6220 C.3      12 GLL5        0.0000 
     38 O          29.7020   -9.8065    5.5850 O.2       1 ALC1        0.0000 
     39 O          30.4070  -10.3920    4.8160 O.2       9 ALL1        0.0000 
     40 O          28.9970   -9.2210    6.3540 O.2       5 ALP1        0.0000 
     41 N          32.8965  -11.9005    4.4160 N.am      2 SEC2        0.0000 
     42 N          32.8430  -10.3960    3.7340 N.am     10 SEL2        0.0000 
     43 N          32.9500  -13.4050    5.0980 N.am      6 SEP2        0.0000 
     44 O          34.0940   -9.9610    3.0155 O.2       1 ALC1        0.0000 
     45 O          32.8430  -10.3960    3.7340 O.2       9 ALL1        0.0000 
     46 O          35.3450   -9.5260    2.2970 O.2       5 ALP1        0.0000 
     47 CA         35.2900  -12.4260   -0.9430 C.3       4 GLC5        0.0000 
     48 CA         33.6410  -12.9820   -1.9180 C.3      12 GLL5        0.0000 
     49 CA         36.9390  -11.8700    0.0320 C.3       8 GLP5        0.0000 
     50 CA         35.1500  -13.9595   -0.1175 C.3       4 GLC5        0.0000 
     51 CA         33.1170  -14.5460   -0.2390 C.3      12 GLL5        0.0000 
     52 CA         37.1830  -13.3730    0.0040 C.3       8 GLP5        0.0000 
     53 CA         32.2260  -14.2840   -2.2700 C.3       4 GLC5        0.0000 
     54 CA         31.3350  -14.0220   -4.3010 C.3       8 GLP5        0.0000 
     55 CA         34.3370  -11.7937    0.3170 C.3       4 GLC5        0.0000 
     56 CA         32.4530  -12.3170    0.1800 C.3      12 GLL5        0.0000 
     57 CA         35.9400  -11.4730    1.1030 C.3       8 GLP5        0.0000 
     58 CA         30.6875  -11.6953   -1.0620 C.3       4 GLC5        0.0000 
     59 CA         33.0150  -11.9120   -1.1180 C.3      12 GLL5        0.0000 
     60 CA         32.3315  -13.2345   -2.9095 C.3       4 GLC5        0.0000 
@<TRIPOS>BOND
@<TRIPOS>SUBSTRUCTURE
     1 ALC1       38 GROUP        1 X    ALC  0     ROOT ALC X 1
     2 SEC2        1 GROUP        1 X    SEC  0     **** SEC X 2
     3 LYC4       11 GROUP        1 X    LYC  0     **** LYC X 4
     4 GLC5       26 GROUP        1 X    GLC  0     **** GLC X 6
     5 ALP1       40 GROUP        1 Y    ALP  0     ROOT ALP Y 8
     6 SEP2        3 GROUP        1 Y    SEP  0     **** SEP Y 9
     7 LYP4       13 GROUP        1 Y    LYP  0     **** LYP Y 11
     8 GLP5       28 GROUP        1 Y    GLP  0     **** GLP Y 13
     9 ALL1       39 GROUP        1 Z    ALL  0     ROOT ALL Z 15
    10 SEL2        2 GROUP        1 Z    SEL  0     **** SEL Z 16
    11 LYL4       12 GROUP        1 Z    LYL  0     **** LYL Z 18
    12 GLL5       27 GROUP        1 Z    GLL  0     **** GLL Z 20
@<TRIPOS>SET

