#    Name: 4jhd_ANP_3_ligand
#    Modification time : Tue Mar 25 05:51:34 2014

@<TRIPOS>MOLECULE
4jhd_ANP_3_ligand
   43    45     1     0     0
SMALL
NO_CHARGES


@<TRIPOS>ATOM
      1 PG         22.5440   -7.6640    3.7020 P.3       1 ANP401      0.0000 
      2 O1G        22.5280   -8.6570    4.8510 O.co2     1 ANP401      0.0000 
      3 O2G        22.4080   -8.2710    2.3200 O.co2     1 ANP401      0.0000 
      4 O3G        21.6310   -6.4730    3.9070 O.co2     1 ANP401      0.0000 
      5 PB         24.9590   -6.5180    2.2840 P.3       1 ANP401      0.0000 
      6 O1B        23.9750   -6.6290    1.1390 O.co2     1 ANP401      0.0000 
      7 O2B        25.5960   -5.1730    2.5540 O.co2     1 ANP401      0.0000 
      8 N3B        24.1700   -7.0180    3.7580 N.4       1 ANP401      0.0000 
      9 PA         26.7810   -7.8670    0.5530 P.3       1 ANP401      0.0000 
     10 O1A        25.7580   -8.4990   -0.3710 O.co2     1 ANP401      0.0000 
     11 O2A        27.4750   -6.5960    0.0990 O.co2     1 ANP401      0.0000 
     12 O3A        26.1320   -7.5930    2.0120 O.3       1 ANP401      0.0000 
     13 O5'        27.8920   -8.9810    0.9410 O.3       1 ANP401      0.0000 
     14 C5'        28.8890   -8.6980    1.9350 C.3       1 ANP401      0.0000 
     15 C4'        29.3710   -9.9480    2.6790 C.3       1 ANP401      0.0000 
     16 O4'        29.8850  -10.9200    1.7650 O.3       1 ANP401      0.0000 
     17 C3'        30.5200   -9.6080    3.6220 C.3       1 ANP401      0.0000 
     18 O3'        30.4070  -10.3920    4.8160 O.3       1 ANP401      0.0000 
     19 C2'        31.7770   -9.9950    2.8690 C.3       1 ANP401      0.0000 
     20 O2'        32.8430  -10.3960    3.7340 O.3       1 ANP401      0.0000 
     21 C1'        31.2780  -11.1470    2.0160 C.3       1 ANP401      0.0000 
     22 N9         31.9610  -11.1990    0.7100 N.pl3     1 ANP401      0.0000 
     23 C8         32.1640  -10.1700   -0.1420 C.2       1 ANP401      0.0000 
     24 N7         32.8110  -10.5880   -1.2600 N.2       1 ANP401      0.0000 
     25 C5         33.0150  -11.9120   -1.1180 C.ar      1 ANP401      0.0000 
     26 C6         33.6410  -12.9820   -1.9180 C.ar      1 ANP401      0.0000 
     27 N6         34.1600  -12.6640   -3.1090 N.pl3     1 ANP401      0.0000 
     28 N1         33.6580  -14.2550   -1.4420 N.ar      1 ANP401      0.0000 
     29 C2         33.1170  -14.5460   -0.2390 C.ar      1 ANP401      0.0000 
     30 N3         32.5300  -13.6260    0.5620 N.ar      1 ANP401      0.0000 
     31 C4         32.4530  -12.3170    0.1800 C.ar      1 ANP401      0.0000 
     32 H          28.5076   -7.9860    2.6952 H         1 ANP401      0.0000 
     33 H          29.7804   -8.2160    1.4840 H         1 ANP401      0.0000 
     34 H          28.5668  -10.3464    3.2602 H         1 ANP401      0.0000 
     35 H          30.5233   -8.5711    3.7980 H         1 ANP401      0.0000 
     36 H          32.0292   -9.1929    2.2142 H         1 ANP401      0.0000 
     37 H          31.4195  -12.0611    2.5486 H         1 ANP401      0.0000 
     38 H          31.8835   -9.2458    0.0217 H         1 ANP401      0.0000 
     39 H          34.0995  -11.7012   -3.3725 H         1 ANP401      0.0000 
     40 H          34.5620  -13.4175   -3.6292 H         1 ANP401      0.0000 
     41 H          33.1537  -15.5563    0.0997 H         1 ANP401      0.0000 
     42 H          29.4955  -10.1888    5.1736 H         1 ANP401      0.0000 
     43 H          33.6795  -10.1403    3.2494 H         1 ANP401      0.0000 
@<TRIPOS>BOND
     1    2    1 ar   
     2    3    1 ar   
     3    4    1 ar   
     4    8    1 1    
     5    6    5 ar   
     6    7    5 ar   
     7    8    5 1    
     8   12    5 1    
     9   10    9 ar   
    10   11    9 ar   
    11   12    9 1    
    12   13    9 1    
    13   14   13 1    
    14   15   14 1    
    15   32   14 1    
    16   33   14 1    
    17   16   15 1    
    18   17   15 1    
    19   34   15 1    
    20   21   16 1    
    21   18   17 1    
    22   19   17 1    
    23   35   17 1    
    24   42   18 1    
    25   20   19 1    
    26   21   19 1    
    27   36   19 1    
    28   43   20 1    
    29   22   21 1    
    30   37   21 1    
    31   23   22 1    
    32   31   22 1    
    33   24   23 2    
    34   38   23 1    
    35   25   24 1    
    36   26   25 ar   
    37   31   25 ar   
    38   27   26 1    
    39   28   26 ar   
    40   39   27 1    
    41   40   27 1    
    42   29   28 ar   
    43   30   29 ar   
    44   41   29 1    
    45   31   30 ar   
@<TRIPOS>SUBSTRUCTURE
     1 ANP401      1 GROUP   
@<TRIPOS>SET

