#    Name: 1ajv_NMB_1_INTS_M
#    Modification time : Mon Mar 24 18:28:37 2014

@<TRIPOS>MOLECULE
1ajv_NMB_1_INTS_M
  107     0     9     0     0
SMALL
NO_CHARGES


@<TRIPOS>ATOM
      1 CA         12.3445   20.6955    3.8340 C.3       3 GLC5        0.0000 
      2 CA         13.7180   21.8820    4.7150 C.3       9 GLL5        0.0000 
      3 CA         10.9710   19.5090    2.9530 C.3       6 GLP5        0.0000 
      4 CA         15.5450   22.5400    2.6990 C.3       3 GLC5        0.0000 
      5 CA         13.8660   23.2220    4.0190 C.3       9 GLL5        0.0000 
      6 CA         17.2240   21.8580    1.3790 C.3       6 GLP5        0.0000 
      7 CA         12.9820   22.4100    2.1215 C.3       3 GLC5        0.0000 
      8 CA         12.0980   21.5980    0.2240 C.3       6 GLP5        0.0000 
      9 CA          8.8490   22.4660    6.0935 C.3       3 GLC5        0.0000 
     10 CA         10.0970   23.9500    6.4360 C.3       9 GLL5        0.0000 
     11 CA          7.6010   20.9820    5.7510 C.3       6 GLP5        0.0000 
     12 CA          6.7300   26.2980    9.4035 C.3       3 GLC5        0.0000 
     13 CA          8.2300   26.8970    7.9290 C.3       9 GLL5        0.0000 
     14 CA          5.2300   25.6990   10.8780 C.3       6 GLP5        0.0000 
     15 CA          8.6160   29.2710    9.4335 C.3       3 GLC5        0.0000 
     16 CA          9.1850   27.3780    8.8690 C.3       9 GLL5        0.0000 
     17 CA          8.0470   31.1640    9.9980 C.3       6 GLP5        0.0000 
     18 CA          8.2440   26.6945   10.5745 C.3       3 GLC5        0.0000 
     19 CA          7.3030   26.0110   12.2800 C.3       6 GLP5        0.0000 
     20 CA         10.9880   26.6975   10.8375 C.3       3 GLC5        0.0000 
     21 CA         10.4310   26.7390    9.0090 C.3       9 GLL5        0.0000 
     22 CA         11.5450   26.6560   12.6660 C.3       6 GLP5        0.0000 
     23 CA         12.4625   27.2605    9.3050 C.3       3 GLC5        0.0000 
     24 CA         14.4940   27.7820    9.6010 C.3       6 GLP5        0.0000 
     25 CA         12.4900   25.1980    9.2400 C.3       3 GLC5        0.0000 
     26 CA         10.7160   25.6130    8.2060 C.3       9 GLL5        0.0000 
     27 CA         14.2640   24.7830   10.2740 C.3       6 GLP5        0.0000 
     28 N          10.1070   20.0210    5.3975 N.am      2 SEC2        0.0000 
     29 N          11.1950   20.9190    5.6210 N.am      8 SEL2        0.0000 
     30 N           9.0190   19.1230    5.1740 N.am      5 SEP2        0.0000 
     31 CA         16.6865   15.9315    3.5635 C.3       3 GLC5        0.0000 
     32 CA         17.7110   17.8480    3.8820 C.3       9 GLL5        0.0000 
     33 CA         15.6620   14.0150    3.2450 C.3       6 GLP5        0.0000 
     34 CA         17.2810   15.4320    2.4380 C.3       3 GLC5        0.0000 
     35 CA         17.8040   17.3340    2.5690 C.3       9 GLL5        0.0000 
     36 CA         16.7580   13.5300    2.3070 C.3       6 GLP5        0.0000 
     37 CA         12.8570   20.5015    9.8505 C.3       3 GLC5        0.0000 
     38 CA         14.7480   20.9690    8.9400 C.3       9 GLL5        0.0000 
     39 CA         10.9660   20.0340   10.7610 C.3       6 GLP5        0.0000 
     40 CA         15.1410   19.6640   11.4580 C.3       3 GLC5        0.0000 
     41 CA         15.6870   20.1700    9.6510 C.3       9 GLL5        0.0000 
     42 CA         14.5950   19.1580   13.2650 C.3       6 GLP5        0.0000 
     43 N          15.2305   25.4140    4.3590 N.am      2 SEC2        0.0000 
     44 N          15.1850   23.6960    4.1710 N.am      8 SEL2        0.0000 
     45 N          15.2760   27.1320    4.5470 N.am      5 SEP2        0.0000 
     46 O          15.5730   24.6270    3.2110 O.2       1 ALC1        0.0000 
     47 O          15.1850   23.6960    4.1710 O.2       7 ALL1        0.0000 
     48 O          15.9610   25.5580    2.2510 O.2       4 ALP1        0.0000 
     49 O          14.6305   24.2725    2.7810 O.2       1 ALC1        0.0000 
     50 O          14.0760   24.8490    1.3910 O.2       4 ALP1        0.0000 
     51 N          14.2790   26.3120    4.1975 N.am      2 SEC2        0.0000 
     52 N          13.2820   25.4920    3.8480 N.am      8 SEL2        0.0000 
     53 O          13.6790   25.1705    2.6195 O.2       1 ALC1        0.0000 
     54 O          13.2820   25.4920    3.8480 O.2       7 ALL1        0.0000 
     55 CA          9.2065   22.0605    4.6085 C.3       3 GLC5        0.0000 
     56 CA         10.8120   23.1390    3.4660 C.3       9 GLL5        0.0000 
     57 CA         10.8915   21.3240    3.2095 C.3       3 GLC5        0.0000 
     58 CA         11.4550   22.3685    1.8450 C.3       3 GLC5        0.0000 
     59 N          11.4680   20.7865    8.6330 N.am      2 SEC2        0.0000 
     60 N          11.5630   21.9660    7.8210 N.am      8 SEL2        0.0000 
     61 N          11.3730   19.6070    9.4450 N.am      5 SEP2        0.0000 
     62 CA         16.6095   21.4975    3.5325 C.3       3 GLC5        0.0000 
     63 CA         14.9800   21.0170    4.5480 C.3       9 GLL5        0.0000 
     64 CA         18.2390   21.9780    2.5170 C.3       6 GLP5        0.0000 
     65 CA         10.5376   24.9372    9.7981 C.3       3 GLC5        0.0000 
     66 CA         10.7410   23.8180   11.2220 C.3       6 GLP5        0.0000 
     67 CA         11.3365   27.5394    7.6012 C.3       3 GLC5        0.0000 
     68 CA         12.4110   28.7430    6.6300 C.3       6 GLP5        0.0000 
     69 CA         17.7185   20.1390    3.2785 C.3       3 GLC5        0.0000 
     70 CA         16.6850   18.7520    4.1980 C.3       9 GLL5        0.0000 
     71 CA         19.7873   18.1355    3.1023 C.3       3 GLC5        0.0000 
     72 CA         21.8170   18.6800    2.9790 C.3       6 GLP5        0.0000 
     73 CA         18.4370   17.1080    0.6790 C.3       3 GLC5        0.0000 
     74 CA         19.5320   16.6860   -0.7190 C.3       6 GLP5        0.0000 
     75 CA         16.7850   20.0832    1.7261 C.3       3 GLC5        0.0000 
     76 CA         16.8800   17.7260    1.5850 C.3       9 GLL5        0.0000 
     77 CA         15.4095   17.6430    0.3282 C.3       3 GLC5        0.0000 
     78 CA         15.8660   18.6320    1.9120 C.3       9 GLL5        0.0000 
     79 CA         14.4460   17.1070   -1.0920 C.3       6 GLP5        0.0000 
     80 CA         15.2935   16.4975    1.5453 C.3       3 GLC5        0.0000 
     81 CA         14.2140   14.8160    1.3420 C.3       6 GLP5        0.0000 
     82 CA         15.8938   21.9468   10.1668 C.3       3 GLC5        0.0000 
     83 CA         15.1850   21.8560    7.9250 C.3       9 GLL5        0.0000 
     84 CA         16.8210   22.4810   11.9010 C.3       6 GLP5        0.0000 
     85 CA         14.4920   23.2028    9.2576 C.3       3 GLC5        0.0000 
     86 CA         13.8213   19.4348    8.5338 C.3       3 GLC5        0.0000 
     87 CA         12.4250   18.3000    7.7720 C.3       6 GLP5        0.0000 
     88 CA         16.5975   21.3480   10.6997 C.3       3 GLC5        0.0000 
     89 CA         18.1013   23.0662    8.0853 C.3       3 GLC5        0.0000 
     90 CA         17.4950   21.1470    8.3360 C.3       9 GLL5        0.0000 
     91 CA         19.1760   24.5900    8.1870 C.3       6 GLP5        0.0000 
     92 CA         16.9238   22.0117    9.9423 C.3       3 GLC5        0.0000 
     93 CA         16.5580   21.9380    7.6310 C.3       9 GLL5        0.0000 
     94 CA          7.7848   22.4690    4.3115 C.3       3 GLC5        0.0000 
     95 CA          8.6380   24.0960    2.9990 C.3       9 GLL5        0.0000 
     96 CA          8.7595   24.0793    0.8582 C.3       3 GLC5        0.0000 
     97 CA          8.6070   23.4620   -1.0360 C.3       6 GLP5        0.0000 
     98 CA          9.8975   26.2755    0.7492 C.3       3 GLC5        0.0000 
     99 CA          9.1860   25.2970    2.5060 C.3       9 GLL5        0.0000 
    100 CA         10.9960   26.8010   -0.6380 C.3       6 GLP5        0.0000 
    101 CA          8.1728   24.7602    0.3027 C.3       3 GLC5        0.0000 
    102 CA          8.4120   26.2030    1.7670 C.3       9 GLL5        0.0000 
    103 CA          6.6129   22.6230    1.8702 C.3       3 GLC5        0.0000 
    104 CA          6.5070   24.7220    2.0070 C.3       9 GLL5        0.0000 
    105 CA          5.9880   20.9070    1.3010 C.3       6 GLP5        0.0000 
    106 CA          7.7550   23.8655    0.6700 C.3       3 GLC5        0.0000 
    107 CA          7.2990   23.8160    2.7450 C.3       9 GLL5        0.0000 
@<TRIPOS>BOND
@<TRIPOS>SUBSTRUCTURE
     1 ALC1       46 GROUP        1 X    ALC  0     ROOT ALC X 1
     2 SEC2       28 GROUP        1 X    SEC  0     **** SEC X 2
     3 GLC5        1 GROUP        1 X    GLC  0     **** GLC X 6
     4 ALP1       48 GROUP        1 Y    ALP  0     ROOT ALP Y 8
     5 SEP2       30 GROUP        1 Y    SEP  0     **** SEP Y 9
     6 GLP5        3 GROUP        1 Y    GLP  0     **** GLP Y 13
     7 ALL1       47 GROUP        1 Z    ALL  0     ROOT ALL Z 15
     8 SEL2       29 GROUP        1 Z    SEL  0     **** SEL Z 16
     9 GLL5        2 GROUP        1 Z    GLL  0     **** GLL Z 20
@<TRIPOS>SET

