#    Name: 1ajv_NMB_1_ligand
#    Modification time : Mon Mar 24 18:28:37 2014

@<TRIPOS>MOLECULE
1ajv_NMB_1_ligand
   75    79     1     0     0
SMALL
NO_CHARGES


@<TRIPOS>ATOM
      1 N01        11.2880   23.4910    5.8630 N.pl3     1 NMB501      0.0000 
      2 S02        11.7520   21.9940    6.4090 S.o2      1 NMB501      0.0000 
      3 N03        13.3390   22.0510    6.1430 N.pl3     1 NMB501      0.0000 
      4 C04        13.7180   21.8820    4.7150 C.3       1 NMB501      0.0000 
      5 C05        13.8660   23.2220    4.0190 C.3       1 NMB501      0.0000 
      6 C06        12.9640   24.3140    4.5500 C.3       1 NMB501      0.0000 
      7 C07        11.4700   24.0310    4.5340 C.3       1 NMB501      0.0000 
      8 C08        10.0970   23.9500    6.4360 C.3       1 NMB501      0.0000 
      9 C09         9.7590   25.1350    7.2730 C.ar      1 NMB501      0.0000 
     10 C10         8.5260   25.7840    7.1410 C.ar      1 NMB501      0.0000 
     11 C11         8.2300   26.8970    7.9290 C.ar      1 NMB501      0.0000 
     12 C12         9.1850   27.3780    8.8690 C.ar      1 NMB501      0.0000 
     13 C13        10.4310   26.7390    9.0090 C.ar      1 NMB501      0.0000 
     14 C14        10.7160   25.6130    8.2060 C.ar      1 NMB501      0.0000 
     15 O15        11.1950   20.9190    5.6210 O.2       1 NMB501      0.0000 
     16 O16        14.7620   20.0210    3.5210 O.3       1 NMB501      0.0000 
     17 C17        15.7580   19.1500    3.2110 C.ar      1 NMB501      0.0000 
     18 C18        16.6850   18.7520    4.1980 C.ar      1 NMB501      0.0000 
     19 C19        17.7110   17.8480    3.8820 C.ar      1 NMB501      0.0000 
     20 C20        17.8040   17.3340    2.5690 C.ar      1 NMB501      0.0000 
     21 C21        16.8800   17.7260    1.5850 C.ar      1 NMB501      0.0000 
     22 C22        15.8660   18.6320    1.9120 C.ar      1 NMB501      0.0000 
     23 C23        14.1990   22.6960    7.1600 C.3       1 NMB501      0.0000 
     24 C24        15.1850   21.8560    7.9250 C.ar      1 NMB501      0.0000 
     25 C25        14.7480   20.9690    8.9400 C.ar      1 NMB501      0.0000 
     26 C26        15.6870   20.1700    9.6510 C.ar      1 NMB501      0.0000 
     27 C27        17.0610   20.2600    9.3460 C.ar      1 NMB501      0.0000 
     28 C28        17.4950   21.1470    8.3360 C.ar      1 NMB501      0.0000 
     29 C29        16.5580   21.9380    7.6310 C.ar      1 NMB501      0.0000 
     30 O30        15.1850   23.6960    4.1710 O.3       1 NMB501      0.0000 
     31 O31        13.2820   25.4920    3.8480 O.3       1 NMB501      0.0000 
     32 C32        10.8120   23.1390    3.4660 C.3       1 NMB501      0.0000 
     33 O33         9.3880   23.2350    3.7130 O.3       1 NMB501      0.0000 
     34 C34         8.6380   24.0960    2.9990 C.ar      1 NMB501      0.0000 
     35 C35         9.1860   25.2970    2.5060 C.ar      1 NMB501      0.0000 
     36 C36         8.4120   26.2030    1.7670 C.ar      1 NMB501      0.0000 
     37 C37         7.0650   25.9140    1.5160 C.ar      1 NMB501      0.0000 
     38 C38         6.5070   24.7220    2.0070 C.ar      1 NMB501      0.0000 
     39 C39         7.2990   23.8160    2.7450 C.ar      1 NMB501      0.0000 
     40 O40        11.5630   21.9660    7.8210 O.2       1 NMB501      0.0000 
     41 C41        14.9800   21.0170    4.5480 C.3       1 NMB501      0.0000 
     42 H          12.8937   21.3401    4.2026 H         1 NMB501      0.0000 
     43 H          13.6428   23.0907    2.9593 H         1 NMB501      0.0000 
     44 H          13.2577   24.4640    5.6238 H         1 NMB501      0.0000 
     45 H          10.9612   25.0227    4.5368 H         1 NMB501      0.0000 
     46 H           9.5975   23.0161    7.0281 H         1 NMB501      0.0000 
     47 H           9.2538   23.9525    5.5635 H         1 NMB501      0.0000 
     48 H           7.8376   25.4383    6.4610 H         1 NMB501      0.0000 
     49 H           7.3313   27.3756    7.8408 H         1 NMB501      0.0000 
     50 H           8.9572   28.1936    9.4428 H         1 NMB501      0.0000 
     51 H          11.1153   27.0803    9.6758 H         1 NMB501      0.0000 
     52 H          11.6168   25.1366    8.2948 H         1 NMB501      0.0000 
     53 H          16.6057   19.1267    5.1485 H         1 NMB501      0.0000 
     54 H          18.3850   17.5621    4.5900 H         1 NMB501      0.0000 
     55 H          18.5506   16.6718    2.3361 H         1 NMB501      0.0000 
     56 H          16.9513   17.3498    0.6380 H         1 NMB501      0.0000 
     57 H          15.1895   18.9235    1.1915 H         1 NMB501      0.0000 
     58 H          13.5404   23.2322    7.9109 H         1 NMB501      0.0000 
     59 H          14.7686   23.5465    6.6729 H         1 NMB501      0.0000 
     60 H          13.7542   20.9007    9.1647 H         1 NMB501      0.0000 
     61 H          15.3611   19.5353   10.3786 H         1 NMB501      0.0000 
     62 H          17.7371   19.6892    9.8504 H         1 NMB501      0.0000 
     63 H          18.4904   21.2182    8.1130 H         1 NMB501      0.0000 
     64 H          16.8867   22.5770    6.8983 H         1 NMB501      0.0000 
     65 H          11.1747   22.1361    3.5969 H         1 NMB501      0.0000 
     66 H          11.0776   23.5230    2.4983 H         1 NMB501      0.0000 
     67 H          10.1786   25.5116    2.6945 H         1 NMB501      0.0000 
     68 H           8.8280   27.0665    1.4150 H         1 NMB501      0.0000 
     69 H           6.4895   26.5653    0.9788 H         1 NMB501      0.0000 
     70 H           5.5211   24.5064    1.8303 H         1 NMB501      0.0000 
     71 H           6.8756   22.9467    3.0929 H         1 NMB501      0.0000 
     72 H          15.1980   20.5545    5.5143 H         1 NMB501      0.0000 
     73 H          15.8089   21.6819    4.2912 H         1 NMB501      0.0000 
     74 H          15.3074   24.3611    3.4343 H         1 NMB501      0.0000 
     75 H          13.5656   25.1835    2.9400 H         1 NMB501      0.0000 
@<TRIPOS>BOND
     1    2    1 1    
     2    7    1 1    
     3    8    1 1    
     4    3    2 1    
     5   15    2 2    
     6   40    2 2    
     7    4    3 1    
     8   23    3 1    
     9    5    4 1    
    10   41    4 1    
    11   42    4 1    
    12    6    5 1    
    13   30    5 1    
    14   43    5 1    
    15    7    6 1    
    16   31    6 1    
    17   44    6 1    
    18   32    7 1    
    19   45    7 1    
    20    9    8 1    
    21   46    8 1    
    22   47    8 1    
    23   10    9 ar   
    24   14    9 ar   
    25   11   10 ar   
    26   48   10 1    
    27   12   11 ar   
    28   49   11 1    
    29   13   12 ar   
    30   50   12 1    
    31   14   13 ar   
    32   51   13 1    
    33   52   14 1    
    34   17   16 1    
    35   41   16 1    
    36   18   17 ar   
    37   22   17 ar   
    38   19   18 ar   
    39   53   18 1    
    40   20   19 ar   
    41   54   19 1    
    42   21   20 ar   
    43   55   20 1    
    44   22   21 ar   
    45   56   21 1    
    46   57   22 1    
    47   24   23 1    
    48   58   23 1    
    49   59   23 1    
    50   25   24 ar   
    51   29   24 ar   
    52   26   25 ar   
    53   60   25 1    
    54   27   26 ar   
    55   61   26 1    
    56   28   27 ar   
    57   62   27 1    
    58   29   28 ar   
    59   63   28 1    
    60   64   29 1    
    61   74   30 1    
    62   75   31 1    
    63   33   32 1    
    64   65   32 1    
    65   66   32 1    
    66   34   33 1    
    67   35   34 ar   
    68   39   34 ar   
    69   36   35 ar   
    70   67   35 1    
    71   37   36 ar   
    72   68   36 1    
    73   38   37 ar   
    74   69   37 1    
    75   39   38 ar   
    76   70   38 1    
    77   71   39 1    
    78   72   41 1    
    79   73   41 1    
@<TRIPOS>SUBSTRUCTURE
     1 NMB501      1 GROUP   
@<TRIPOS>SET

