#    Name: 4iva_1J5_1_INTS_M
#    Modification time : Tue Mar 25 04:41:39 2014

@<TRIPOS>MOLECULE
4iva_1J5_1_INTS_M
   57     0     9     0     0
SMALL
NO_CHARGES


@<TRIPOS>ATOM
      1 CA        -18.9760  -11.1800   -9.8505 C.3       3 GLC5        0.0000 
      2 CA        -18.8070  -11.7080  -11.9520 C.3       9 GLL5        0.0000 
      3 CA        -19.1450  -10.6520   -7.7490 C.3       6 GLP5        0.0000 
      4 N         -17.0875  -11.4735  -15.0180 N.am      2 SEC2        0.0000 
      5 N         -16.9600  -12.0540  -13.4550 N.am      8 SEL2        0.0000 
      6 N         -17.2150  -10.8930  -16.5810 N.am      5 SEP2        0.0000 
      7 CA        -17.8735   -8.5055  -14.2675 C.3       3 GLC5        0.0000 
      8 CA        -16.9680   -7.9100  -12.3450 C.3       9 GLL5        0.0000 
      9 CA        -18.7790   -9.1010  -16.1900 C.3       6 GLP5        0.0000 
     10 CA        -17.6425   -5.0035  -13.9450 C.3       3 GLC5        0.0000 
     11 CA        -17.3070   -6.5800  -12.6070 C.3       9 GLL5        0.0000 
     12 CA        -17.9780   -3.4270  -15.2830 C.3       6 GLP5        0.0000 
     13 N         -17.0555   -4.3930  -13.0970 N.am      2 SEC2        0.0000 
     14 N         -16.4960   -5.5890  -12.3140 N.am      8 SEL2        0.0000 
     15 N         -17.6150   -3.1970  -13.8800 N.am      5 SEP2        0.0000 
     16 CA        -15.4870   -4.8215  -10.0745 C.3       3 GLC5        0.0000 
     17 CA        -15.3160   -5.8200  -11.7370 C.3       9 GLL5        0.0000 
     18 CA        -15.6580   -3.8230   -8.4120 C.3       6 GLP5        0.0000 
     19 CA        -16.3705   -3.8925  -11.7625 C.3       3 GLC5        0.0000 
     20 CA        -17.4250   -1.9650  -11.7880 C.3       6 GLP5        0.0000 
     21 CA        -14.1575   -7.1575   -8.8330 C.3       3 GLC5        0.0000 
     22 CA        -13.5590   -6.9670  -10.8100 C.3       9 GLL5        0.0000 
     23 CA        -14.7560   -7.3480   -6.8560 C.3       6 GLP5        0.0000 
     24 CA        -12.3585   -4.2340  -12.0955 C.3       3 GLC5        0.0000 
     25 CA        -13.2890   -5.6470  -10.8010 C.3       9 GLL5        0.0000 
     26 CA        -11.4280   -2.8210  -13.3900 C.3       6 GLP5        0.0000 
     27 O         -14.4885   -3.4795  -11.4035 O.2       1 ALC1        0.0000 
     28 O         -14.3410   -4.9480  -11.3510 O.2       7 ALL1        0.0000 
     29 O         -14.6360   -2.0110  -11.4560 O.2       4 ALP1        0.0000 
     30 CA        -16.4275   -9.8615   -8.8880 C.3       3 GLC5        0.0000 
     31 CA        -14.4960  -10.2910   -9.5540 C.3       9 GLL5        0.0000 
     32 CA        -18.3590   -9.4320   -8.2220 C.3       6 GLP5        0.0000 
     33 CA        -14.4280   -9.4910   -7.9030 C.3       3 GLC5        0.0000 
     34 CA        -14.3600   -8.6910   -6.2520 C.3       6 GLP5        0.0000 
     35 CA        -17.6010   -7.1456  -10.5349 C.3       3 GLC5        0.0000 
     36 CA        -15.7340   -8.2230  -11.7360 C.3       9 GLL5        0.0000 
     37 CA        -18.3730   -6.9680   -8.7460 C.3       6 GLP5        0.0000 
     38 CA        -15.7350   -7.8521  -13.6654 C.3       3 GLC5        0.0000 
     39 CA        -14.6410   -8.3810  -15.0070 C.3       6 GLP5        0.0000 
     40 CA        -16.7368   -6.7220  -10.1648 C.3       3 GLC5        0.0000 
     41 CA        -14.8850   -7.1320  -11.4300 C.3       9 GLL5        0.0000 
     42 CA        -14.5410   -5.0650   -9.6088 C.3       3 GLC5        0.0000 
     43 CA        -12.3950   -5.6505   -9.2178 C.3       3 GLC5        0.0000 
     44 CA        -11.3660   -4.9940   -7.6300 C.3       6 GLP5        0.0000 
     45 CA        -14.3122   -9.3737  -13.2315 C.3       3 GLC5        0.0000 
     46 CA        -13.3240  -10.2600  -11.8410 C.3       9 GLL5        0.0000 
     47 CA        -12.8135  -10.0307   -7.8663 C.3       3 GLC5        0.0000 
     48 CA        -12.1140  -11.0580   -9.7820 C.3       9 GLL5        0.0000 
     49 CA        -12.8520   -8.8940   -6.3270 C.3       6 GLP5        0.0000 
     50 CA        -15.2270  -12.0335   -8.2622 C.3       3 GLC5        0.0000 
     51 CA        -13.4360  -11.2770   -9.0290 C.3       9 GLL5        0.0000 
     52 CA        -16.4880  -13.2830   -7.2330 C.3       6 GLP5        0.0000 
     53 CA         -9.9767  -10.7808  -10.4584 C.3       3 GLC5        0.0000 
     54 CA        -11.1200  -11.9960   -9.2280 C.3       9 GLL5        0.0000 
     55 CA         -8.2980   -9.9870  -11.0310 C.3       6 GLP5        0.0000 
     56 CA        -13.7626   -6.3653  -12.8703 C.3       3 GLC5        0.0000 
     57 CA        -13.2630   -6.3390  -14.5460 C.3       6 GLP5        0.0000 
@<TRIPOS>BOND
@<TRIPOS>SUBSTRUCTURE
     1 ALC1       27 GROUP        1 X    ALC  0     ROOT ALC X 1
     2 SEC2        4 GROUP        1 X    SEC  0     **** SEC X 2
     3 GLC5        1 GROUP        1 X    GLC  0     **** GLC X 6
     4 ALP1       29 GROUP        1 Y    ALP  0     ROOT ALP Y 8
     5 SEP2        6 GROUP        1 Y    SEP  0     **** SEP Y 9
     6 GLP5        3 GROUP        1 Y    GLP  0     **** GLP Y 13
     7 ALL1       28 GROUP        1 Z    ALL  0     ROOT ALL Z 15
     8 SEL2        5 GROUP        1 Z    SEL  0     **** SEL Z 16
     9 GLL5        2 GROUP        1 Z    GLL  0     **** GLL Z 20
@<TRIPOS>SET

