#    Name: 4iva_1J5_1_ligand
#    Modification time : Tue Mar 25 04:41:39 2014

@<TRIPOS>MOLECULE
4iva_1J5_1_ligand
   42    45     1     0     0
SMALL
NO_CHARGES


@<TRIPOS>ATOM
      1 C1        -18.8070  -11.7080  -11.9520 C.3       1 1J51201     0.0000 
      2 C2        -17.3040  -11.5290  -12.1850 C.3       1 1J51201     0.0000 
      3 O4        -16.9600  -12.0540  -13.4550 O.3       1 1J51201     0.0000 
      4 C5        -16.8930  -10.0720  -12.1260 C.2       1 1J51201     0.0000 
      5 N6        -15.7090   -9.6050  -11.6210 N.pl3     1 1J51201     0.0000 
      6 C7        -15.7340   -8.2230  -11.7360 C.ar      1 1J51201     0.0000 
      7 C8        -16.9680   -7.9100  -12.3450 C.ar      1 1J51201     0.0000 
      8 N9        -17.6140   -9.0800  -12.5570 N.2       1 1J51201     0.0000 
      9 C10       -17.3070   -6.5800  -12.6070 C.ar      1 1J51201     0.0000 
     10 N11       -16.4960   -5.5890  -12.3140 N.ar      1 1J51201     0.0000 
     11 C12       -15.3160   -5.8200  -11.7370 C.ar      1 1J51201     0.0000 
     12 C13       -14.8850   -7.1320  -11.4300 C.ar      1 1J51201     0.0000 
     13 C14       -13.5590   -6.9670  -10.8100 C.2       1 1J51201     0.0000 
     14 C15       -13.2890   -5.6470  -10.8010 C.2       1 1J51201     0.0000 
     15 N16       -14.3410   -4.9480  -11.3510 N.pl3     1 1J51201     0.0000 
     16 C18       -14.6430  -10.4730  -11.0710 C.3       1 1J51201     0.0000 
     17 C20       -13.3240  -10.2600  -11.8410 C.3       1 1J51201     0.0000 
     18 C21       -12.2680  -11.2480  -11.3050 C.3       1 1J51201     0.0000 
     19 C22       -12.1140  -11.0580   -9.7820 C.3       1 1J51201     0.0000 
     20 C24       -13.4360  -11.2770   -9.0290 C.3       1 1J51201     0.0000 
     21 C25       -14.4960  -10.2910   -9.5540 C.3       1 1J51201     0.0000 
     22 C26       -11.1200  -11.9960   -9.2280 C.1       1 1J51201     0.0000 
     23 N27       -10.3860  -12.7500   -8.7930 N.1       1 1J51201     0.0000 
     24 H         -16.7803  -12.0614  -11.3963 H         1 1J51201     0.0000 
     25 H         -18.2451   -6.4051  -13.0516 H         1 1J51201     0.0000 
     26 H         -13.0551   -7.6918  -10.5026 H         1 1J51201     0.0000 
     27 H         -12.4792   -5.2334  -10.4615 H         1 1J51201     0.0000 
     28 H         -14.3753   -3.9885  -11.4452 H         1 1J51201     0.0000 
     29 H         -14.9422  -11.5296  -11.2437 H         1 1J51201     0.0000 
     30 H         -12.9794   -9.2511  -11.6857 H         1 1J51201     0.0000 
     31 H         -13.4886  -10.4481  -12.8890 H         1 1J51201     0.0000 
     32 H         -11.3212  -11.0533  -11.7859 H         1 1J51201     0.0000 
     33 H         -12.5901  -12.2584  -11.5072 H         1 1J51201     0.0000 
     34 H         -11.7907  -10.0397   -9.5934 H         1 1J51201     0.0000 
     35 H         -13.2801  -11.1038   -7.9736 H         1 1J51201     0.0000 
     36 H         -13.7784  -12.2889   -9.1932 H         1 1J51201     0.0000 
     37 H         -15.4409  -10.4958   -9.0743 H         1 1J51201     0.0000 
     38 H         -14.1785   -9.2814   -9.3423 H         1 1J51201     0.0000 
     39 H         -19.0754  -12.6709  -11.9818 H         1 1J51201     0.0000 
     40 H         -19.0897  -11.3523  -11.0612 H         1 1J51201     0.0000 
     41 H         -19.3494  -11.2310  -12.6436 H         1 1J51201     0.0000 
     42 H         -17.8342  -12.2505  -13.8991 H         1 1J51201     0.0000 
@<TRIPOS>BOND
     1    2    1 1    
     2   39    1 1    
     3   40    1 1    
     4   41    1 1    
     5    3    2 1    
     6    4    2 1    
     7   24    2 1    
     8   42    3 1    
     9    5    4 1    
    10    8    4 2    
    11    6    5 1    
    12   16    5 1    
    13    7    6 ar   
    14   12    6 ar   
    15    8    7 1    
    16    9    7 ar   
    17   10    9 ar   
    18   25    9 1    
    19   11   10 ar   
    20   12   11 ar   
    21   15   11 1    
    22   13   12 1    
    23   14   13 2    
    24   26   13 1    
    25   15   14 1    
    26   27   14 1    
    27   28   15 1    
    28   17   16 1    
    29   21   16 1    
    30   29   16 1    
    31   18   17 1    
    32   30   17 1    
    33   31   17 1    
    34   19   18 1    
    35   32   18 1    
    36   33   18 1    
    37   20   19 1    
    38   22   19 1    
    39   34   19 1    
    40   21   20 1    
    41   35   20 1    
    42   36   20 1    
    43   37   21 1    
    44   38   21 1    
    45   23   22 3    
@<TRIPOS>SUBSTRUCTURE
     1 1J51201     1 GROUP   
@<TRIPOS>SET

