#    Name: 2rew_REW_2_INTS_M
#    Modification time : Mon Mar 24 23:49:29 2014

@<TRIPOS>MOLECULE
2rew_REW_2_INTS_M
  107     0     6     0     0
SMALL
NO_CHARGES


@<TRIPOS>ATOM
      1 CA        -27.3545   21.0720    4.4870 C.3       2 GLC5        0.0000 
      2 CA        -27.9220   19.4970    3.2860 C.3       6 GLL5        0.0000 
      3 CA        -26.7870   22.6470    5.6880 C.3       4 GLP5        0.0000 
      4 CA        -27.1280   16.9305    5.2355 C.3       2 GLC5        0.0000 
      5 CA        -27.5800   18.1630    3.5380 C.3       6 GLL5        0.0000 
      6 CA        -26.6760   15.6980    6.9330 C.3       4 GLP5        0.0000 
      7 CA        -27.3030   18.1870    1.4805 C.3       2 GLC5        0.0000 
      8 CA        -27.0260   18.2110   -0.5770 C.3       4 GLP5        0.0000 
      9 CA        -28.3955   16.7830    5.4815 C.3       2 GLC5        0.0000 
     10 CA        -28.5490   17.1650    3.5610 C.3       6 GLL5        0.0000 
     11 CA        -28.2420   16.4010    7.4020 C.3       4 GLP5        0.0000 
     12 CA        -27.7105   15.3750    2.7175 C.3       2 GLC5        0.0000 
     13 CA        -26.8720   13.5850    1.8740 C.3       4 GLP5        0.0000 
     14 CA        -30.8750   16.6010    1.3210 C.3       2 GLC5        0.0000 
     15 CA        -30.9230   16.3730    3.4160 C.3       6 GLL5        0.0000 
     16 CA        -30.8270   16.8290   -0.7740 C.3       4 GLP5        0.0000 
     17 CA        -32.5020   16.3145    7.7635 C.3       2 GLC5        0.0000 
     18 CA        -32.1840   16.0010    5.7580 C.3       6 GLL5        0.0000 
     19 CA        -32.8200   16.6280    9.7690 C.3       4 GLP5        0.0000 
     20 CA        -19.3165   15.9930   10.3105 C.3       2 GLC5        0.0000 
     21 CA        -21.5000   15.9410   10.8140 C.3       6 GLL5        0.0000 
     22 CA        -17.1330   16.0450    9.8070 C.3       4 GLP5        0.0000 
     23 CA        -20.5905   14.3810   11.7290 C.3       2 GLC5        0.0000 
     24 CA        -19.6810   12.8210   12.6440 C.3       4 GLP5        0.0000 
     25 CA        -23.2200   14.0545    9.1605 C.3       2 GLC5        0.0000 
     26 CA        -22.0520   15.8550    9.5370 C.3       6 GLL5        0.0000 
     27 CA        -24.3880   12.2540    8.7840 C.3       4 GLP5        0.0000 
     28 CA        -21.0035   14.5805    8.4265 C.3       2 GLC5        0.0000 
     29 CA        -19.9550   13.3060    7.3160 C.3       4 GLP5        0.0000 
     30 N         -33.8795   14.8325    3.3050 N.am      1 SEC2        0.0000 
     31 N         -34.0840   15.6190    4.4130 N.am      5 SEL2        0.0000 
     32 N         -33.6750   14.0460    2.1970 N.am      3 SEP2        0.0000 
     33 N         -35.1385   15.7370    3.7200 N.am      1 SEC2        0.0000 
     34 N         -36.1930   15.8550    3.0270 N.am      3 SEP2        0.0000 
     35 N         -33.3055   18.9175    5.7625 N.am      1 SEC2        0.0000 
     36 N         -33.7390   17.6320    5.2730 N.am      5 SEL2        0.0000 
     37 N         -32.8720   20.2030    6.2520 N.am      3 SEP2        0.0000 
     38 CA        -33.0590    9.3510    6.9270 C.3       2 GLC5        0.0000 
     39 CA        -33.1000   11.3150    7.4750 C.3       6 GLL5        0.0000 
     40 CA        -33.0180    7.3870    6.3790 C.3       4 GLP5        0.0000 
     41 CA        -35.0730    9.2095    9.5760 C.3       2 GLC5        0.0000 
     42 CA        -35.9110   11.1230    9.9230 C.3       6 GLL5        0.0000 
     43 CA        -34.2350    7.2960    9.2290 C.3       4 GLP5        0.0000 
     44 CA        -37.2640    9.5780   10.0925 C.3       2 GLC5        0.0000 
     45 CA        -38.6170    8.0330   10.2620 C.3       4 GLP5        0.0000 
     46 CA        -35.3340    9.9825   11.2665 C.3       2 GLC5        0.0000 
     47 CA        -34.7570    8.8420   12.6100 C.3       4 GLP5        0.0000 
     48 CA        -36.7180   12.9905    9.4595 C.3       2 GLC5        0.0000 
     49 CA        -37.5250   14.8580    8.9960 C.3       4 GLP5        0.0000 
     50 CA        -34.8370   13.1160    5.8970 C.3       2 GLC5        0.0000 
     51 CA        -33.8290   14.0070    7.5190 C.3       6 GLL5        0.0000 
     52 CA        -35.8450   12.2250    4.2750 C.3       4 GLP5        0.0000 
     53 CA        -26.1045   20.6945    5.0250 C.3       2 GLC5        0.0000 
     54 CA        -25.4220   18.7420    4.3620 C.3       6 GLL5        0.0000 
     55 CA        -25.6410   19.5495    2.2890 C.3       2 GLC5        0.0000 
     56 CA        -25.8600   20.3570    0.2160 C.3       4 GLP5        0.0000 
     57 CA        -25.3385   15.2250    5.9260 C.3       2 GLC5        0.0000 
     58 CA        -24.0010   14.7520    4.9190 C.3       6 GLL5        0.0000 
     59 CA        -23.3060   15.5390    3.0875 C.3       2 GLC5        0.0000 
     60 CA        -22.6110   16.3260    1.2560 C.3       4 GLP5        0.0000 
     61 CA        -22.8095   13.2890    3.9245 C.3       2 GLC5        0.0000 
     62 CA        -21.6180   11.8260    2.9300 C.3       4 GLP5        0.0000 
     63 CA        -24.8410   13.5075    3.5955 C.3       2 GLC5        0.0000 
     64 CA        -25.6810   12.2630    2.2720 C.3       4 GLP5        0.0000 
     65 CA        -21.5440   17.5810    7.4405 C.3       2 GLC5        0.0000 
     66 CA        -22.6130   16.9920    8.9410 C.3       6 GLL5        0.0000 
     67 CA        -20.4750   18.1700    5.9400 C.3       4 GLP5        0.0000 
     68 CA        -20.4875   18.7280    9.2750 C.3       2 GLC5        0.0000 
     69 CA        -21.9900   18.3240   10.8480 C.3       6 GLL5        0.0000 
     70 CA        -18.9850   19.1320    7.7020 C.3       4 GLP5        0.0000 
     71 CA        -21.4020   18.7910    8.2265 C.3       2 GLC5        0.0000 
     72 CA        -22.5540   18.2320    9.5730 C.3       6 GLL5        0.0000 
     73 CA        -20.2500   19.3500    6.8800 C.3       4 GLP5        0.0000 
     74 CA        -25.7080   17.0628    5.6285 C.3       2 GLC5        0.0000 
     75 CA        -24.0580   18.1130    4.2860 C.3       6 GLL5        0.0000 
     76 CA        -23.9505   18.2132    2.6520 C.3       2 GLC5        0.0000 
     77 CA        -23.1610   17.9990    0.9800 C.3       4 GLP5        0.0000 
     78 CA        -30.3730   20.2467    1.5630 C.3       2 GLC5        0.0000 
     79 CA        -30.2330   18.7980    3.0880 C.3       6 GLL5        0.0000 
     80 CA        -30.9990   21.1910    0.0520 C.3       4 GLP5        0.0000 
     81 CA        -27.2257   20.0045    1.6945 C.3       2 GLC5        0.0000 
     82 CA        -29.2610   19.8070    3.0600 C.3       6 GLL5        0.0000 
     83 CA        -30.9672   19.5639    4.2017 C.3       2 GLC5        0.0000 
     84 CA        -32.1190   20.7410    5.1960 C.3       4 GLP5        0.0000 
     85 CA        -29.8985   16.1715    6.3590 C.3       2 GLC5        0.0000 
     86 CA        -30.9260   15.8830    4.8740 C.3       6 GLL5        0.0000 
     87 CA        -23.5735   16.7385   11.0613 C.3       2 GLC5        0.0000 
     88 CA        -25.3710   17.5790   11.9470 C.3       4 GLP5        0.0000 
     89 CA        -30.9352   11.8933    8.1597 C.3       2 GLC5        0.0000 
     90 CA        -32.4170   12.2660    6.6960 C.3       6 GLL5        0.0000 
     91 CA        -29.1120   11.9960    9.2340 C.3       4 GLP5        0.0000 
     92 CA        -31.4522   10.4703    6.2467 C.3       2 GLC5        0.0000 
     93 CA        -30.1460    9.1500    5.4080 C.3       4 GLP5        0.0000 
     94 CA        -34.3447   12.1779    5.6809 C.3       2 GLC5        0.0000 
     95 CA        -36.0588   12.3068    7.1015 C.3       2 GLC5        0.0000 
     96 CA        -34.1620   11.7200    8.2910 C.3       6 GLL5        0.0000 
     97 CA        -37.7730   12.2140    5.9060 C.3       4 GLP5        0.0000 
     98 CA        -33.3655   15.0380    8.7378 C.3       2 GLC5        0.0000 
     99 CA        -34.5270   13.0790    8.3030 C.3       6 GLL5        0.0000 
    100 CA        -35.8515   14.2005    8.4535 C.3       2 GLC5        0.0000 
    101 CA        -25.1923   16.1767    6.2877 C.3       2 GLC5        0.0000 
    102 CA        -23.6960   15.9690    5.7450 C.3       6 GLL5        0.0000 
    103 CA        -22.1339   17.5091    5.6345 C.3       2 GLC5        0.0000 
    104 CA        -21.7583   15.3018    4.9810 C.3       2 GLC5        0.0000 
    105 CA        -19.6680   15.2430    4.6300 C.3       4 GLP5        0.0000 
    106 CA        -23.9772   17.5955   10.6020 C.3       2 GLC5        0.0000 
    107 CA        -23.5520   17.6643   11.5515 C.3       2 GLC5        0.0000 
@<TRIPOS>BOND
@<TRIPOS>SUBSTRUCTURE
     1 SEC2       30 GROUP        1 X    SEC  0     ROOT SEC X 2
     2 GLC5        1 GROUP        1 X    GLC  0     **** GLC X 6
     3 SEP2       32 GROUP        1 Y    SEP  0     ROOT SEP Y 9
     4 GLP5        3 GROUP        1 Y    GLP  0     **** GLP Y 13
     5 SEL2       31 GROUP        1 Z    SEL  0     ROOT SEL Z 16
     6 GLL5        2 GROUP        1 Z    GLL  0     **** GLL Z 20
@<TRIPOS>SET

