#    Name: 2rew_REW_2_ligand
#    Modification time : Mon Mar 24 23:49:29 2014

@<TRIPOS>MOLECULE
2rew_REW_2_ligand
   65    69     1     0     0
SMALL
NO_CHARGES


@<TRIPOS>ATOM
      1 C13       -24.0580   18.1130    4.2860 C.3       1 REW469      0.0000 
      2 C18       -29.2610   19.8070    3.0600 C.ar      1 REW469      0.0000 
      3 C17       -27.9220   19.4970    3.2860 C.ar      1 REW469      0.0000 
      4 C16       -27.5800   18.1630    3.5380 C.ar      1 REW469      0.0000 
      5 C19       -30.2330   18.7980    3.0880 C.ar      1 REW469      0.0000 
      6 C20       -29.8840   17.4710    3.3410 C.ar      1 REW469      0.0000 
      7 C21       -28.5490   17.1650    3.5610 C.ar      1 REW469      0.0000 
      8 C22       -30.9230   16.3730    3.4160 C.3       1 REW469      0.0000 
      9 C23       -30.9260   15.8830    4.8740 C.3       1 REW469      0.0000 
     10 C24       -32.1840   16.0010    5.7580 C.3       1 REW469      0.0000 
     11 C11       -21.5000   15.9410   10.8140 C.ar      1 REW469      0.0000 
     12 C12       -22.0520   15.8550    9.5370 C.ar      1 REW469      0.0000 
     13 C33       -32.4170   12.2660    6.6960 C.ar      1 REW469      0.0000 
     14 O38       -34.0840   15.6190    4.4130 O.co2     1 REW469      0.0000 
     15 C36       -33.4260   16.4460    5.0850 C.2       1 REW469      0.0000 
     16 O37       -33.7390   17.6320    5.2730 O.co2     1 REW469      0.0000 
     17 N25       -32.0750   14.5440    5.9250 N.am      1 REW469      0.0000 
     18 C28       -32.7610   13.6270    6.7010 C.ar      1 REW469      0.0000 
     19 C32       -33.1000   11.3150    7.4750 C.ar      1 REW469      0.0000 
     20 C31       -34.1620   11.7200    8.2910 C.ar      1 REW469      0.0000 
     21 O34       -34.8310   10.7740    9.0550 O.3       1 REW469      0.0000 
     22 C35       -35.9110   11.1230    9.9230 C.3       1 REW469      0.0000 
     23 C30       -34.5270   13.0790    8.3030 C.ar      1 REW469      0.0000 
     24 C29       -33.8290   14.0070    7.5190 C.ar      1 REW469      0.0000 
     25 C26       -31.0570   14.4100    5.0980 C.2       1 REW469      0.0000 
     26 O27       -30.4420   13.4610    4.6560 O.2       1 REW469      0.0000 
     27 O15       -26.2820   17.8000    3.7520 O.3       1 REW469      0.0000 
     28 C14       -25.4220   18.7420    4.3620 C.3       1 REW469      0.0000 
     29 C3        -23.7210   17.3420    5.5400 C.2       1 REW469      0.0000 
     30 N4        -23.3330   17.8880    6.7060 N.2       1 REW469      0.0000 
     31 C5        -23.1270   16.8700    7.5650 C.2       1 REW469      0.0000 
     32 O6        -23.3430   15.6930    6.9020 O.3       1 REW469      0.0000 
     33 C2        -23.6960   15.9690    5.7450 C.2       1 REW469      0.0000 
     34 C1        -24.0010   14.7520    4.9190 C.3       1 REW469      0.0000 
     35 C7        -22.6130   16.9920    8.9410 C.ar      1 REW469      0.0000 
     36 C10       -21.4760   17.1750   11.4640 C.ar      1 REW469      0.0000 
     37 C9        -21.9900   18.3240   10.8480 C.ar      1 REW469      0.0000 
     38 C8        -22.5540   18.2320    9.5730 C.ar      1 REW469      0.0000 
     39 H         -23.3033   18.8952    4.1297 H         1 REW469      0.0000 
     40 H         -24.0161   17.4348    3.4233 H         1 REW469      0.0000 
     41 H         -29.5408   20.7777    2.8718 H         1 REW469      0.0000 
     42 H         -27.2083   20.2190    3.2691 H         1 REW469      0.0000 
     43 H         -31.2218   19.0429    2.9185 H         1 REW469      0.0000 
     44 H         -28.2699   16.1872    3.7438 H         1 REW469      0.0000 
     45 H         -30.6501   15.5620    2.7731 H         1 REW469      0.0000 
     46 H         -31.8900   16.7627    3.1741 H         1 REW469      0.0000 
     47 H         -30.1170   16.2043    5.4706 H         1 REW469      0.0000 
     48 H         -31.9062   16.4597    6.6279 H         1 REW469      0.0000 
     49 H         -21.1173   15.1103   11.2691 H         1 REW469      0.0000 
     50 H         -22.0490   14.9627    9.0321 H         1 REW469      0.0000 
     51 H         -31.6295   11.9488    6.0954 H         1 REW469      0.0000 
     52 H         -32.8193   10.3325    7.4430 H         1 REW469      0.0000 
     53 H         -35.3094   13.3895    8.8903 H         1 REW469      0.0000 
     54 H         -34.1142   15.0052    7.5473 H         1 REW469      0.0000 
     55 H         -25.3983   19.6804    3.8285 H         1 REW469      0.0000 
     56 H         -25.6670   18.9078    5.4004 H         1 REW469      0.0000 
     57 H         -21.0744   17.2458   12.4125 H         1 REW469      0.0000 
     58 H         -21.9516   19.2251   11.3311 H         1 REW469      0.0000 
     59 H         -22.9190   19.0670    9.1104 H         1 REW469      0.0000 
     60 H         -35.6270   11.7758   10.6253 H         1 REW469      0.0000 
     61 H         -36.6690   11.5418    9.4229 H         1 REW469      0.0000 
     62 H         -36.2792   10.3236   10.3977 H         1 REW469      0.0000 
     63 H         -23.4179   14.6976    4.1084 H         1 REW469      0.0000 
     64 H         -23.8628   13.9076    5.4366 H         1 REW469      0.0000 
     65 H         -24.9485   14.7480    4.5993 H         1 REW469      0.0000 
@<TRIPOS>BOND
     1   28    1 1    
     2   29    1 1    
     3   39    1 1    
     4   40    1 1    
     5    3    2 ar   
     6    5    2 ar   
     7   41    2 1    
     8    4    3 ar   
     9   42    3 1    
    10    7    4 ar   
    11   27    4 1    
    12    6    5 ar   
    13   43    5 1    
    14    7    6 ar   
    15    8    6 1    
    16   44    7 1    
    17    9    8 1    
    18   45    8 1    
    19   46    8 1    
    20   10    9 1    
    21   25    9 1    
    22   47    9 1    
    23   15   10 1    
    24   17   10 1    
    25   48   10 1    
    26   12   11 ar   
    27   36   11 ar   
    28   49   11 1    
    29   35   12 ar   
    30   50   12 1    
    31   18   13 ar   
    32   19   13 ar   
    33   51   13 1    
    34   15   14 ar   
    35   16   15 ar   
    36   18   17 1    
    37   25   17 am   
    38   24   18 ar   
    39   20   19 ar   
    40   52   19 1    
    41   21   20 1    
    42   23   20 ar   
    43   22   21 1    
    44   60   22 1    
    45   61   22 1    
    46   62   22 1    
    47   24   23 ar   
    48   53   23 1    
    49   54   24 1    
    50   26   25 2    
    51   28   27 1    
    52   55   28 1    
    53   56   28 1    
    54   30   29 1    
    55   33   29 2    
    56   31   30 2    
    57   32   31 1    
    58   35   31 1    
    59   33   32 1    
    60   34   33 1    
    61   63   34 1    
    62   64   34 1    
    63   65   34 1    
    64   38   35 ar   
    65   37   36 ar   
    66   57   36 1    
    67   38   37 ar   
    68   58   37 1    
    69   59   38 1    
@<TRIPOS>SUBSTRUCTURE
     1 REW469      1 GROUP   
@<TRIPOS>SET

