#    Name: 3l5e_BDW_1_INTS_M
#    Modification time : Mon Mar 24 21:01:52 2014

@<TRIPOS>MOLECULE
3l5e_BDW_1_INTS_M
   72     0    12     0     0
SMALL
NO_CHARGES


@<TRIPOS>ATOM
      1 O          21.3465    8.4810   22.4285 O.2       1 ALC1        0.0000 
      2 O          21.0260    9.7710   22.6680 O.2       9 ALL1        0.0000 
      3 O          21.6670    7.1910   22.1890 O.2       5 ALP1        0.0000 
      4 OD1        22.0065    8.3705   23.4175 O.co2     3 ASC3        0.0000 
      5 OD1        21.6220   10.2740   23.7840 O.co2    11 ASL3        0.0000 
      6 OD1        22.8700    6.7990   23.9500 O.co2     7 ASP3        0.0000 
      7 OD1        21.6670    7.1910   22.1890 O.co2     7 ASP3        0.0000 
      8 OD1        22.9010    9.7370   25.9350 O.co2     3 ASC3        0.0000 
      9 OD1        23.4560    9.9240   27.2240 O.co2     7 ASP3        0.0000 
     10 N          29.0185   13.2580   25.4350 N.am      2 SEC2        0.0000 
     11 N          28.4740   14.4550   24.7430 N.am     10 SEL2        0.0000 
     12 N          29.5630   12.0610   26.1270 N.am      6 SEP2        0.0000 
     13 O          22.6080    8.1745   24.2980 O.2       1 ALC1        0.0000 
     14 O          22.3460    9.5500   24.6460 O.2       9 ALL1        0.0000 
     15 O          22.8700    6.7990   23.9500 O.2       5 ALP1        0.0000 
     16 O          22.0065    8.3705   23.4175 O.2       1 ALC1        0.0000 
     17 O          22.9010    9.7370   25.9350 O.2       1 ALC1        0.0000 
     18 O          23.4560    9.9240   27.2240 O.2       5 ALP1        0.0000 
     19 CA         19.6520   12.6855   19.6995 C.3       4 GLC5        0.0000 
     20 CA         20.9180   11.1270   20.5880 C.3      12 GLL5        0.0000 
     21 CA         18.3860   14.2440   18.8110 C.3       8 GLP5        0.0000 
     22 O          30.4730   13.2770   23.4275 O.2       1 ALC1        0.0000 
     23 O          29.3520   13.8200   22.7360 O.2       9 ALL1        0.0000 
     24 O          31.5940   12.7340   24.1190 O.2       5 ALP1        0.0000 
     25 CA         21.6325   13.4950   19.7060 C.3       4 GLC5        0.0000 
     26 CA         22.3870   11.5800   20.5360 C.3      12 GLL5        0.0000 
     27 CA         20.8780   15.4100   18.8760 C.3       8 GLP5        0.0000 
     28 CA         25.6150   10.3155   17.3410 C.3       4 GLC5        0.0000 
     29 CA         24.9600   11.2420   19.0450 C.3      12 GLL5        0.0000 
     30 CA         26.2700    9.3890   15.6370 C.3       8 GLP5        0.0000 
     31 CA         22.5085   13.9570   18.8690 C.3       4 GLC5        0.0000 
     32 CA         24.1390   12.5040   18.8620 C.3      12 GLL5        0.0000 
     33 CA         21.5655   13.4870   18.4715 C.3       4 GLC5        0.0000 
     34 CA         22.6670   12.2530   19.1830 C.3      12 GLL5        0.0000 
     35 CA         20.4640   14.7210   17.7600 C.3       8 GLP5        0.0000 
     36 CA         30.9915   11.0120   20.1490 C.3       4 GLC5        0.0000 
     37 CA         29.1970   11.4300   21.2870 C.3      12 GLL5        0.0000 
     38 CA         32.7860   10.5940   19.0110 C.3       8 GLP5        0.0000 
     39 CA         29.8995    8.8005   20.5565 C.3       4 GLC5        0.0000 
     40 CA         28.5700   10.1590   20.6830 C.3      12 GLL5        0.0000 
     41 CA         31.2290    7.4420   20.4300 C.3       8 GLP5        0.0000 
     42 CA         28.2800    8.1635   20.1510 C.3       4 GLC5        0.0000 
     43 CA         27.9900    6.1680   19.6190 C.3       8 GLP5        0.0000 
     44 CA         16.5630    9.7630   26.7220 C.3       4 GLC5        0.0000 
     45 CA         16.1830   10.1010   24.6990 C.3      12 GLL5        0.0000 
     46 CA         16.9430    9.4250   28.7450 C.3       8 GLP5        0.0000 
     47 CA         13.8005    8.3565   25.7480 C.3       4 GLC5        0.0000 
     48 CA         14.7050    9.7250   24.7480 C.3      12 GLL5        0.0000 
     49 CA         12.8960    6.9880   26.7480 C.3       8 GLP5        0.0000 
     50 CA         12.8035   10.1220   21.4865 C.3       4 GLC5        0.0000 
     51 CA         14.3560   10.8830   22.5120 C.3      12 GLL5        0.0000 
     52 CA         11.2510    9.3610   20.4610 C.3       8 GLP5        0.0000 
     53 CA         18.4515    8.7890   22.7218 C.3       4 GLC5        0.0000 
     54 CA         18.8330   10.6660   21.9340 C.3      12 GLL5        0.0000 
     55 CA         18.3990    6.9030   22.8260 C.3       8 GLP5        0.0000 
     56 CA         26.0478   12.1545   25.0525 C.3       4 GLC5        0.0000 
     57 CA         24.2720   12.7010   24.0900 C.3      12 GLL5        0.0000 
     58 CA         27.2850   11.1980   26.2320 C.3       8 GLP5        0.0000 
     59 CA         25.1565    9.1069   19.5598 C.3       4 GLC5        0.0000 
     60 CA         24.7960   10.7240   20.4620 C.3      12 GLL5        0.0000 
     61 CA         25.8000    7.3110   19.2900 C.3       8 GLP5        0.0000 
     62 CA         22.3665   11.9912   17.2918 C.3       4 GLC5        0.0000 
     63 CA         21.3300   11.6040   15.5610 C.3       8 GLP5        0.0000 
     64 CA         29.0738   12.9448   19.0700 C.3       4 GLC5        0.0000 
     65 CA         28.6160   12.6810   20.6720 C.3      12 GLL5        0.0000 
     66 CA         29.3480   12.5350   17.1420 C.3       8 GLP5        0.0000 
     67 CA         29.1157   11.6648   19.0635 C.3       4 GLC5        0.0000 
     68 CA         17.4245    8.5333   23.4070 C.3       4 GLC5        0.0000 
     69 CA         16.7170   10.2260   23.2770 C.3      12 GLL5        0.0000 
     70 CA         14.8480   11.2787   20.6472 C.3       4 GLC5        0.0000 
     71 CA         15.8540   11.1840   22.4490 C.3      12 GLL5        0.0000 
     72 CA         14.5910   11.5240   18.8140 C.3       8 GLP5        0.0000 
@<TRIPOS>BOND
@<TRIPOS>SUBSTRUCTURE
     1 ALC1        1 GROUP        1 X    ALC  0     ROOT ALC X 1
     2 SEC2       10 GROUP        1 X    SEC  0     **** SEC X 2
     3 ASC3        4 GROUP        1 X    ASC  0     **** ASC X 3
     4 GLC5       19 GROUP        1 X    GLC  0     **** GLC X 6
     5 ALP1        3 GROUP        1 Y    ALP  0     ROOT ALP Y 8
     6 SEP2       12 GROUP        1 Y    SEP  0     **** SEP Y 9
     7 ASP3        6 GROUP        1 Y    ASP  0     **** ASP Y 10
     8 GLP5       21 GROUP        1 Y    GLP  0     **** GLP Y 13
     9 ALL1        2 GROUP        1 Z    ALL  0     ROOT ALL Z 15
    10 SEL2       11 GROUP        1 Z    SEL  0     **** SEL Z 16
    11 ASL3        5 GROUP        1 Z    ASL  0     **** ASL Z 17
    12 GLL5       20 GROUP        1 Z    GLL  0     **** GLL Z 20
@<TRIPOS>SET

