#    Name: 2x4z_X4Z_1_INTS_M
#    Modification time : Tue Mar 25 05:05:09 2014

@<TRIPOS>MOLECULE
2x4z_X4Z_1_INTS_M
   82     0    12     0     0
SMALL
NO_CHARGES


@<TRIPOS>ATOM
      1 CA         22.3625   20.7795   59.2960 C.3       4 GLC5        0.0000 
      2 CA         20.2800   20.7060   59.8010 C.3      12 GLL5        0.0000 
      3 CA         24.4450   20.8530   58.7910 C.3       8 GLP5        0.0000 
      4 CA         18.4775   21.4835   60.1755 C.3       4 GLC5        0.0000 
      5 CA         16.6750   22.2610   60.5500 C.3       8 GLP5        0.0000 
      6 O          18.1035   17.8165   62.8960 O.2       1 ALC1        0.0000 
      7 O          19.2250   18.1860   61.9120 O.2       9 ALL1        0.0000 
      8 O          16.9820   17.4470   63.8800 O.2       5 ALP1        0.0000 
      9 N          18.6370   19.9065   64.5365 N.am      2 SEC2        0.0000 
     10 N          19.4560   20.1800   63.4180 N.am     10 SEL2        0.0000 
     11 N          17.8180   19.6330   65.6550 N.am      6 SEP2        0.0000 
     12 CA         18.5645   25.0370   62.5135 C.3       4 GLC5        0.0000 
     13 CA         19.8360   24.0230   61.4140 C.3      12 GLL5        0.0000 
     14 CA         17.2930   26.0510   63.6130 C.3       8 GLP5        0.0000 
     15 CA         20.1780   25.7260   61.9710 C.3       4 GLC5        0.0000 
     16 CA         20.5200   27.4290   62.5280 C.3       8 GLP5        0.0000 
     17 CA         23.3685   21.4465   61.3265 C.3       4 GLC5        0.0000 
     18 CA         22.1990   23.1730   61.6210 C.3      12 GLL5        0.0000 
     19 CA         24.5380   19.7200   61.0320 C.3       8 GLP5        0.0000 
     20 CA         22.2225   25.0655   62.0390 C.3       4 GLC5        0.0000 
     21 CA         22.2460   26.9580   62.4570 C.3       8 GLP5        0.0000 
     22 CA         17.1035   15.2515   63.7730 C.3       4 GLC5        0.0000 
     23 CA         18.0770   15.2020   62.0800 C.3      12 GLL5        0.0000 
     24 CA         16.1300   15.3010   65.4660 C.3       8 GLP5        0.0000 
     25 CA         22.2985   16.3485   60.8060 C.3       4 GLC5        0.0000 
     26 CA         21.2610   16.7660   59.3480 C.3      12 GLL5        0.0000 
     27 CA         23.3360   15.9310   62.2640 C.3       8 GLP5        0.0000 
     28 CA         23.4385   16.4635   59.9215 C.3       4 GLC5        0.0000 
     29 CA         22.3110   17.2210   58.4410 C.3      12 GLL5        0.0000 
     30 CA         24.5660   15.7060   61.4020 C.3       8 GLP5        0.0000 
     31 CA         23.7890   16.5130   57.6510 C.3       4 GLC5        0.0000 
     32 CA         25.2670   15.8050   56.8610 C.3       8 GLP5        0.0000 
     33 CA         23.7020   18.4795   59.0260 C.3       4 GLC5        0.0000 
     34 CA         25.0930   19.7380   59.6110 C.3       8 GLP5        0.0000 
     35 CA         21.8795   21.9700   53.9855 C.3       4 GLC5        0.0000 
     36 CA         20.0190   22.3250   55.0290 C.3      12 GLL5        0.0000 
     37 CA         23.7400   21.6150   52.9420 C.3       8 GLP5        0.0000 
     38 OD1        18.7435   24.0900   55.5570 O.co2     3 ASC3        0.0000 
     39 OD1        18.5410   22.3240   55.0800 O.co2    11 ASL3        0.0000 
     40 OD1        18.9460   25.8560   56.0340 O.co2     7 ASP3        0.0000 
     41 OD1        18.1300   23.5935   54.7915 O.co2     3 ASC3        0.0000 
     42 OD1        17.7190   24.8630   54.5030 O.co2     7 ASP3        0.0000 
     43 O          18.1300   23.5935   54.7915 O.2       1 ALC1        0.0000 
     44 O          18.5410   22.3240   55.0800 O.2       9 ALL1        0.0000 
     45 O          17.7190   24.8630   54.5030 O.2       5 ALP1        0.0000 
     46 CA         24.9605   26.2040   53.4100 C.3       4 GLC5        0.0000 
     47 CA         23.5110   25.0320   54.4540 C.3      12 GLL5        0.0000 
     48 CA         26.4100   27.3760   52.3660 C.3       8 GLP5        0.0000 
     49 CA         25.7515   25.1935   53.3290 C.3       4 GLC5        0.0000 
     50 CA         24.6680   24.3690   54.9600 C.3      12 GLL5        0.0000 
     51 CA         26.8350   26.0180   51.6980 C.3       8 GLP5        0.0000 
     52 CA         16.8175   21.1195   57.7120 C.3       4 GLC5        0.0000 
     53 CA         17.8770   21.8210   56.2950 C.3      12 GLL5        0.0000 
     54 CA         15.7580   20.4180   59.1290 C.3       8 GLP5        0.0000 
     55 CA         16.3820   21.5610   52.7220 C.3       4 GLC5        0.0000 
     56 CA         18.0550   21.5200   53.9370 C.3      12 GLL5        0.0000 
     57 CA         14.7090   21.6020   51.5070 C.3       8 GLP5        0.0000 
     58 CA         18.2523   21.2966   61.2275 C.3       4 GLC5        0.0000 
     59 CA         20.0180   20.5030   61.2400 C.3      12 GLL5        0.0000 
     60 CA         18.4880   22.8402   60.9200 C.3       4 GLC5        0.0000 
     61 CA         20.7660   22.8160   61.1660 C.3      12 GLL5        0.0000 
     62 CA         22.2275   22.0112   63.1388 C.3       4 GLC5        0.0000 
     63 CA         20.2280   21.6480   61.9660 C.3      12 GLL5        0.0000 
     64 CA         23.1070   21.3200   64.6840 C.3       8 GLP5        0.0000 
     65 CA         21.5020   15.8784   61.4580 C.3       4 GLC5        0.0000 
     66 CA         19.8370   15.0270   60.2020 C.3      12 GLL5        0.0000 
     67 CA         16.6856   15.3200   60.7551 C.3       4 GLC5        0.0000 
     68 CA         19.2580   15.9660   61.1250 C.3      12 GLL5        0.0000 
     69 CA         14.9080   16.0080   60.0310 C.3       8 GLP5        0.0000 
     70 CA         22.9477   22.8375   54.1402 C.3       4 GLC5        0.0000 
     71 CA         22.0930   23.5160   55.7990 C.3      12 GLL5        0.0000 
     72 CA         23.2743   25.0860   56.7313 C.3       4 GLC5        0.0000 
     73 CA         24.3930   26.1120   58.1240 C.3       8 GLP5        0.0000 
     74 CA         23.8257   22.3430   54.5177 C.3       4 GLC5        0.0000 
     75 CA         23.2630   22.8590   56.3020 C.3      12 GLL5        0.0000 
     76 CA         24.1782   21.9620   57.4422 C.3       4 GLC5        0.0000 
     77 CA         24.5600   23.2830   55.8850 C.3      12 GLL5        0.0000 
     78 CA         24.1523   24.5915   57.1088 C.3       4 GLC5        0.0000 
     79 CA         23.9147   23.1578   53.8245 C.3       4 GLC5        0.0000 
     80 CA         24.2413   25.4062   56.4155 C.3       4 GLC5        0.0000 
     81 CA         26.6145   23.6995   54.7027 C.3       4 GLC5        0.0000 
     82 CA         28.6150   23.5730   53.9830 C.3       8 GLP5        0.0000 
@<TRIPOS>BOND
@<TRIPOS>SUBSTRUCTURE
     1 ALC1        6 GROUP        1 X    ALC  0     ROOT ALC X 1
     2 SEC2        9 GROUP        1 X    SEC  0     **** SEC X 2
     3 ASC3       38 GROUP        1 X    ASC  0     **** ASC X 3
     4 GLC5        1 GROUP        1 X    GLC  0     **** GLC X 6
     5 ALP1        8 GROUP        1 Y    ALP  0     ROOT ALP Y 8
     6 SEP2       11 GROUP        1 Y    SEP  0     **** SEP Y 9
     7 ASP3       40 GROUP        1 Y    ASP  0     **** ASP Y 10
     8 GLP5        3 GROUP        1 Y    GLP  0     **** GLP Y 13
     9 ALL1        7 GROUP        1 Z    ALL  0     ROOT ALL Z 15
    10 SEL2       10 GROUP        1 Z    SEL  0     **** SEL Z 16
    11 ASL3       39 GROUP        1 Z    ASL  0     **** ASL Z 17
    12 GLL5        2 GROUP        1 Z    GLL  0     **** GLL Z 20
@<TRIPOS>SET

