#    Name: 2x4z_X4Z_1_ligand
#    Modification time : Tue Mar 25 05:05:09 2014

@<TRIPOS>MOLECULE
2x4z_X4Z_1_ligand
   65    69     1     0     0
SMALL
NO_CHARGES


@<TRIPOS>ATOM
      1 C1         20.0180   20.5030   61.2400 C.2       1 X4Z1593     0.0000 
      2 C2         20.2280   21.6480   61.9660 C.2       1 X4Z1593     0.0000 
      3 C3         19.5360   19.5890   62.2070 C.2       1 X4Z1593     0.0000 
      4 C4         20.2800   20.7060   59.8010 C.3       1 X4Z1593     0.0000 
      5 C5         20.7660   22.8160   61.1660 C.3       1 X4Z1593     0.0000 
      6 N6         19.9080   21.5110   63.2620 N.2       1 X4Z1593     0.0000 
      7 N7         19.2250   18.1860   61.9120 N.pl3     1 X4Z1593     0.0000 
      8 N8         19.4560   20.1800   63.4180 N.2       1 X4Z1593     0.0000 
      9 N9         20.6240   22.1890   59.7960 N.am      1 X4Z1593     0.0000 
     10 C10        19.8360   24.0230   61.4140 C.3       1 X4Z1593     0.0000 
     11 C11        22.1990   23.1730   61.6210 C.3       1 X4Z1593     0.0000 
     12 C12        19.7400   17.2830   61.0790 C.ar      1 X4Z1593     0.0000 
     13 C13        20.7770   22.9180   58.6540 C.2       1 X4Z1593     0.0000 
     14 C14        19.2580   15.9660   61.1250 C.ar      1 X4Z1593     0.0000 
     15 N15        20.7150   17.6560   60.2100 N.ar      1 X4Z1593     0.0000 
     16 N16        20.6030   22.3130   57.4890 N.am      1 X4Z1593     0.0000 
     17 O17        21.0860   24.1070   58.7010 O.2       1 X4Z1593     0.0000 
     18 C18        19.8370   15.0270   60.2020 C.ar      1 X4Z1593     0.0000 
     19 S19        18.0770   15.2020   62.0800 S.3       1 X4Z1593     0.0000 
     20 C20        21.2610   16.7660   59.3480 C.ar      1 X4Z1593     0.0000 
     21 C21        20.7280   23.0740   56.2130 C.3       1 X4Z1593     0.0000 
     22 N22        20.8390   15.4860   59.3350 N.ar      1 X4Z1593     0.0000 
     23 C23        19.2520   13.7280   60.3480 C.2       1 X4Z1593     0.0000 
     24 C24        18.2590   13.6800   61.3560 C.2       1 X4Z1593     0.0000 
     25 C25        22.3110   17.2210   58.4410 C.3       1 X4Z1593     0.0000 
     26 C26        22.0930   23.5160   55.7990 C.ar      1 X4Z1593     0.0000 
     27 C27        20.0190   22.3250   55.0290 C.3       1 X4Z1593     0.0000 
     28 C28        22.2180   24.6040   54.8780 C.ar      1 X4Z1593     0.0000 
     29 C29        23.2630   22.8590   56.3020 C.ar      1 X4Z1593     0.0000 
     30 N30        18.5410   22.3240   55.0800 N.4       1 X4Z1593     0.0000 
     31 C31        23.5110   25.0320   54.4540 C.ar      1 X4Z1593     0.0000 
     32 C32        24.5600   23.2830   55.8850 C.ar      1 X4Z1593     0.0000 
     33 C33        24.6680   24.3690   54.9600 C.ar      1 X4Z1593     0.0000 
     34 C34        17.8770   21.8210   56.2950 C.3       1 X4Z1593     0.0000 
     35 C35        18.0550   21.5200   53.9370 C.3       1 X4Z1593     0.0000 
     36 H          19.4099   20.5476   59.2285 H         1 X4Z1593     0.0000 
     37 H          21.1182   20.1522   59.4838 H         1 X4Z1593     0.0000 
     38 H          18.3610   17.8371   62.5461 H         1 X4Z1593     0.0000 
     39 H          20.3780   21.3138   57.3859 H         1 X4Z1593     0.0000 
     40 H          20.1006   24.0218   56.3285 H         1 X4Z1593     0.0000 
     41 H          19.5139   12.9679   59.8098 H         1 X4Z1593     0.0000 
     42 H          17.7242   13.0174   61.6746 H         1 X4Z1593     0.0000 
     43 H          20.4095   21.2869   55.0219 H         1 X4Z1593     0.0000 
     44 H          20.3763   22.7930   54.0890 H         1 X4Z1593     0.0000 
     45 H          21.3867   25.0692   54.5281 H         1 X4Z1593     0.0000 
     46 H          23.1657   22.0884   56.9581 H         1 X4Z1593     0.0000 
     47 H          18.1846   23.3615   54.8872 H         1 X4Z1593     0.0000 
     48 H          23.6064   25.7986   53.8006 H         1 X4Z1593     0.0000 
     49 H          25.3871   22.8263   56.2352 H         1 X4Z1593     0.0000 
     50 H          25.5981   24.6760   54.6554 H         1 X4Z1593     0.0000 
     51 H          19.8028   24.2736   62.3815 H         1 X4Z1593     0.0000 
     52 H          20.1372   24.8334   60.9115 H         1 X4Z1593     0.0000 
     53 H          18.8968   23.8331   61.1280 H         1 X4Z1593     0.0000 
     54 H          22.8281   22.4045   61.5042 H         1 X4Z1593     0.0000 
     55 H          22.5737   23.9402   61.1004 H         1 X4Z1593     0.0000 
     56 H          22.2285   23.4317   62.5865 H         1 X4Z1593     0.0000 
     57 H          23.1029   17.5760   58.9379 H         1 X4Z1593     0.0000 
     58 H          22.6407   16.4817   57.8539 H         1 X4Z1593     0.0000 
     59 H          21.9906   17.9525   57.8392 H         1 X4Z1593     0.0000 
     60 H          18.1142   20.8673   56.4801 H         1 X4Z1593     0.0000 
     61 H          18.1337   22.3493   57.1043 H         1 X4Z1593     0.0000 
     62 H          16.8809   21.8659   56.2195 H         1 X4Z1593     0.0000 
     63 H          18.3534   21.9005   53.0617 H         1 X4Z1593     0.0000 
     64 H          18.3893   20.5784   53.9765 H         1 X4Z1593     0.0000 
     65 H          17.0563   21.4757   53.9121 H         1 X4Z1593     0.0000 
@<TRIPOS>BOND
     1    2    1 2    
     2    3    1 1    
     3    4    1 1    
     4    5    2 1    
     5    6    2 1    
     6    7    3 2    
     7    8    3 1    
     8    9    4 1    
     9   36    4 1    
    10   37    4 1    
    11    9    5 1    
    12   10    5 1    
    13   11    5 1    
    14    8    6 2    
    15   12    7 1    
    16   38    7 1    
    17   13    9 am   
    18   51   10 1    
    19   52   10 1    
    20   53   10 1    
    21   54   11 1    
    22   55   11 1    
    23   56   11 1    
    24   14   12 ar   
    25   15   12 ar   
    26   16   13 am   
    27   17   13 2    
    28   18   14 ar   
    29   19   14 1    
    30   20   15 ar   
    31   21   16 1    
    32   39   16 1    
    33   22   18 ar   
    34   23   18 1    
    35   24   19 1    
    36   22   20 ar   
    37   25   20 1    
    38   26   21 1    
    39   27   21 1    
    40   40   21 1    
    41   24   23 2    
    42   41   23 1    
    43   42   24 1    
    44   57   25 1    
    45   58   25 1    
    46   59   25 1    
    47   28   26 ar   
    48   29   26 ar   
    49   30   27 1    
    50   43   27 1    
    51   44   27 1    
    52   31   28 ar   
    53   45   28 1    
    54   32   29 ar   
    55   46   29 1    
    56   34   30 1    
    57   35   30 1    
    58   47   30 1    
    59   33   31 ar   
    60   48   31 1    
    61   33   32 ar   
    62   49   32 1    
    63   50   33 1    
    64   60   34 1    
    65   61   34 1    
    66   62   34 1    
    67   63   35 1    
    68   64   35 1    
    69   65   35 1    
@<TRIPOS>SUBSTRUCTURE
     1 X4Z1593     1 GROUP   
@<TRIPOS>SET

