#    Name: 3bel_POX_1_INTS_M
#    Modification time : Mon Mar 24 19:20:32 2014

@<TRIPOS>MOLECULE
3bel_POX_1_INTS_M
   79     0     9     0     0
SMALL
NO_CHARGES


@<TRIPOS>ATOM
      1 CA         13.2020   36.1235   95.7375 C.3       3 GLC5        0.0000 
      2 CA         14.9610   37.3430   96.2990 C.3       9 GLL5        0.0000 
      3 CA         11.4430   34.9040   95.1760 C.3       6 GLP5        0.0000 
      4 O          12.5050   33.0270   85.9280 O.2       1 ALC1        0.0000 
      5 O          13.6390   32.6540   86.7070 O.2       7 ALL1        0.0000 
      6 O          11.3710   33.4000   85.1490 O.2       4 ALP1        0.0000 
      7 CA         18.5800   34.4885   96.5000 C.3       3 GLC5        0.0000 
      8 CA         17.1620   36.1640   96.9160 C.3       9 GLL5        0.0000 
      9 CA         19.9980   32.8130   96.0840 C.3       6 GLP5        0.0000 
     10 CA         17.5520   35.0925   98.5465 C.3       3 GLC5        0.0000 
     11 CA         17.9420   34.0210  100.1770 C.3       6 GLP5        0.0000 
     12 CA         19.0540   36.1540   97.3060 C.3       3 GLC5        0.0000 
     13 CA         20.9460   36.1440   97.6960 C.3       6 GLP5        0.0000 
     14 CA         18.7380   37.3425   93.7125 C.3       3 GLC5        0.0000 
     15 CA         17.3560   35.7340   93.7050 C.3       9 GLL5        0.0000 
     16 CA         20.1200   38.9510   93.7200 C.3       6 GLP5        0.0000 
     17 CA         14.2880   32.4285   92.4330 C.3       3 GLC5        0.0000 
     18 CA         15.8280   33.4070   93.0430 C.3       9 GLL5        0.0000 
     19 CA         12.7480   31.4500   91.8230 C.3       6 GLP5        0.0000 
     20 CA         12.8225   32.7905   90.8185 C.3       3 GLC5        0.0000 
     21 CA         12.8970   34.1310   89.8140 C.3       9 GLL5        0.0000 
     22 CA         12.5880   34.2005   91.9340 C.3       3 GLC5        0.0000 
     23 CA         12.2790   34.2700   94.0540 C.3       6 GLP5        0.0000 
     24 CA         11.0390   33.2510   89.6525 C.3       3 GLC5        0.0000 
     25 CA          9.1810   32.3710   89.4910 C.3       6 GLP5        0.0000 
     26 CA         11.8680   35.4925   88.8315 C.3       3 GLC5        0.0000 
     27 CA         10.8390   36.8540   87.8490 C.3       6 GLP5        0.0000 
     28 CA         13.5100   35.5650   89.3875 C.3       3 GLC5        0.0000 
     29 CA         14.1230   36.9990   88.9610 C.3       6 GLP5        0.0000 
     30 CA         16.0345   31.8390   90.7150 C.3       3 GLC5        0.0000 
     31 CA         15.1670   33.6350   89.9000 C.3       9 GLL5        0.0000 
     32 CA         16.9020   30.0430   91.5300 C.3       6 GLP5        0.0000 
     33 CA         19.8375   33.8495   84.2385 C.3       3 GLC5        0.0000 
     34 CA         19.9100   31.8560   85.2010 C.3       9 GLL5        0.0000 
     35 CA         19.7650   35.8430   83.2760 C.3       6 GLP5        0.0000 
     36 CA         14.6095   39.9760   98.8665 C.3       3 GLC5        0.0000 
     37 CA         14.6110   39.7530   96.6510 C.3       9 GLL5        0.0000 
     38 CA         14.6080   40.1990  101.0820 C.3       6 GLP5        0.0000 
     39 CA         16.0210   40.1405   99.1955 C.3       3 GLC5        0.0000 
     40 CA         15.9310   39.8620   97.1820 C.3       9 GLL5        0.0000 
     41 CA         16.1110   40.4190  101.2090 C.3       6 GLP5        0.0000 
     42 CA         16.9025   38.7865   99.1750 C.3       3 GLC5        0.0000 
     43 CA         16.7710   38.7010   97.2720 C.3       9 GLL5        0.0000 
     44 CA         17.0340   38.8720  101.0780 C.3       6 GLP5        0.0000 
     45 CA         11.4165   39.3900   96.2000 C.3       3 GLC5        0.0000 
     46 CA         12.9030   38.3620   95.7080 C.3       9 GLL5        0.0000 
     47 CA          9.9300   40.4180   96.6920 C.3       6 GLP5        0.0000 
     48 CA         12.1730   36.6330   95.4420 C.3       3 GLC5        0.0000 
     49 N          11.4030   33.7415   88.1615 N.am      2 SEC2        0.0000 
     50 N          12.7520   33.6300   88.5560 N.am      8 SEL2        0.0000 
     51 N          10.0540   33.8530   87.7670 N.am      5 SEP2        0.0000 
     52 CA         12.4100   31.6865   87.9970 C.3       3 GLC5        0.0000 
     53 CA         13.8530   33.1220   87.9740 C.3       9 GLL5        0.0000 
     54 CA         10.9670   30.2510   88.0200 C.3       6 GLP5        0.0000 
     55 CA         12.4530   34.4820   87.3425 C.3       3 GLC5        0.0000 
     56 CA         11.0530   35.8420   86.7110 C.3       6 GLP5        0.0000 
     57 CA         17.9282   38.1470   95.8150 C.3       3 GLC5        0.0000 
     58 CA         16.2990   37.4260   96.8340 C.3       9 GLL5        0.0000 
     59 CA         19.1260   39.4990   94.7550 C.3       6 GLP5        0.0000 
     60 CA         12.2535   37.9705   97.4535 C.3       3 GLC5        0.0000 
     61 CA         10.9860   37.5170   98.9470 C.3       6 GLP5        0.0000 
     62 CA         16.5270   31.9112   92.0295 C.3       3 GLC5        0.0000 
     63 CA         17.1088   37.2032   91.9925 C.3       3 GLC5        0.0000 
     64 CA         16.9240   38.8880   90.9490 C.3       6 GLP5        0.0000 
     65 CA         18.6816   34.1544   94.2548 C.3       3 GLC5        0.0000 
     66 CA         17.2310   35.3030   92.3670 C.3       9 GLL5        0.0000 
     67 CA         20.3720   33.0650   94.6390 C.3       6 GLP5        0.0000 
     68 CA         16.9557   32.3922   94.9125 C.3       3 GLC5        0.0000 
     69 CA         15.9390   33.8240   94.3990 C.3       9 GLL5        0.0000 
     70 CA         18.0280   31.1690   96.1040 C.3       6 GLP5        0.0000 
     71 CA         14.0813   33.9427   93.8875 C.3       3 GLC5        0.0000 
     72 CA         17.7385   39.3903   95.9910 C.3       3 GLC5        0.0000 
     73 CA         12.9805   39.4094   94.4859 C.3       3 GLC5        0.0000 
     74 CA         12.3220   40.0780   92.9020 C.3       6 GLP5        0.0000 
     75 CA         14.6835   31.0933   88.3738 C.3       3 GLC5        0.0000 
     76 CA         15.1190   33.0870   88.6170 C.3       9 GLL5        0.0000 
     77 CA         14.8810   29.0820   88.4520 C.3       6 GLP5        0.0000 
     78 CA         13.6230   32.3458   90.2196 C.3       3 GLC5        0.0000 
     79 CA         14.3105   35.1203   88.7886 C.3       3 GLC5        0.0000 
@<TRIPOS>BOND
@<TRIPOS>SUBSTRUCTURE
     1 ALC1        4 GROUP        1 X    ALC  0     ROOT ALC X 1
     2 SEC2       49 GROUP        1 X    SEC  0     **** SEC X 2
     3 GLC5        1 GROUP        1 X    GLC  0     **** GLC X 6
     4 ALP1        6 GROUP        1 Y    ALP  0     ROOT ALP Y 8
     5 SEP2       51 GROUP        1 Y    SEP  0     **** SEP Y 9
     6 GLP5        3 GROUP        1 Y    GLP  0     **** GLP Y 13
     7 ALL1        5 GROUP        1 Z    ALL  0     ROOT ALL Z 15
     8 SEL2       50 GROUP        1 Z    SEL  0     **** SEL Z 16
     9 GLL5        2 GROUP        1 Z    GLL  0     **** GLL Z 20
@<TRIPOS>SET

