#    Name: 3bel_POX_1_ligand
#    Modification time : Mon Mar 24 19:20:32 2014

@<TRIPOS>MOLECULE
3bel_POX_1_ligand
   54    57     1     0     0
SMALL
NO_CHARGES


@<TRIPOS>ATOM
      1 C1         16.2990   37.4260   96.8340 C.ar      1 POX1        0.0000 
      2 C2         14.9610   37.3430   96.2990 C.ar      1 POX1        0.0000 
      3 C3         14.1390   38.4860   96.2120 C.ar      1 POX1        0.0000 
      4 N6         13.6390   32.6540   86.7070 N.pl3     1 POX1        0.0000 
      5 C7         17.1620   36.1640   96.9160 C.3       1 POX1        0.0000 
      6 C8         15.4530   33.3690   95.6360 C.2       1 POX1        0.0000 
      7 C9         16.4760   34.1520   92.0150 C.ar      1 POX1        0.0000 
      8 C10        17.2310   35.3030   92.3670 C.ar      1 POX1        0.0000 
      9 C11        17.3560   35.7340   93.7050 C.ar      1 POX1        0.0000 
     10 C12        16.6890   34.9690   94.7050 C.ar      1 POX1        0.0000 
     11 C13        15.9390   33.8240   94.3990 C.ar      1 POX1        0.0000 
     12 C14        15.8280   33.4070   93.0430 C.ar      1 POX1        0.0000 
     13 C15        12.8970   34.1310   89.8140 C.ar      1 POX1        0.0000 
     14 C16        15.1670   33.6350   89.9000 C.ar      1 POX1        0.0000 
     15 C19        16.3330   32.5230   87.9850 C.2       1 POX1        0.0000 
     16 C20        18.3720   31.9620   85.1860 C.3       1 POX1        0.0000 
     17 C21        19.9100   31.8560   85.2010 C.3       1 POX1        0.0000 
     18 C22        21.8320   31.8250   83.8940 C.3       1 POX1        0.0000 
     19 C4         14.6110   39.7530   96.6510 C.ar      1 POX1        0.0000 
     20 C5         15.9310   39.8620   97.1820 C.ar      1 POX1        0.0000 
     21 C6         16.7710   38.7010   97.2720 C.ar      1 POX1        0.0000 
     22 F1         12.9030   38.3620   95.7080 F         1 POX1        0.0000 
     23 N1         16.5820   35.1030   96.0790 N.pl3     1 POX1        0.0000 
     24 N2         15.8300   34.1290   96.6580 N.2       1 POX1        0.0000 
     25 N3         16.3180   33.7180   90.6900 N.pl3     1 POX1        0.0000 
     26 N4         12.7520   33.6300   88.5560 N.ar      1 POX1        0.0000 
     27 N5         14.0450   34.1580   90.5010 N.ar      1 POX1        0.0000 
     28 C17        15.1190   33.0870   88.6170 C.ar      1 POX1        0.0000 
     29 C18        13.8530   33.1220   87.9740 C.ar      1 POX1        0.0000 
     30 N7         16.6570   32.6170   86.7330 N.2       1 POX1        0.0000 
     31 O1         17.8930   31.9180   86.5560 O.3       1 POX1        0.0000 
     32 O2         20.4030   31.9070   83.8520 O.3       1 POX1        0.0000 
     33 H          14.6158   36.4327   95.9810 H         1 POX1        0.0000 
     34 H          14.2469   31.9218   86.3999 H         1 POX1        0.0000 
     35 H          12.8934   33.0851   86.1988 H         1 POX1        0.0000 
     36 H          17.2124   35.8495   97.9600 H         1 POX1        0.0000 
     37 H          18.1699   36.4146   96.5802 H         1 POX1        0.0000 
     38 H          14.8879   32.5572   95.6978 H         1 POX1        0.0000 
     39 H          17.7013   35.8380   91.6177 H         1 POX1        0.0000 
     40 H          17.8905   36.5441   93.9484 H         1 POX1        0.0000 
     41 H          15.2876   32.5792   92.8068 H         1 POX1        0.0000 
     42 H          12.0162   34.5335   90.2830 H         1 POX1        0.0000 
     43 H          16.9580   32.0007   88.6871 H         1 POX1        0.0000 
     44 H          17.9853   31.1318   84.6011 H         1 POX1        0.0000 
     45 H          18.1059   32.8969   84.7000 H         1 POX1        0.0000 
     46 H          20.1716   30.9174   85.6936 H         1 POX1        0.0000 
     47 H          20.2922   32.6818   85.8043 H         1 POX1        0.0000 
     48 H          14.0184   40.5714   96.5886 H         1 POX1        0.0000 
     49 H          16.2810   40.7618   97.4983 H         1 POX1        0.0000 
     50 H          17.7119   38.7909   97.6523 H         1 POX1        0.0000 
     51 H          17.2441   33.3930   90.1977 H         1 POX1        0.0000 
     52 H          22.2328   31.8554   82.9783 H         1 POX1        0.0000 
     53 H          22.2322   32.5794   84.4143 H         1 POX1        0.0000 
     54 H          22.1429   30.9764   84.3220 H         1 POX1        0.0000 
@<TRIPOS>BOND
     1    2    1 ar   
     2    5    1 1    
     3   21    1 ar   
     4    3    2 ar   
     5   33    2 1    
     6   19    3 ar   
     7   22    3 1    
     8   29    4 1    
     9   34    4 1    
    10   35    4 1    
    11   23    5 1    
    12   36    5 1    
    13   37    5 1    
    14   11    6 1    
    15   24    6 2    
    16   38    6 1    
    17    8    7 ar   
    18   12    7 ar   
    19   25    7 1    
    20    9    8 ar   
    21   39    8 1    
    22   10    9 ar   
    23   40    9 1    
    24   11   10 ar   
    25   23   10 1    
    26   12   11 ar   
    27   41   12 1    
    28   26   13 ar   
    29   27   13 ar   
    30   42   13 1    
    31   25   14 1    
    32   27   14 ar   
    33   28   14 ar   
    34   28   15 1    
    35   30   15 2    
    36   43   15 1    
    37   17   16 1    
    38   31   16 1    
    39   44   16 1    
    40   45   16 1    
    41   32   17 1    
    42   46   17 1    
    43   47   17 1    
    44   32   18 1    
    45   52   18 1    
    46   53   18 1    
    47   54   18 1    
    48   20   19 ar   
    49   48   19 1    
    50   21   20 ar   
    51   49   20 1    
    52   50   21 1    
    53   24   23 1    
    54   51   25 1    
    55   29   26 ar   
    56   29   28 ar   
    57   31   30 1    
@<TRIPOS>SUBSTRUCTURE
     1 POX1        1 GROUP   
@<TRIPOS>SET

