#    Name: 2wqo_VGK_1_INTS_M
#    Modification time : Tue Mar 25 04:35:42 2014

@<TRIPOS>MOLECULE
2wqo_VGK_1_INTS_M
   67     0    12     0     0
SMALL
NO_CHARGES


@<TRIPOS>ATOM
      1 CA         26.0205  -10.6595   24.3755 C.3       4 GLC5        0.0000 
      2 CA         27.7090  -10.1930   24.9340 C.3      12 GLL5        0.0000 
      3 CA         24.3320  -11.1260   23.8170 C.3       8 GLP5        0.0000 
      4 CA         26.5745   -5.5140   19.6650 C.3       4 GLC5        0.0000 
      5 CA         25.6980   -7.2420   20.6360 C.3      12 GLL5        0.0000 
      6 CA         27.4510   -3.7860   18.6940 C.3       8 GLP5        0.0000 
      7 CA         23.9840   -6.6970   21.4625 C.3       4 GLC5        0.0000 
      8 CA         22.2700   -6.1520   22.2890 C.3       8 GLP5        0.0000 
      9 N          24.5725   -5.3305   21.0340 N.am      2 SEC2        0.0000 
     10 N          25.1160   -6.2000   19.9750 N.am     10 SEL2        0.0000 
     11 N          24.0290   -4.4610   22.0930 N.am      6 SEP2        0.0000 
     12 CA         26.0240   -5.0730   18.7065 C.3       4 GLC5        0.0000 
     13 CA         24.5970   -6.3600   18.7190 C.3      12 GLL5        0.0000 
     14 CA         22.9395   -5.8405   19.8495 C.3       4 GLC5        0.0000 
     15 CA         21.2820   -5.3210   20.9800 C.3       8 GLP5        0.0000 
     16 O          23.9215   -3.9545   18.3330 O.2       1 ALC1        0.0000 
     17 O          23.9650   -5.2830   18.0280 O.2       9 ALL1        0.0000 
     18 O          23.8780   -2.6260   18.6380 O.2       5 ALP1        0.0000 
     19 CA         26.1935   -6.3525   16.0305 C.3       4 GLC5        0.0000 
     20 CA         24.9980   -8.2350   15.7790 C.3      12 GLL5        0.0000 
     21 CA         27.3890   -4.4700   16.2820 C.3       8 GLP5        0.0000 
     22 N          20.4560   -6.8660   12.5755 N.am      2 SEC2        0.0000 
     23 N          21.4880   -7.8910   12.5800 N.am     10 SEL2        0.0000 
     24 N          19.4240   -5.8410   12.5710 N.am      6 SEP2        0.0000 
     25 N          20.2210   -8.3080   12.6545 N.am      2 SEC2        0.0000 
     26 N          18.9540   -8.7250   12.7290 N.am      6 SEP2        0.0000 
     27 NZ         23.3970   -8.3955   10.4380 N.4       3 LYC4        0.0000 
     28 NZ         23.3650   -8.8790   11.8350 N.4      11 LYL4        0.0000 
     29 NZ         23.4290   -7.9120    9.0410 N.4       7 LYP4        0.0000 
     30 N          23.3970   -8.3955   10.4380 N.am      2 SEC2        0.0000 
     31 N          23.3650   -8.8790   11.8350 N.am     10 SEL2        0.0000 
     32 N          23.4290   -7.9120    9.0410 N.am      6 SEP2        0.0000 
     33 CA         21.3020   -5.9115   15.7520 C.3       4 GLC5        0.0000 
     34 CA         22.2870   -7.7250   15.2850 C.3      12 GLL5        0.0000 
     35 CA         20.3170   -4.0980   16.2190 C.3       8 GLP5        0.0000 
     36 CA         20.8925   -6.7360   16.9720 C.3       4 GLC5        0.0000 
     37 CA         22.8030   -7.5580   16.5790 C.3      12 GLL5        0.0000 
     38 CA         18.9820   -5.9140   17.3650 C.3       8 GLP5        0.0000 
     39 CA         27.9395  -11.9340   19.0350 C.3       4 GLC5        0.0000 
     40 CA         26.2790  -13.4290   19.0200 C.3      12 GLL5        0.0000 
     41 CA         29.6000  -10.4390   19.0500 C.3       8 GLP5        0.0000 
     42 CA         24.1820  -13.6250   19.8005 C.3       4 GLC5        0.0000 
     43 CA         22.0850  -13.8210   20.5810 C.3       8 GLP5        0.0000 
     44 CA         29.6125  -11.6485   20.8640 C.3       4 GLC5        0.0000 
     45 CA         29.6250  -12.8580   22.6780 C.3      12 GLL5        0.0000 
     46 CA         28.5035  -10.1465   20.6285 C.3       4 GLC5        0.0000 
     47 CA         27.7100  -10.3830   22.5400 C.3      12 GLL5        0.0000 
     48 CA         25.8695  -10.4900   23.0120 C.3       4 GLC5        0.0000 
     49 CA         27.1040   -9.3250   21.8740 C.3      12 GLL5        0.0000 
     50 CA         27.9790  -10.3163   19.7300 C.3       4 GLC5        0.0000 
     51 CA         26.4100   -9.5550   20.6660 C.3      12 GLL5        0.0000 
     52 CA         25.3450  -10.6597   22.1135 C.3       4 GLC5        0.0000 
     53 CA         26.3060  -10.8320   20.1540 C.3      12 GLL5        0.0000 
     54 CA         24.1855   -6.3095   15.4078 C.3       4 GLC5        0.0000 
     55 CA         24.1620   -7.8250   16.8300 C.3      12 GLL5        0.0000 
     56 CA         23.7910   -4.5890   14.5110 C.3       8 GLP5        0.0000 
     57 CA         26.3718   -8.6370   14.2585 C.3       4 GLC5        0.0000 
     58 CA         28.0060   -8.9570   13.3810 C.3       8 GLP5        0.0000 
     59 CA         23.7985   -6.4330   14.4428 C.3       4 GLC5        0.0000 
     60 CA         24.4770   -8.3990   14.4930 C.3      12 GLL5        0.0000 
     61 CA         23.1680   -6.1152   15.2215 C.3       4 GLC5        0.0000 
     62 CA         27.5065   -7.8195   19.3528 C.3       4 GLC5        0.0000 
     63 CA         25.2800   -8.6840   18.7420 C.3      12 GLL5        0.0000 
     64 CA         29.5000   -7.3630   19.1720 C.3       8 GLP5        0.0000 
     65 CA         28.4352  -11.1270   20.2350 C.3       4 GLC5        0.0000 
     66 CA         26.9290  -11.9280   20.8270 C.3      12 GLL5        0.0000 
     67 CA         25.8012  -11.4705   22.6185 C.3       4 GLC5        0.0000 
@<TRIPOS>BOND
@<TRIPOS>SUBSTRUCTURE
     1 ALC1       16 GROUP        1 X    ALC  0     ROOT ALC X 1
     2 SEC2        9 GROUP        1 X    SEC  0     **** SEC X 2
     3 LYC4       27 GROUP        1 X    LYC  0     **** LYC X 4
     4 GLC5        1 GROUP        1 X    GLC  0     **** GLC X 6
     5 ALP1       18 GROUP        1 Y    ALP  0     ROOT ALP Y 8
     6 SEP2       11 GROUP        1 Y    SEP  0     **** SEP Y 9
     7 LYP4       29 GROUP        1 Y    LYP  0     **** LYP Y 11
     8 GLP5        3 GROUP        1 Y    GLP  0     **** GLP Y 13
     9 ALL1       17 GROUP        1 Z    ALL  0     ROOT ALL Z 15
    10 SEL2       10 GROUP        1 Z    SEL  0     **** SEL Z 16
    11 LYL4       28 GROUP        1 Z    LYL  0     **** LYL Z 18
    12 GLL5        2 GROUP        1 Z    GLL  0     **** GLL Z 20
@<TRIPOS>SET

