#    Name: 2wqo_VGK_1_ligand
#    Modification time : Tue Mar 25 04:35:42 2014

@<TRIPOS>MOLECULE
2wqo_VGK_1_ligand
   47    49     1     0     0
SMALL
NO_CHARGES


@<TRIPOS>ATOM
      1 C01        27.7090  -10.1930   24.9340 C.3       1 VGK1280     0.0000 
      2 O02        28.3910  -10.1580   23.7050 O.3       1 VGK1280     0.0000 
      3 C03        27.7100  -10.3830   22.5400 C.ar      1 VGK1280     0.0000 
      4 C04        27.1040   -9.3250   21.8740 C.ar      1 VGK1280     0.0000 
      5 C05        26.4100   -9.5550   20.6660 C.ar      1 VGK1280     0.0000 
      6 C06        25.7940   -8.4940   20.0140 C.ar      1 VGK1280     0.0000 
      7 C07        25.6980   -7.2420   20.6360 C.ar      1 VGK1280     0.0000 
      8 N08        25.1160   -6.2000   19.9750 N.ar      1 VGK1280     0.0000 
      9 C09        24.5970   -6.3600   18.7190 C.ar      1 VGK1280     0.0000 
     10 N10        23.9650   -5.2830   18.0280 N.pl3     1 VGK1280     0.0000 
     11 C11        24.6910   -7.6290   18.1030 C.ar      1 VGK1280     0.0000 
     12 C12        24.1620   -7.8250   16.8300 C.ar      1 VGK1280     0.0000 
     13 C13        24.9980   -8.2350   15.7790 C.ar      1 VGK1280     0.0000 
     14 C14        24.4770   -8.3990   14.4930 C.ar      1 VGK1280     0.0000 
     15 C15        23.1350   -8.1550   14.2560 C.ar      1 VGK1280     0.0000 
     16 C16        22.5760   -8.3190   12.8410 C.2       1 VGK1280     0.0000 
     17 O17        21.4880   -7.8910   12.5800 O.co2     1 VGK1280     0.0000 
     18 O18        23.3650   -8.8790   11.8350 O.co2     1 VGK1280     0.0000 
     19 C19        22.2870   -7.7250   15.2850 C.ar      1 VGK1280     0.0000 
     20 C20        22.8030   -7.5580   16.5790 C.ar      1 VGK1280     0.0000 
     21 C21        25.2800   -8.6840   18.7420 C.ar      1 VGK1280     0.0000 
     22 C22        26.3060  -10.8320   20.1540 C.ar      1 VGK1280     0.0000 
     23 C23        26.9290  -11.9280   20.8270 C.ar      1 VGK1280     0.0000 
     24 O24        26.8540  -13.2300   20.3080 O.3       1 VGK1280     0.0000 
     25 C25        26.2790  -13.4290   19.0200 C.3       1 VGK1280     0.0000 
     26 C26        27.6120  -11.7020   22.0130 C.ar      1 VGK1280     0.0000 
     27 O27        28.2110  -12.7540   22.6730 O.3       1 VGK1280     0.0000 
     28 C28        29.6250  -12.8580   22.6780 C.3       1 VGK1280     0.0000 
     29 H          27.1550   -8.3732   22.2515 H         1 VGK1280     0.0000 
     30 H          26.0703   -7.1258   21.5887 H         1 VGK1280     0.0000 
     31 H          23.9693   -4.3983   18.4941 H         1 VGK1280     0.0000 
     32 H          23.5710   -5.5036   17.1358 H         1 VGK1280     0.0000 
     33 H          25.9917   -8.4135   15.9587 H         1 VGK1280     0.0000 
     34 H          25.0935   -8.7004   13.7283 H         1 VGK1280     0.0000 
     35 H          21.3025   -7.5347   15.0960 H         1 VGK1280     0.0000 
     36 H          22.1956   -7.2435   17.3383 H         1 VGK1280     0.0000 
     37 H          25.3444   -9.6044   18.2941 H         1 VGK1280     0.0000 
     38 H          25.7858  -11.0176   19.2907 H         1 VGK1280     0.0000 
     39 H          28.3214  -10.0129   25.7038 H         1 VGK1280     0.0000 
     40 H          26.9797   -9.5100   24.9736 H         1 VGK1280     0.0000 
     41 H          27.2855  -11.0838   25.0985 H         1 VGK1280     0.0000 
     42 H          26.7784  -12.9329   18.3097 H         1 VGK1280     0.0000 
     43 H          26.2788  -14.3942   18.7585 H         1 VGK1280     0.0000 
     44 H          25.3301  -13.1155   18.9844 H         1 VGK1280     0.0000 
     45 H          30.0546  -12.0601   23.1009 H         1 VGK1280     0.0000 
     46 H          29.9365  -13.6617   23.1849 H         1 VGK1280     0.0000 
     47 H          29.9951  -12.9339   21.7521 H         1 VGK1280     0.0000 
@<TRIPOS>BOND
     1    2    1 1    
     2   39    1 1    
     3   40    1 1    
     4   41    1 1    
     5    3    2 1    
     6    4    3 ar   
     7   26    3 ar   
     8    5    4 ar   
     9   29    4 1    
    10    6    5 1    
    11   22    5 ar   
    12    7    6 ar   
    13   21    6 ar   
    14    8    7 ar   
    15   30    7 1    
    16    9    8 ar   
    17   10    9 1    
    18   11    9 ar   
    19   31   10 1    
    20   32   10 1    
    21   12   11 1    
    22   21   11 ar   
    23   13   12 ar   
    24   20   12 ar   
    25   14   13 ar   
    26   33   13 1    
    27   15   14 ar   
    28   34   14 1    
    29   16   15 1    
    30   19   15 ar   
    31   17   16 ar   
    32   18   16 ar   
    33   20   19 ar   
    34   35   19 1    
    35   36   20 1    
    36   37   21 1    
    37   23   22 ar   
    38   38   22 1    
    39   24   23 1    
    40   26   23 ar   
    41   25   24 1    
    42   42   25 1    
    43   43   25 1    
    44   44   25 1    
    45   27   26 1    
    46   28   27 1    
    47   45   28 1    
    48   46   28 1    
    49   47   28 1    
@<TRIPOS>SUBSTRUCTURE
     1 VGK1280     1 GROUP   
@<TRIPOS>SET

