#    Name: 1ia4_TQ6_2_INTS_M
#    Modification time : Tue Mar 25 06:50:52 2014

@<TRIPOS>MOLECULE
1ia4_TQ6_2_INTS_M
   65     0     9     0     0
SMALL
NO_CHARGES


@<TRIPOS>ATOM
      1 CA          8.3270   32.5015   18.5790 C.3       3 GLC5        0.0000 
      2 CA          8.3880   34.6470   17.9080 C.3       9 GLL5        0.0000 
      3 CA          8.2660   30.3560   19.2500 C.3       6 GLP5        0.0000 
      4 CA          7.0065   33.6695   16.5700 C.3       3 GLC5        0.0000 
      5 CA          5.6250   32.6920   15.2320 C.3       6 GLP5        0.0000 
      6 CA          6.0660   33.1185   19.1525 C.3       3 GLC5        0.0000 
      7 CA          6.2510   35.0900   18.6280 C.3       9 GLL5        0.0000 
      8 CA          5.8810   31.1470   19.6770 C.3       6 GLP5        0.0000 
      9 CA          5.9380   33.8910   16.9300 C.3       3 GLC5        0.0000 
     10 CA          5.2170   36.1280   17.2545 C.3       3 GLC5        0.0000 
     11 CA          4.1830   37.1660   15.8810 C.3       6 GLP5        0.0000 
     12 CA          6.9150   35.3685   20.6650 C.3       3 GLC5        0.0000 
     13 CA          7.5790   35.6470   22.7020 C.3       6 GLP5        0.0000 
     14 N           5.7590   37.2780   19.4485 N.am      2 SEC2        0.0000 
     15 N           6.6190   36.3570   19.1200 N.am      8 SEL2        0.0000 
     16 N           4.8990   38.1990   19.7770 N.am      5 SEP2        0.0000 
     17 CA          8.0375   39.8555   20.7945 C.3       3 GLC5        0.0000 
     18 CA          8.3360   38.0070   19.6110 C.3       9 GLL5        0.0000 
     19 CA          7.7390   41.7040   21.9780 C.3       6 GLP5        0.0000 
     20 O           4.1710   35.7145   19.3485 O.2       1 ALC1        0.0000 
     21 O           4.9690   34.7800   18.8560 O.2       7 ALL1        0.0000 
     22 O           3.3730   36.6490   19.8410 O.2       4 ALP1        0.0000 
     23 O           8.4300   32.4485   16.7835 O.2       1 ALC1        0.0000 
     24 O           9.0930   33.6590   17.2880 O.2       7 ALL1        0.0000 
     25 O           7.7670   31.2380   16.2790 O.2       4 ALP1        0.0000 
     26 O          10.2230   33.1335   16.5480 O.2       1 ALC1        0.0000 
     27 O          11.3530   32.6080   15.8080 O.2       4 ALP1        0.0000 
     28 CA         11.4145   34.6075   19.5450 C.3       3 GLC5        0.0000 
     29 CA         11.6170   35.4510   17.6790 C.3       9 GLL5        0.0000 
     30 CA         11.2120   33.7640   21.4110 C.3       6 GLP5        0.0000 
     31 CA         12.0320   33.3930   18.0165 C.3       3 GLC5        0.0000 
     32 CA         12.4470   31.3350   18.3540 C.3       6 GLP5        0.0000 
     33 CA          9.3945   38.2785   15.5445 C.3       3 GLC5        0.0000 
     34 CA         10.6550   36.6950   15.3720 C.3       9 GLL5        0.0000 
     35 CA          8.1340   39.8620   15.7170 C.3       6 GLP5        0.0000 
     36 CA          9.7100   38.7195   14.0090 C.3       3 GLC5        0.0000 
     37 CA         10.8020   37.0480   14.0120 C.3       9 GLL5        0.0000 
     38 CA          8.6180   40.3910   14.0060 C.3       6 GLP5        0.0000 
     39 CA         14.1935   39.7140    9.5715 C.3       3 GLC5        0.0000 
     40 CA         13.5930   38.0660   10.3210 C.3       9 GLL5        0.0000 
     41 CA         14.7940   41.3620    8.8220 C.3       6 GLP5        0.0000 
     42 CA         15.1515   37.6980    8.9485 C.3       3 GLC5        0.0000 
     43 CA         16.7100   37.3300    7.5760 C.3       6 GLP5        0.0000 
     44 CA         12.4750   35.0765   11.0620 C.3       3 GLC5        0.0000 
     45 CA         11.1370   36.8620   10.9470 C.3       9 GLL5        0.0000 
     46 CA         13.8130   33.2910   11.1770 C.3       6 GLP5        0.0000 
     47 CA         10.2855   38.8990    9.0465 C.3       3 GLC5        0.0000 
     48 CA         11.6240   37.2000    9.5190 C.3       9 GLL5        0.0000 
     49 CA          8.9470   40.5980    8.5740 C.3       6 GLP5        0.0000 
     50 CA         11.9410   35.5335    8.1375 C.3       3 GLC5        0.0000 
     51 CA         12.2580   33.8670    6.7560 C.3       6 GLP5        0.0000 
     52 CA         11.0195   36.8990    7.7430 C.3       3 GLC5        0.0000 
     53 CA         10.4150   36.5980    5.9670 C.3       6 GLP5        0.0000 
     54 CA          9.4044   39.3014   17.9775 C.3       3 GLC5        0.0000 
     55 CA          9.5720   40.5920   16.5410 C.3       6 GLP5        0.0000 
     56 CA          7.9908   36.4111   20.9375 C.3       3 GLC5        0.0000 
     57 CA         13.1115   34.8235   12.3792 C.3       3 GLC5        0.0000 
     58 CA         12.9090   35.9780   13.8920 C.3       9 GLL5        0.0000 
     59 CA         14.4950   35.5370   15.0507 C.3       3 GLC5        0.0000 
     60 CA         16.1660   35.2970   15.5480 C.3       6 GLP5        0.0000 
     61 CA         12.8895   33.8620   14.0958 C.3       3 GLC5        0.0000 
     62 CA         12.7390   35.5760   15.2150 C.3       9 GLL5        0.0000 
     63 CA         12.9550   31.9470   13.6380 C.3       6 GLP5        0.0000 
     64 CA          9.9588   35.8535    9.3035 C.3       3 GLC5        0.0000 
     65 CA          8.5370   34.6760    8.3740 C.3       6 GLP5        0.0000 
@<TRIPOS>BOND
@<TRIPOS>SUBSTRUCTURE
     1 ALC1       20 GROUP        1 X    ALC  0     ROOT ALC X 1
     2 SEC2       14 GROUP        1 X    SEC  0     **** SEC X 2
     3 GLC5        1 GROUP        1 X    GLC  0     **** GLC X 6
     4 ALP1       22 GROUP        1 Y    ALP  0     ROOT ALP Y 8
     5 SEP2       16 GROUP        1 Y    SEP  0     **** SEP Y 9
     6 GLP5        3 GROUP        1 Y    GLP  0     **** GLP Y 13
     7 ALL1       21 GROUP        1 Z    ALL  0     ROOT ALL Z 15
     8 SEL2       15 GROUP        1 Z    SEL  0     **** SEL Z 16
     9 GLL5        2 GROUP        1 Z    GLL  0     **** GLL Z 20
@<TRIPOS>SET

