#    Name: 1ia4_TQ6_2_ligand
#    Modification time : Tue Mar 25 06:50:52 2014

@<TRIPOS>MOLECULE
1ia4_TQ6_2_ligand
   43    46     1     0     0
SMALL
NO_CHARGES


@<TRIPOS>ATOM
      1 C1          8.3880   34.6470   17.9080 C.ar      1 TQ6196      0.0000 
      2 N2          7.1460   34.3160   18.0620 N.ar      1 TQ6196      0.0000 
      3 C3          6.2510   35.0900   18.6280 C.ar      1 TQ6196      0.0000 
      4 N4          6.6190   36.3570   19.1200 N.ar      1 TQ6196      0.0000 
      5 C5         10.6190   37.6000   18.9330 C.ar      1 TQ6196      0.0000 
      6 C6         10.2880   36.3670   18.3750 C.ar      1 TQ6196      0.0000 
      7 C7          8.9320   35.9090   18.4450 C.ar      1 TQ6196      0.0000 
      8 C8          8.0060   36.7780   19.0250 C.ar      1 TQ6196      0.0000 
      9 C9          8.3360   38.0070   19.6110 C.ar      1 TQ6196      0.0000 
     10 C10         9.6560   38.4290   19.5010 C.ar      1 TQ6196      0.0000 
     11 N11         4.9690   34.7800   18.8560 N.pl3     1 TQ6196      0.0000 
     12 N12         9.0930   33.6590   17.2880 N.pl3     1 TQ6196      0.0000 
     13 S21        11.6170   35.4510   17.6790 S.3       1 TQ6196      0.0000 
     14 C22        11.6600   35.9580   15.9960 C.ar      1 TQ6196      0.0000 
     15 C23        10.6550   36.6950   15.3720 C.ar      1 TQ6196      0.0000 
     16 C24        10.8020   37.0480   14.0120 C.ar      1 TQ6196      0.0000 
     17 C25        11.9110   36.7340   13.2710 C.ar      1 TQ6196      0.0000 
     18 C26        12.9090   35.9780   13.8920 C.ar      1 TQ6196      0.0000 
     19 C27        12.7390   35.5760   15.2150 C.ar      1 TQ6196      0.0000 
     20 C32        13.5930   38.0660   10.3210 C.3       1 TQ6196      0.0000 
     21 C33        13.1560   38.1940   11.8210 C.3       1 TQ6196      0.0000 
     22 N34        12.1200   37.1000   11.9930 N.3       1 TQ6196      0.0000 
     23 C35        11.1370   36.8620   10.9470 C.3       1 TQ6196      0.0000 
     24 C36        11.6240   37.2000    9.5190 C.3       1 TQ6196      0.0000 
     25 O37        12.3710   38.4050    9.5870 O.3       1 TQ6196      0.0000 
     26 H          11.6121   37.9086   18.9246 H         1 TQ6196      0.0000 
     27 H           7.6426   38.5577   20.0905 H         1 TQ6196      0.0000 
     28 H           9.9249   39.3648   19.8432 H         1 TQ6196      0.0000 
     29 H           9.8902   33.9520   16.7602 H         1 TQ6196      0.0000 
     30 H           8.7509   32.7280   17.4155 H         1 TQ6196      0.0000 
     31 H           9.8212   36.9798   15.8830 H         1 TQ6196      0.0000 
     32 H          10.0129   37.5768   13.5628 H         1 TQ6196      0.0000 
     33 H          13.7556   35.7233   13.3783 H         1 TQ6196      0.0000 
     34 H          13.4701   34.9494   15.6408 H         1 TQ6196      0.0000 
     35 H          13.8926   37.0615   10.1538 H         1 TQ6196      0.0000 
     36 H          14.3699   38.7680   10.1473 H         1 TQ6196      0.0000 
     37 H          12.7209   39.1471   11.9658 H         1 TQ6196      0.0000 
     38 H          13.9979   38.0116   12.4347 H         1 TQ6196      0.0000 
     39 H          10.2146   37.4548   11.1293 H         1 TQ6196      0.0000 
     40 H          10.8151   35.7982   10.9419 H         1 TQ6196      0.0000 
     41 H          10.7419   37.2924    8.8889 H         1 TQ6196      0.0000 
     42 H          12.2213   36.3592    9.1726 H         1 TQ6196      0.0000 
     43 H           4.5513   35.6288   19.1802 H         1 TQ6196      0.0000 
@<TRIPOS>BOND
     1    2    1 ar   
     2    7    1 ar   
     3   12    1 1    
     4    3    2 ar   
     5    4    3 ar   
     6   11    3 1    
     7    8    4 ar   
     8    6    5 ar   
     9   10    5 ar   
    10   26    5 1    
    11    7    6 ar   
    12   13    6 1    
    13    8    7 ar   
    14    9    8 ar   
    15   10    9 ar   
    16   27    9 1    
    17   28   10 1    
    18   43   11 1    
    19   29   12 1    
    20   30   12 1    
    21   14   13 1    
    22   15   14 ar   
    23   19   14 ar   
    24   16   15 ar   
    25   31   15 1    
    26   17   16 ar   
    27   32   16 1    
    28   18   17 ar   
    29   22   17 1    
    30   19   18 ar   
    31   33   18 1    
    32   34   19 1    
    33   21   20 1    
    34   25   20 1    
    35   35   20 1    
    36   36   20 1    
    37   22   21 1    
    38   37   21 1    
    39   38   21 1    
    40   23   22 1    
    41   24   23 1    
    42   39   23 1    
    43   40   23 1    
    44   25   24 1    
    45   41   24 1    
    46   42   24 1    
@<TRIPOS>SUBSTRUCTURE
     1 TQ6196      1 GROUP   
@<TRIPOS>SET

