#    Name: 3ewh_K11_1_INTS_M
#    Modification time : Tue Mar 25 02:36:04 2014

@<TRIPOS>MOLECULE
3ewh_K11_1_INTS_M
  106     0     9     0     0
SMALL
NO_CHARGES


@<TRIPOS>ATOM
      1 CA         18.8040   -8.9110    1.6805 C.3       3 GLC5        0.0000 
      2 CA         16.8160   -8.1090    1.3340 C.3       9 GLL5        0.0000 
      3 CA         20.7920   -9.7130    2.0270 C.3       6 GLP5        0.0000 
      4 CA         17.0980   -9.9545    1.7405 C.3       3 GLC5        0.0000 
      5 CA         17.3800  -11.8000    2.1470 C.3       6 GLP5        0.0000 
      6 CA         15.3655   -7.2435    0.4955 C.3       3 GLC5        0.0000 
      7 CA         13.9150   -6.3780   -0.3430 C.3       6 GLP5        0.0000 
      8 O          14.6070   -9.3345    1.6255 O.2       1 ALC1        0.0000 
      9 O          15.8220   -8.7540    2.2110 O.2       7 ALL1        0.0000 
     10 O          13.3920   -9.9150    1.0400 O.2       4 ALP1        0.0000 
     11 CA         13.6750   -9.0710    3.3875 C.3       3 GLC5        0.0000 
     12 CA         15.8620   -8.6010    3.5410 C.3       9 GLL5        0.0000 
     13 CA         11.4880   -9.5410    3.2340 C.3       6 GLP5        0.0000 
     14 CA         14.6440   -7.0485    3.6110 C.3       3 GLC5        0.0000 
     15 CA         13.4260   -5.4960    3.6810 C.3       6 GLP5        0.0000 
     16 N          14.0475  -10.3525    4.0010 N.am      2 SEC2        0.0000 
     17 N          15.0370   -9.3280    4.3250 N.am      8 SEL2        0.0000 
     18 N          13.0580  -11.3770    3.6770 N.am      5 SEP2        0.0000 
     19 CA         14.6310  -11.0580    5.3875 C.3       3 GLC5        0.0000 
     20 CA         15.0690   -9.1880    5.6480 C.3       9 GLL5        0.0000 
     21 CA         14.1930  -12.9280    5.1270 C.3       6 GLP5        0.0000 
     22 CA         13.2785   -9.3645    4.4410 C.3       3 GLC5        0.0000 
     23 CA         18.4870   -8.8190    4.9165 C.3       3 GLC5        0.0000 
     24 CA         16.8120   -7.5250    5.4230 C.3       9 GLL5        0.0000 
     25 CA         20.1620  -10.1130    4.4100 C.3       6 GLP5        0.0000 
     26 CA         15.1190   -6.5105    4.5520 C.3       3 GLC5        0.0000 
     27 CA         21.8995   -4.8570    5.1895 C.3       3 GLC5        0.0000 
     28 CA         19.7820   -5.3390    5.5830 C.3       9 GLL5        0.0000 
     29 CA         24.0170   -4.3750    4.7960 C.3       6 GLP5        0.0000 
     30 CA         20.7890   -5.5145    8.1190 C.3       3 GLC5        0.0000 
     31 CA         19.6830   -4.8440    6.8790 C.3       9 GLL5        0.0000 
     32 CA         21.8950   -6.1850    9.3590 C.3       6 GLP5        0.0000 
     33 CA         19.3810   -7.1140    7.6405 C.3       3 GLC5        0.0000 
     34 CA         17.7220   -6.0710    7.2430 C.3       9 GLL5        0.0000 
     35 CA         21.0400   -8.1570    8.0380 C.3       6 GLP5        0.0000 
     36 CA         16.2800   -2.0710    9.9020 C.3       3 GLC5        0.0000 
     37 CA         15.5420   -4.0150   10.5940 C.3       9 GLL5        0.0000 
     38 CA         17.0180   -0.1270    9.2100 C.3       6 GLP5        0.0000 
     39 CA         19.3220   -7.9145    9.2295 C.3       3 GLC5        0.0000 
     40 CA         17.6040   -7.6720   10.4210 C.3       9 GLL5        0.0000 
     41 CA         17.8045   -9.2460    8.9420 C.3       3 GLC5        0.0000 
     42 CA         18.0050  -10.8200    7.4630 C.3       6 GLP5        0.0000 
     43 CA         17.7110   -8.5670   14.6040 C.3       3 GLC5        0.0000 
     44 CA         17.7780   -7.6890   12.8270 C.3       9 GLL5        0.0000 
     45 CA         17.6440   -9.4450   16.3810 C.3       6 GLP5        0.0000 
     46 O          16.5045   -3.9580   14.0440 O.2       1 ALC1        0.0000 
     47 O          15.7480   -4.0550   12.9760 O.2       7 ALL1        0.0000 
     48 O          17.2610   -3.8610   15.1120 O.2       4 ALP1        0.0000 
     49 CA         11.9760   -4.6470   12.4950 C.3       3 GLC5        0.0000 
     50 CA         12.5670   -2.8950   13.7070 C.3       9 GLL5        0.0000 
     51 CA         11.3850   -6.3990   11.2830 C.3       6 GLP5        0.0000 
     52 CA          8.7895    0.5745   12.7715 C.3       3 GLC5        0.0000 
     53 CA          8.9350   -0.8550   13.5730 C.3       9 GLL5        0.0000 
     54 CA          8.6440    2.0040   11.9700 C.3       6 GLP5        0.0000 
     55 CA          8.1245   -0.7720   11.8910 C.3       3 GLC5        0.0000 
     56 CA          7.3140   -0.6890   10.2090 C.3       6 GLP5        0.0000 
     57 CA          7.0430   -1.4210   15.8680 C.3       3 GLC5        0.0000 
     58 CA          8.7540   -0.8690   15.7530 C.3       9 GLL5        0.0000 
     59 CA          5.3320   -1.9730   15.9830 C.3       6 GLP5        0.0000 
     60 CA          6.8525   -2.3185   15.2935 C.3       3 GLC5        0.0000 
     61 CA          8.3730   -2.6640   14.6040 C.3       9 GLL5        0.0000 
     62 CA          9.9185   -2.4040   17.2840 C.3       3 GLC5        0.0000 
     63 CA         11.2860   -1.8160   15.9530 C.3       9 GLL5        0.0000 
     64 CA          8.5510   -2.9920   18.6150 C.3       6 GLP5        0.0000 
     65 CA         12.1905   -2.2215   18.2250 C.3       3 GLC5        0.0000 
     66 CA         12.6270   -2.1860   16.0300 C.3       9 GLL5        0.0000 
     67 CA         11.7540   -2.2570   20.4200 C.3       6 GLP5        0.0000 
     68 CA         16.7600   -9.7782    6.7015 C.3       3 GLC5        0.0000 
     69 CA         15.9610   -8.2850    6.2320 C.3       9 GLL5        0.0000 
     70 CA         14.1425   -7.4113    5.9850 C.3       3 GLC5        0.0000 
     71 CA         12.7700   -6.0860    6.0300 C.3       6 GLP5        0.0000 
     72 CA         17.6455   -8.9435    6.5713 C.3       3 GLC5        0.0000 
     73 CA         20.4783   -6.9772    4.5897 C.3       3 GLC5        0.0000 
     74 CA         18.8230   -6.2300    5.1060 C.3       9 GLL5        0.0000 
     75 CA         21.6540   -8.1700    3.8350 C.3       6 GLP5        0.0000 
     76 CA         20.0384   -7.0181    6.7950 C.3       3 GLC5        0.0000 
     77 CA         13.9217   -3.8195    9.5347 C.3       3 GLC5        0.0000 
     78 CA         15.7870   -4.6190    9.3570 C.3       9 GLL5        0.0000 
     79 CA         12.1790   -3.3220    9.0940 C.3       6 GLP5        0.0000 
     80 CA         15.9860   -8.4160   11.4965 C.3       3 GLC5        0.0000 
     81 CA         16.9120   -6.4520   10.4710 C.3       9 GLL5        0.0000 
     82 CA         14.7140   -9.7700   12.5470 C.3       6 GLP5        0.0000 
     83 CA         19.6260   -7.9037   12.5885 C.3       3 GLC5        0.0000 
     84 CA         18.0360   -8.2900   11.5930 C.3       9 GLL5        0.0000 
     85 CA         21.3450   -7.8180   12.9670 C.3       6 GLP5        0.0000 
     86 CA         16.3105   -8.8797   12.3785 C.3       3 GLC5        0.0000 
     87 CA         15.7965   -7.9647   12.4238 C.3       3 GLC5        0.0000 
     88 CA         17.0980   -6.4710   12.8880 C.3       9 GLL5        0.0000 
     89 CA         18.4070   -5.1751   12.2698 C.3       3 GLC5        0.0000 
     90 CA         20.3630   -4.8790   12.6560 C.3       6 GLP5        0.0000 
     91 CA         11.8390   -4.3718   14.8332 C.3       3 GLC5        0.0000 
     92 CA         11.7840   -6.0320   15.9970 C.3       6 GLP5        0.0000 
     93 CA         11.5255   -2.5743   11.7392 C.3       3 GLC5        0.0000 
     94 CA         11.1570   -2.4370    9.8090 C.3       6 GLP5        0.0000 
     95 CA         11.3598   -3.9665   15.6760 C.3       3 GLC5        0.0000 
     96 CA         10.5850   -1.9860   14.7570 C.3       9 GLL5        0.0000 
     97 CA          7.9685   -3.7388   14.0150 C.3       3 GLC5        0.0000 
     98 CA          9.1150   -1.5770   14.6740 C.3       9 GLL5        0.0000 
     99 CA          7.1930   -5.3570   13.3910 C.3       6 GLP5        0.0000 
    100 CA          7.2485   -0.7955   14.0762 C.3       3 GLC5        0.0000 
    101 CA          5.4720   -0.3750   14.0290 C.3       6 GLP5        0.0000 
    102 CA          8.6943   -2.4933   16.7671 C.3       3 GLC5        0.0000 
    103 CA         12.3635   -4.2428   15.7330 C.3       3 GLC5        0.0000 
    104 CA         13.0292   -1.0331   13.3639 C.3       3 GLC5        0.0000 
    105 CA         13.2590   -2.7210   14.9080 C.3       9 GLL5        0.0000 
    106 CA         13.4820    0.6500   12.4390 C.3       6 GLP5        0.0000 
@<TRIPOS>BOND
@<TRIPOS>SUBSTRUCTURE
     1 ALC1        8 GROUP        1 X    ALC  0     ROOT ALC X 1
     2 SEC2       16 GROUP        1 X    SEC  0     **** SEC X 2
     3 GLC5        1 GROUP        1 X    GLC  0     **** GLC X 6
     4 ALP1       10 GROUP        1 Y    ALP  0     ROOT ALP Y 8
     5 SEP2       18 GROUP        1 Y    SEP  0     **** SEP Y 9
     6 GLP5        3 GROUP        1 Y    GLP  0     **** GLP Y 13
     7 ALL1        9 GROUP        1 Z    ALL  0     ROOT ALL Z 15
     8 SEL2       17 GROUP        1 Z    SEL  0     **** SEL Z 16
     9 GLL5        2 GROUP        1 Z    GLL  0     **** GLL Z 20
@<TRIPOS>SET

