#    Name: 3ewh_K11_1_ligand
#    Modification time : Tue Mar 25 02:36:04 2014

@<TRIPOS>MOLECULE
3ewh_K11_1_ligand
   59    64     1     0     0
SMALL
NO_CHARGES


@<TRIPOS>ATOM
      1 C38        16.8160   -8.1090    1.3340 C.3       1 K111        0.0000 
      2 N37        15.8220   -8.7540    2.2110 N.pl3     1 K111        0.0000 
      3 C35        15.8620   -8.6010    3.5410 C.ar      1 K111        0.0000 
      4 N30        16.7330   -7.7290    4.0900 N.ar      1 K111        0.0000 
      5 N34        15.0370   -9.3280    4.3250 N.ar      1 K111        0.0000 
      6 C33        15.0690   -9.1880    5.6480 C.ar      1 K111        0.0000 
      7 C32        15.9610   -8.2850    6.2320 C.ar      1 K111        0.0000 
      8 C31        16.8120   -7.5250    5.4230 C.ar      1 K111        0.0000 
      9 C24        17.7600   -6.6090    5.9360 C.ar      1 K111        0.0000 
     10 C25        18.8230   -6.2300    5.1060 C.ar      1 K111        0.0000 
     11 C26        19.7820   -5.3390    5.5830 C.ar      1 K111        0.0000 
     12 C27        19.6830   -4.8440    6.8790 C.ar      1 K111        0.0000 
     13 N28        18.6790   -5.2100    7.6710 N.ar      1 K111        0.0000 
     14 C29        17.7220   -6.0710    7.2430 C.ar      1 K111        0.0000 
     15 O36        16.6970   -6.4260    8.0760 O.3       1 K111        0.0000 
     16 C20        16.4890   -5.8270    9.2910 C.ar      1 K111        0.0000 
     17 C21        15.7870   -4.6190    9.3570 C.ar      1 K111        0.0000 
     18 C22        15.5420   -4.0150   10.5940 C.ar      1 K111        0.0000 
     19 C13        16.9120   -6.4520   10.4710 C.ar      1 K111        0.0000 
     20 C18        17.6040   -7.6720   10.4210 C.ar      1 K111        0.0000 
     21 C17        18.0360   -8.2900   11.5930 C.ar      1 K111        0.0000 
     22 C16        17.7780   -7.6890   12.8270 C.ar      1 K111        0.0000 
     23 C15        17.0980   -6.4710   12.8880 C.ar      1 K111        0.0000 
     24 C14        16.6600   -5.8480   11.7130 C.ar      1 K111        0.0000 
     25 C23        15.9600   -4.6320   11.7770 C.ar      1 K111        0.0000 
     26 N19        15.7480   -4.0550   12.9760 N.pl3     1 K111        0.0000 
     27 C12        14.5950   -3.5640   13.4570 C.2       1 K111        0.0000 
     28 N5         13.4230   -3.4250   12.8230 N.pl3     1 K111        0.0000 
     29 C7         12.5670   -2.8950   13.7070 C.ar      1 K111        0.0000 
     30 C8         11.2210   -2.5280   13.6320 C.ar      1 K111        0.0000 
     31 C9         10.5850   -1.9860   14.7570 C.ar      1 K111        0.0000 
     32 C39         9.1150   -1.5770   14.6740 C.3       1 K111        0.0000 
     33 F2          8.9350   -0.8550   13.5730 F         1 K111        0.0000 
     34 F3          8.7540   -0.8690   15.7530 F         1 K111        0.0000 
     35 F1          8.3730   -2.6640   14.6040 F         1 K111        0.0000 
     36 C10        11.2860   -1.8160   15.9530 C.ar      1 K111        0.0000 
     37 C11        12.6270   -2.1860   16.0300 C.ar      1 K111        0.0000 
     38 C6         13.2590   -2.7210   14.9080 C.ar      1 K111        0.0000 
     39 N4         14.5040   -3.1400   14.7160 N.2       1 K111        0.0000 
     40 H          15.1028   -9.3241    1.7339 H         1 K111        0.0000 
     41 H          14.4450   -9.7345    6.2705 H         1 K111        0.0000 
     42 H          15.9922   -8.1792    7.2509 H         1 K111        0.0000 
     43 H          18.8915   -6.6064    4.1576 H         1 K111        0.0000 
     44 H          20.5595   -5.0491    4.9784 H         1 K111        0.0000 
     45 H          20.4175   -4.1800    7.2083 H         1 K111        0.0000 
     46 H          15.4507   -4.1746    8.4944 H         1 K111        0.0000 
     47 H          15.0517   -3.1120   10.6339 H         1 K111        0.0000 
     48 H          17.7919   -8.1106    9.5087 H         1 K111        0.0000 
     49 H          18.5404   -9.1807   11.5510 H         1 K111        0.0000 
     50 H          18.0901   -8.1453   13.6939 H         1 K111        0.0000 
     51 H          16.9175   -6.0288   13.7977 H         1 K111        0.0000 
     52 H          16.6209   -3.9784   13.6347 H         1 K111        0.0000 
     53 H          13.2334   -3.6594   11.9129 H         1 K111        0.0000 
     54 H          10.7001   -2.6537   12.7601 H         1 K111        0.0000 
     55 H          10.8130   -1.4193   16.7724 H         1 K111        0.0000 
     56 H          13.1458   -2.0660   16.9049 H         1 K111        0.0000 
     57 H          17.7464   -8.4107    1.5423 H         1 K111        0.0000 
     58 H          16.6499   -8.3154    0.3697 H         1 K111        0.0000 
     59 H          16.8030   -7.1134    1.4271 H         1 K111        0.0000 
@<TRIPOS>BOND
     1    2    1 1    
     2   57    1 1    
     3   58    1 1    
     4   59    1 1    
     5    3    2 1    
     6   40    2 1    
     7    4    3 ar   
     8    5    3 ar   
     9    8    4 ar   
    10    6    5 ar   
    11    7    6 ar   
    12   41    6 1    
    13    8    7 ar   
    14   42    7 1    
    15    9    8 1    
    16   10    9 ar   
    17   14    9 ar   
    18   11   10 ar   
    19   43   10 1    
    20   12   11 ar   
    21   44   11 1    
    22   13   12 ar   
    23   45   12 1    
    24   14   13 ar   
    25   15   14 1    
    26   16   15 1    
    27   17   16 ar   
    28   19   16 ar   
    29   18   17 ar   
    30   46   17 1    
    31   25   18 ar   
    32   47   18 1    
    33   20   19 ar   
    34   24   19 ar   
    35   21   20 ar   
    36   48   20 1    
    37   22   21 ar   
    38   49   21 1    
    39   23   22 ar   
    40   50   22 1    
    41   24   23 ar   
    42   51   23 1    
    43   25   24 ar   
    44   26   25 1    
    45   27   26 1    
    46   52   26 1    
    47   28   27 1    
    48   39   27 2    
    49   29   28 1    
    50   53   28 1    
    51   30   29 ar   
    52   38   29 ar   
    53   31   30 ar   
    54   54   30 1    
    55   32   31 1    
    56   36   31 ar   
    57   33   32 1    
    58   34   32 1    
    59   35   32 1    
    60   37   36 ar   
    61   55   36 1    
    62   38   37 ar   
    63   56   37 1    
    64   39   38 1    
@<TRIPOS>SUBSTRUCTURE
     1 K111        1 GROUP   
@<TRIPOS>SET

