#    Name: 1lxf_BEP_1_INTS_M
#    Modification time : Tue Mar 25 11:18:34 2014

@<TRIPOS>MOLECULE
1lxf_BEP_1_INTS_M
   73     0     3     0     0
SMALL
NO_CHARGES


@<TRIPOS>ATOM
      1 CA         88.3600   -0.1875    0.0630 C.3       1 GLC5        0.0000 
      2 CA         89.0790    1.1960   -0.4220 C.3       3 GLL5        0.0000 
      3 CA         87.6410   -1.5710    0.5480 C.3       2 GLP5        0.0000 
      4 CA         91.8660    4.6970   -1.2280 C.3       1 GLC5        0.0000 
      5 CA         92.9480    4.0560    0.2400 C.3       3 GLL5        0.0000 
      6 CA         90.7840    5.3380   -2.6960 C.3       2 GLP5        0.0000 
      7 CA         94.8965    1.5520    3.5950 C.3       1 GLC5        0.0000 
      8 CA         94.0250    2.4670    1.8440 C.3       3 GLL5        0.0000 
      9 CA         95.7680    0.6370    5.3460 C.3       2 GLP5        0.0000 
     10 CA         90.6020    0.9150   -2.7970 C.3       1 GLC5        0.0000 
     11 CA         92.3640    1.9960   -2.3810 C.3       3 GLL5        0.0000 
     12 CA         88.8400   -0.1660   -3.2130 C.3       2 GLP5        0.0000 
     13 CA         91.2615    0.9255    0.9755 C.3       1 GLC5        0.0000 
     14 CA         91.8310    0.2180   -0.8120 C.3       3 GLL5        0.0000 
     15 CA         90.6920    1.6330    2.7630 C.3       2 GLP5        0.0000 
     16 CA         85.1950    3.0220    0.9390 C.3       1 GLC5        0.0000 
     17 CA         86.8460    1.7290    0.6920 C.3       3 GLL5        0.0000 
     18 CA         83.5440    4.3150    1.1860 C.3       2 GLP5        0.0000 
     19 CA         85.2285    0.8190    0.4860 C.3       1 GLC5        0.0000 
     20 CA         83.6110   -0.0910    0.2800 C.3       2 GLP5        0.0000 
     21 CA         87.2435    0.0790    0.6200 C.3       1 GLC5        0.0000 
     22 CA         85.5800    1.9645    2.4745 C.3       1 GLC5        0.0000 
     23 CA         84.3140    2.2000    4.2570 C.3       2 GLP5        0.0000 
     24 CA         85.8695    2.2660    3.6825 C.3       1 GLC5        0.0000 
     25 CA         87.4250    2.3320    3.1080 C.3       3 GLL5        0.0000 
     26 CA         88.6230    1.9660    4.6365 C.3       1 GLC5        0.0000 
     27 CA         87.6820    3.2680    4.1170 C.3       3 GLL5        0.0000 
     28 CA         89.5640    0.6640    5.1560 C.3       2 GLP5        0.0000 
     29 CA         89.1680    3.1355    3.2950 C.3       1 GLC5        0.0000 
     30 CA         87.6440    4.6380    3.8270 C.3       3 GLL5        0.0000 
     31 CA         84.8425    0.8730   -5.6770 C.3       1 GLC5        0.0000 
     32 CA         85.7310    1.4230   -4.2920 C.3       3 GLL5        0.0000 
     33 CA         83.9540    0.3230   -7.0620 C.3       2 GLP5        0.0000 
     34 CA         84.7160   -0.6580   -4.5330 C.3       1 GLC5        0.0000 
     35 CA         85.4490    0.5170   -3.2620 C.3       3 GLL5        0.0000 
     36 CA         83.9830   -1.8330   -5.8040 C.3       2 GLP5        0.0000 
     37 CA         90.6080    3.9823   -1.6398 C.3       1 GLC5        0.0000 
     38 CA         90.1600    2.1200   -1.0890 C.3       3 GLL5        0.0000 
     39 CA         89.2297    0.7460   -1.9842 C.3       1 GLC5        0.0000 
     40 CA         90.2237    1.7721    1.1301 C.3       1 GLC5        0.0000 
     41 CA         92.2066    2.4325    2.0529 C.3       1 GLC5        0.0000 
     42 CA         92.2463    3.0025   -3.1312 C.3       1 GLC5        0.0000 
     43 CA         91.4860    4.3890   -4.0680 C.3       2 GLP5        0.0000 
     44 CA         91.1068   -1.2273   -1.6520 C.3       1 GLC5        0.0000 
     45 CA         93.1440   -0.1190   -1.4920 C.3       3 GLL5        0.0000 
     46 CA         89.7260   -2.5040   -2.1520 C.3       2 GLP5        0.0000 
     47 CA         93.5683   -1.4022   -0.4820 C.3       1 GLC5        0.0000 
     48 CA         94.6490   -2.8540    0.1880 C.3       2 GLP5        0.0000 
     49 CA         88.9493    1.9612    2.4711 C.3       1 GLC5        0.0000 
     50 CA         86.9215    5.5210    4.3205 C.3       1 GLC5        0.0000 
     51 CA         86.1800    7.0890    4.6690 C.3       2 GLP5        0.0000 
     52 CA         86.7000    5.8463    3.3462 C.3       1 GLC5        0.0000 
     53 CA         87.3490    5.0720    2.5280 C.3       3 GLL5        0.0000 
     54 CA         88.1154    6.1820    1.8346 C.3       1 GLC5        0.0000 
     55 CA         88.9370    7.8690    1.3210 C.3       2 GLP5        0.0000 
     56 CA         85.9700    3.3890   -3.2645 C.3       1 GLC5        0.0000 
     57 CA         87.0290    1.6650   -1.8220 C.3       3 GLL5        0.0000 
     58 CA         84.7700    4.6600   -4.1910 C.3       2 GLP5        0.0000 
     59 CA         88.0050    0.9760   -2.7755 C.3       1 GLC5        0.0000 
     60 CA         87.3110    2.5710   -2.8540 C.3       3 GLL5        0.0000 
     61 CA         87.1025   -0.2100   -0.6883 C.3       1 GLC5        0.0000 
     62 CA         88.1980    3.1093   -4.5888 C.3       1 GLC5        0.0000 
     63 CA         89.4100    3.7080   -5.7060 C.3       2 GLP5        0.0000 
     64 CA         86.2020    2.5788   -5.8683 C.3       1 GLC5        0.0000 
     65 CA         86.6610    2.4500   -4.0890 C.3       3 GLL5        0.0000 
     66 CA         86.2080    3.2210   -7.5460 C.3       2 GLP5        0.0000 
     67 CA         87.5180    0.8853   -3.7018 C.3       1 GLC5        0.0000 
     68 CA         83.5880    1.0205   -3.4790 C.3       1 GLC5        0.0000 
     69 CA         81.5860    1.0710   -3.1810 C.3       2 GLP5        0.0000 
     70 CA         85.2962    2.9434   -3.9586 C.3       1 GLC5        0.0000 
     71 CA         87.3070    0.2055   -2.9287 C.3       1 GLC5        0.0000 
     72 CA         86.0922    4.0300    3.7205 C.3       1 GLC5        0.0000 
     73 CA         84.7380    3.9530    4.4070 C.3       2 GLP5        0.0000 
@<TRIPOS>BOND
@<TRIPOS>SUBSTRUCTURE
     1 GLC5        1 GROUP        1 X    GLC  0     ROOT GLC X 6
     2 GLP5        3 GROUP        1 Y    GLP  0     ROOT GLP Y 13
     3 GLL5        2 GROUP        1 Z    GLL  0     ROOT GLL Z 20
@<TRIPOS>SET

