#    Name: 1lxf_BEP_1_ligand
#    Modification time : Tue Mar 25 11:18:34 2014

@<TRIPOS>MOLECULE
1lxf_BEP_1_ligand
   62    64     1     0     0
SMALL
NO_CHARGES


@<TRIPOS>ATOM
      1 C1         90.7040    3.1330   -0.0780 C.3       1 BEP92       0.0000 
      2 C2         90.1600    2.1200   -1.0890 C.3       1 BEP92       0.0000 
      3 C3         89.0790    1.1960   -0.4220 C.3       1 BEP92       0.0000 
      4 O1         92.1100    2.8750    0.1660 O.3       1 BEP92       0.0000 
      5 N2         91.2680    1.2990   -1.6540 N.4       1 BEP92       0.0000 
      6 N3         87.7150    1.7930   -0.5160 N.pl3     1 BEP92       0.0000 
      7 C4         92.9480    4.0560    0.2400 C.3       1 BEP92       0.0000 
      8 C5         93.8870    3.9380    1.4430 C.3       1 BEP92       0.0000 
      9 C6         95.2620    4.4970    1.0720 C.3       1 BEP92       0.0000 
     10 C7         94.0250    2.4670    1.8440 C.3       1 BEP92       0.0000 
     11 C8         92.3640    1.9960   -2.3810 C.3       1 BEP92       0.0000 
     12 C9         93.6490    1.2360   -2.0080 C.3       1 BEP92       0.0000 
     13 C10        93.1440   -0.1190   -1.4920 C.3       1 BEP92       0.0000 
     14 C11        91.8310    0.2180   -0.8120 C.3       1 BEP92       0.0000 
     15 C12        86.8460    1.7290    0.6920 C.3       1 BEP92       0.0000 
     16 C13        87.1300    2.7650    1.8090 C.ar      1 BEP92       0.0000 
     17 C14        87.4250    2.3320    3.1080 C.ar      1 BEP92       0.0000 
     18 C15        87.6820    3.2680    4.1170 C.ar      1 BEP92       0.0000 
     19 C16        87.6440    4.6380    3.8270 C.ar      1 BEP92       0.0000 
     20 C17        87.3490    5.0720    2.5280 C.ar      1 BEP92       0.0000 
     21 C18        87.0910    4.1350    1.5190 C.ar      1 BEP92       0.0000 
     22 C19        87.0290    1.6650   -1.8220 C.ar      1 BEP92       0.0000 
     23 C20        87.3110    2.5710   -2.8540 C.ar      1 BEP92       0.0000 
     24 C21        86.6610    2.4500   -4.0890 C.ar      1 BEP92       0.0000 
     25 C22        85.7310    1.4230   -4.2920 C.ar      1 BEP92       0.0000 
     26 C23        85.4490    0.5170   -3.2620 C.ar      1 BEP92       0.0000 
     27 C24        86.0990    0.6370   -2.0270 C.ar      1 BEP92       0.0000 
     28 H          90.1185    3.0423    0.8405 H         1 BEP92       0.0000 
     29 H          90.5493    4.1350   -0.4862 H         1 BEP92       0.0000 
     30 H          89.6671    2.6642   -1.8874 H         1 BEP92       0.0000 
     31 H          89.3666    1.0518    0.6210 H         1 BEP92       0.0000 
     32 H          89.1135    0.2296   -0.9282 H         1 BEP92       0.0000 
     33 H          90.7397    0.6767   -2.5391 H         1 BEP92       0.0000 
     34 H          92.3496    4.9604    0.3648 H         1 BEP92       0.0000 
     35 H          93.5595    4.1659   -0.6575 H         1 BEP92       0.0000 
     36 H          93.4880    4.4920    2.2595 H         1 BEP92       0.0000 
     37 H          92.4550    3.0100   -2.0523 H         1 BEP92       0.0000 
     38 H          92.2202    1.9324   -3.4392 H         1 BEP92       0.0000 
     39 H          94.1536    1.7497   -1.2313 H         1 BEP92       0.0000 
     40 H          94.2412    1.0915   -2.8742 H         1 BEP92       0.0000 
     41 H          93.8337   -0.5072   -0.7854 H         1 BEP92       0.0000 
     42 H          92.9752   -0.7690   -2.3133 H         1 BEP92       0.0000 
     43 H          91.1970   -0.6395   -0.8216 H         1 BEP92       0.0000 
     44 H          92.0240    0.5687    0.1765 H         1 BEP92       0.0000 
     45 H          86.9124    0.7138    1.1522 H         1 BEP92       0.0000 
     46 H          85.7758    1.8425    0.3944 H         1 BEP92       0.0000 
     47 H          87.4527    1.3293    3.3198 H         1 BEP92       0.0000 
     48 H          87.8979    2.9514    5.0675 H         1 BEP92       0.0000 
     49 H          87.8321    5.3234    4.5657 H         1 BEP92       0.0000 
     50 H          87.3220    6.0740    2.3161 H         1 BEP92       0.0000 
     51 H          86.8738    4.4518    0.5689 H         1 BEP92       0.0000 
     52 H          87.9925    3.3214   -2.7045 H         1 BEP92       0.0000 
     53 H          86.8661    3.1126   -4.8431 H         1 BEP92       0.0000 
     54 H          85.2555    1.3341   -5.1965 H         1 BEP92       0.0000 
     55 H          84.7675   -0.2335   -3.4116 H         1 BEP92       0.0000 
     56 H          85.8947   -0.0267   -1.2735 H         1 BEP92       0.0000 
     57 H          95.9043    4.4408    1.8364 H         1 BEP92       0.0000 
     58 H          95.6716    3.9988    0.3077 H         1 BEP92       0.0000 
     59 H          95.2114    5.4585    0.8017 H         1 BEP92       0.0000 
     60 H          94.4015    1.9133    1.1012 H         1 BEP92       0.0000 
     61 H          94.6307    2.3519    2.6314 H         1 BEP92       0.0000 
     62 H          93.1433    2.0652    2.0913 H         1 BEP92       0.0000 
@<TRIPOS>BOND
     1    2    1 1    
     2    4    1 1    
     3   28    1 1    
     4   29    1 1    
     5    3    2 1    
     6    5    2 1    
     7   30    2 1    
     8    6    3 1    
     9   31    3 1    
    10   32    3 1    
    11    7    4 1    
    12   11    5 1    
    13   14    5 1    
    14   33    5 1    
    15   15    6 1    
    16   22    6 1    
    17    8    7 1    
    18   34    7 1    
    19   35    7 1    
    20    9    8 1    
    21   10    8 1    
    22   36    8 1    
    23   57    9 1    
    24   58    9 1    
    25   59    9 1    
    26   60   10 1    
    27   61   10 1    
    28   62   10 1    
    29   12   11 1    
    30   37   11 1    
    31   38   11 1    
    32   13   12 1    
    33   39   12 1    
    34   40   12 1    
    35   14   13 1    
    36   41   13 1    
    37   42   13 1    
    38   43   14 1    
    39   44   14 1    
    40   16   15 1    
    41   45   15 1    
    42   46   15 1    
    43   17   16 ar   
    44   21   16 ar   
    45   18   17 ar   
    46   47   17 1    
    47   19   18 ar   
    48   48   18 1    
    49   20   19 ar   
    50   49   19 1    
    51   21   20 ar   
    52   50   20 1    
    53   51   21 1    
    54   23   22 ar   
    55   27   22 ar   
    56   24   23 ar   
    57   52   23 1    
    58   25   24 ar   
    59   53   24 1    
    60   26   25 ar   
    61   54   25 1    
    62   27   26 ar   
    63   55   26 1    
    64   56   27 1    
@<TRIPOS>SUBSTRUCTURE
     1 BEP92       1 GROUP   
@<TRIPOS>SET

