#    Name: 3ofm_4B0_1_INTS_M
#    Modification time : Tue Mar 25 04:33:07 2014

@<TRIPOS>MOLECULE
3ofm_4B0_1_INTS_M
   57     0     6     0     0
SMALL
NO_CHARGES


@<TRIPOS>ATOM
      1 N           3.3025  -10.1480    4.0815 N.am      1 SEC2        0.0000 
      2 N           3.7310  -11.4480    4.6080 N.am      5 SEL2        0.0000 
      3 N           2.8740   -8.8480    3.5550 N.am      3 SEP2        0.0000 
      4 CA         -1.3350  -10.9375   12.6325 C.3       2 GLC5        0.0000 
      5 CA         -1.8870  -12.5080   11.3870 C.3       6 GLL5        0.0000 
      6 CA         -0.7830   -9.3670   13.8780 C.3       4 GLP5        0.0000 
      7 CA         -3.7125  -11.2020   11.5275 C.3       2 GLC5        0.0000 
      8 CA         -5.5380   -9.8960   11.6680 C.3       4 GLP5        0.0000 
      9 CA          2.3900  -10.6310   10.6165 C.3       2 GLC5        0.0000 
     10 CA          1.1680  -12.0410   10.4910 C.3       6 GLL5        0.0000 
     11 CA          3.6120   -9.2210   10.7420 C.3       4 GLP5        0.0000 
     12 CA         -4.8965  -11.6440   10.4205 C.3       2 GLC5        0.0000 
     13 CA         -4.2550  -13.3920    9.1730 C.3       6 GLL5        0.0000 
     14 CA          3.7755  -13.2055    7.3455 C.3       2 GLC5        0.0000 
     15 CA          2.0040  -12.4680    7.2590 C.3       6 GLL5        0.0000 
     16 CA          5.5470  -13.9430    7.4320 C.3       4 GLP5        0.0000 
     17 CA          1.7075  -10.4795    6.6630 C.3       2 GLC5        0.0000 
     18 CA          1.4110   -8.4910    6.0670 C.3       4 GLP5        0.0000 
     19 CA          3.3155  -13.4315    2.7360 C.3       2 GLC5        0.0000 
     20 CA          2.6940  -12.2720    4.0040 C.3       6 GLL5        0.0000 
     21 CA          3.9370  -14.5910    1.4680 C.3       4 GLP5        0.0000 
     22 CA          4.3375  -13.0335    5.0635 C.3       2 GLC5        0.0000 
     23 CA          5.9810  -13.7950    6.1230 C.3       4 GLP5        0.0000 
     24 CA          2.0525  -10.3815    5.0355 C.3       2 GLC5        0.0000 
     25 CA          2.8890  -10.7895    3.0885 C.3       2 GLC5        0.0000 
     26 CA          3.0840   -9.3070    2.1730 C.3       4 GLP5        0.0000 
     27 CA          1.5485  -10.8630    3.0840 C.3       2 GLC5        0.0000 
     28 CA          1.3240  -12.0590    4.6960 C.3       6 GLL5        0.0000 
     29 CA          1.7730   -9.6670    1.4720 C.3       4 GLP5        0.0000 
     30 CA          0.2990  -15.0090    4.3680 C.3       2 GLC5        0.0000 
     31 CA          0.3960  -13.2920    4.6110 C.3       6 GLL5        0.0000 
     32 CA          0.2020  -16.7260    4.1250 C.3       4 GLP5        0.0000 
     33 CA         -1.9810  -14.8865    9.8505 C.3       2 GLC5        0.0000 
     34 CA         -1.4540  -12.7500    9.5580 C.3       6 GLL5        0.0000 
     35 CA         -2.5080  -17.0230   10.1430 C.3       4 GLP5        0.0000 
     36 CA         -1.6825  -11.1450    8.9665 C.3       2 GLC5        0.0000 
     37 CA         -0.1240  -12.5510    9.1710 C.3       6 GLL5        0.0000 
     38 CA         -3.2410   -9.7390    8.7620 C.3       4 GLP5        0.0000 
     39 CA         -2.6480  -11.5145    8.0260 C.3       2 GLC5        0.0000 
     40 CA         -2.0550  -13.2900    7.2900 C.3       6 GLL5        0.0000 
     41 CA          0.3825  -14.6705    8.0370 C.3       2 GLC5        0.0000 
     42 CA         -0.7370  -13.0920    6.8910 C.3       6 GLL5        0.0000 
     43 CA          1.5020  -16.2490    9.1830 C.3       4 GLP5        0.0000 
     44 CA         -0.3548  -14.0715   10.9987 C.3       2 GLC5        0.0000 
     45 CA          0.9610  -15.5140   11.5250 C.3       4 GLP5        0.0000 
     46 CA         -2.4558  -11.1840    9.6173 C.3       2 GLC5        0.0000 
     47 CA          0.7415  -13.9050   10.6780 C.3       2 GLC5        0.0000 
     48 CA         -2.9270  -15.1402    9.5215 C.3       2 GLC5        0.0000 
     49 CA         -2.4370  -13.1230    8.6270 C.3       6 GLL5        0.0000 
     50 CA         -3.2935  -11.4983    8.8310 C.3       2 GLC5        0.0000 
     51 CA          1.3083  -14.4223    8.3633 C.3       2 GLC5        0.0000 
     52 CA          0.2250  -12.7230    7.8280 C.3       6 GLL5        0.0000 
     53 CA          0.0465  -11.2293    5.1327 C.3       2 GLC5        0.0000 
     54 CA         -0.7670   -9.7830    5.6120 C.3       4 GLP5        0.0000 
     55 CA         -0.6987  -14.9954    6.9499 C.3       2 GLC5        0.0000 
     56 CA         -0.2420  -16.8920    6.5750 C.3       4 GLP5        0.0000 
     57 CA         -0.9613  -11.4409    6.4684 C.3       2 GLC5        0.0000 
@<TRIPOS>BOND
@<TRIPOS>SUBSTRUCTURE
     1 SEC2        1 GROUP        1 X    SEC  0     ROOT SEC X 2
     2 GLC5        4 GROUP        1 X    GLC  0     **** GLC X 6
     3 SEP2        3 GROUP        1 Y    SEP  0     ROOT SEP Y 9
     4 GLP5        6 GROUP        1 Y    GLP  0     **** GLP Y 13
     5 SEL2        2 GROUP        1 Z    SEL  0     ROOT SEL Z 16
     6 GLL5        5 GROUP        1 Z    GLL  0     **** GLL Z 20
@<TRIPOS>SET

