#    Name: 3ofm_4B0_1_ligand
#    Modification time : Tue Mar 25 04:33:07 2014

@<TRIPOS>MOLECULE
3ofm_4B0_1_ligand
   24    25     1     0     0
SMALL
NO_CHARGES


@<TRIPOS>ATOM
      1 OAA         3.7310  -11.4480    4.6080 O.3       1 4B0351      0.0000 
      2 BRAB       -1.8870  -12.5080   11.3870 Br        1 4B0351      0.0000 
      3 BRAC        1.1680  -12.0410   10.4910 Br        1 4B0351      0.0000 
      4 BRAD       -4.2550  -13.3920    9.1730 Br        1 4B0351      0.0000 
      5 BRAE        2.0040  -12.4680    7.2590 Br        1 4B0351      0.0000 
      6 CAF         2.6940  -12.2720    4.0040 C.3       1 4B0351      0.0000 
      7 CAG         1.3240  -12.0590    4.6960 C.3       1 4B0351      0.0000 
      8 CAH         0.3960  -13.2920    4.6110 C.3       1 4B0351      0.0000 
      9 NAI        -2.7030  -13.6270    6.1770 N.2       1 4B0351      0.0000 
     10 NAJ        -1.8990  -13.6360    5.2320 N.2       1 4B0351      0.0000 
     11 CAK        -1.4540  -12.7500    9.5580 C.ar      1 4B0351      0.0000 
     12 CAL        -0.1240  -12.5510    9.1710 C.ar      1 4B0351      0.0000 
     13 CAM        -2.4370  -13.1230    8.6270 C.ar      1 4B0351      0.0000 
     14 CAN         0.2250  -12.7230    7.8280 C.ar      1 4B0351      0.0000 
     15 CAO        -2.0550  -13.2900    7.2900 C.ar      1 4B0351      0.0000 
     16 CAP        -0.7370  -13.0920    6.8910 C.ar      1 4B0351      0.0000 
     17 NAQ        -0.7490  -13.3240    5.5780 N.pl3     1 4B0351      0.0000 
     18 H           2.9396  -13.3394    4.0793 H         1 4B0351      0.0000 
     19 H           2.5668  -12.0348    2.9396 H         1 4B0351      0.0000 
     20 H           0.8226  -11.2041    4.2293 H         1 4B0351      0.0000 
     21 H           1.4957  -11.8156    5.7502 H         1 4B0351      0.0000 
     22 H           1.0248  -14.2007    4.7469 H         1 4B0351      0.0000 
     23 H           0.0069  -13.3534    3.5696 H         1 4B0351      0.0000 
     24 H           4.3732  -11.2553    3.8661 H         1 4B0351      0.0000 
@<TRIPOS>BOND
     1    6    1 1    
     2   24    1 1    
     3   11    2 1    
     4   12    3 1    
     5   13    4 1    
     6   14    5 1    
     7    7    6 1    
     8   18    6 1    
     9   19    6 1    
    10    8    7 1    
    11   20    7 1    
    12   21    7 1    
    13   17    8 1    
    14   22    8 1    
    15   23    8 1    
    16   10    9 2    
    17   15    9 1    
    18   17   10 1    
    19   12   11 ar   
    20   13   11 ar   
    21   14   12 ar   
    22   15   13 ar   
    23   16   14 ar   
    24   16   15 ar   
    25   17   16 1    
@<TRIPOS>SUBSTRUCTURE
     1 4B0351      1 GROUP   
@<TRIPOS>SET

