#    Name: 1tg5_645_1_INTS_M
#    Modification time : Tue Mar 25 05:00:29 2014

@<TRIPOS>MOLECULE
1tg5_645_1_INTS_M
   58     0     6     0     0
SMALL
NO_CHARGES


@<TRIPOS>ATOM
      1 Zn         48.0380   38.2790   50.5135 Zn        1 ZIC7        0.0000 
      2 Zn         48.3660   37.7160   51.3850 Zn        5 ZIL7        0.0000 
      3 Zn         47.7100   38.8420   49.6420 Zn        3 ZIP7        0.0000 
      4 Zn         46.9235   39.1035   50.3805 Zn        1 ZIC7        0.0000 
      5 Zn         46.1370   39.3650   51.1190 Zn        5 ZIL7        0.0000 
      6 CA         43.2480   39.3760   51.2265 C.3       2 GLC5        0.0000 
      7 CA         43.1070   37.7850   52.0790 C.3       6 GLL5        0.0000 
      8 CA         43.3890   40.9670   50.3740 C.3       4 GLP5        0.0000 
      9 CA         42.0425   37.0410   50.7215 C.3       2 GLC5        0.0000 
     10 CA         40.9780   36.2970   49.3640 C.3       4 GLP5        0.0000 
     11 CA         46.6530   41.4010   55.2315 C.3       2 GLC5        0.0000 
     12 CA         45.1240   40.1540   54.3980 C.3       6 GLL5        0.0000 
     13 CA         48.1820   42.6480   56.0650 C.3       4 GLP5        0.0000 
     14 CA         41.8005   42.1740   53.5160 C.3       2 GLC5        0.0000 
     15 CA         40.9550   41.8810   54.9540 C.3       6 GLL5        0.0000 
     16 CA         42.6460   42.4670   52.0780 C.3       4 GLP5        0.0000 
     17 CA         40.1775   42.8170   56.3685 C.3       2 GLC5        0.0000 
     18 CA         39.4000   43.7530   57.7830 C.3       4 GLP5        0.0000 
     19 CA         48.2575   33.5270   50.9460 C.3       2 GLC5        0.0000 
     20 CA         49.0900   34.3640   52.7300 C.3       6 GLL5        0.0000 
     21 CA         47.4250   32.6900   49.1620 C.3       4 GLP5        0.0000 
     22 CA         49.2920   33.0750   54.1100 C.3       2 GLC5        0.0000 
     23 CA         49.4940   31.7860   55.4900 C.3       4 GLP5        0.0000 
     24 CA         50.3220   33.7560   51.3785 C.3       2 GLC5        0.0000 
     25 CA         51.5540   33.1480   50.0270 C.3       4 GLP5        0.0000 
     26 CA         50.2320   36.9875   49.9205 C.3       2 GLC5        0.0000 
     27 CA         50.6120   36.1130   51.9520 C.3       6 GLL5        0.0000 
     28 CA         49.8520   37.8620   47.8890 C.3       4 GLP5        0.0000 
     29 CA         52.3445   35.3435   52.2315 C.3       2 GLC5        0.0000 
     30 CA         54.0770   34.5740   52.5110 C.3       4 GLP5        0.0000 
     31 CA         51.2380   35.1860   50.5235 C.3       2 GLC5        0.0000 
     32 CA         51.8640   34.2590   49.0950 C.3       4 GLP5        0.0000 
     33 CA         51.2880   37.6590   52.2765 C.3       2 GLC5        0.0000 
     34 CA         51.9640   39.2050   52.6010 C.3       4 GLP5        0.0000 
     35 CA         49.9390   33.7100   54.9515 C.3       2 GLC5        0.0000 
     36 CA         50.3840   35.6340   54.4130 C.3       6 GLL5        0.0000 
     37 CA         52.2305   35.1040   53.4620 C.3       2 GLC5        0.0000 
     38 CA         50.7715   36.0565   55.9860 C.3       2 GLC5        0.0000 
     39 CA         51.1590   36.4790   57.5590 C.3       4 GLP5        0.0000 
     40 CA         44.6955   33.8075   54.5070 C.3       2 GLC5        0.0000 
     41 CA         44.6420   34.9760   53.1020 C.3       6 GLL5        0.0000 
     42 CA         44.7490   32.6390   55.9120 C.3       4 GLP5        0.0000 
     43 CA         43.3565   34.2980   57.8400 C.3       2 GLC5        0.0000 
     44 CA         42.1910   35.8290   57.3370 C.3       6 GLL5        0.0000 
     45 CA         44.5220   32.7670   58.3430 C.3       4 GLP5        0.0000 
     46 CA         41.7495   37.0465   59.0185 C.3       2 GLC5        0.0000 
     47 CA         41.3080   38.2640   60.7000 C.3       4 GLP5        0.0000 
     48 CA         44.4215   34.8920   57.6800 C.3       2 GLC5        0.0000 
     49 CA         44.3210   37.0170   57.0170 C.3       6 GLL5        0.0000 
     50 CA         48.9877   38.6142   53.0123 C.3       2 GLC5        0.0000 
     51 CA         46.7150   37.8270   52.8850 C.3       6 GLL5        0.0000 
     52 CA         50.7300   39.6050   53.3660 C.3       4 GLP5        0.0000 
     53 CA         50.3770   37.6630   53.5677 C.3       2 GLC5        0.0000 
     54 CA         49.6640   35.8080   53.1260 C.3       6 GLL5        0.0000 
     55 CA         44.8868   34.4060   55.3170 C.3       2 GLC5        0.0000 
     56 CA         45.5170   36.6720   55.0220 C.3       6 GLL5        0.0000 
     57 CA         44.0263   34.2122   55.9672 C.3       2 GLC5        0.0000 
     58 CA         43.3820   35.4860   55.4060 C.3       6 GLL5        0.0000 
@<TRIPOS>BOND
@<TRIPOS>SUBSTRUCTURE
     1 ZIC7        1 GROUP        1 X    ZIC  0     ROOT ZIC X 5
     2 GLC5        6 GROUP        1 X    GLC  0     **** GLC X 6
     3 ZIP7        3 GROUP        1 Y    ZIP  0     ROOT ZIP Y 12
     4 GLP5        8 GROUP        1 Y    GLP  0     **** GLP Y 13
     5 ZIL7        2 GROUP        1 Z    ZIL  0     ROOT ZIL Z 19
     6 GLL5        7 GROUP        1 Z    GLL  0     **** GLL Z 20
@<TRIPOS>SET

