#    Name: 1tg5_645_1_ligand
#    Modification time : Tue Mar 25 05:00:29 2014

@<TRIPOS>MOLECULE
1tg5_645_1_ligand
   49    51     1     0     0
SMALL
NO_CHARGES


@<TRIPOS>ATOM
      1 O1         48.3660   37.7160   51.3850 O.3       1 645501      0.0000 
      2 C1         47.7760   37.4200   52.4320 C.2       1 645501      0.0000 
      3 C2         46.7150   37.8270   52.8850 C.2       1 645501      0.0000 
      4 C3         45.7220   38.7610   52.5260 C.2       1 645501      0.0000 
      5 O2         46.1370   39.3650   51.1190 O.2       1 645501      0.0000 
      6 C4         44.9170   39.2020   53.3270 C.ar      1 645501      0.0000 
      7 C5         43.5060   38.7250   53.1600 C.ar      1 645501      0.0000 
      8 CL1        43.1070   37.7850   52.0790 Cl        1 645501      0.0000 
      9 C6         42.5230   39.2190   54.0290 C.ar      1 645501      0.0000 
     10 C7         42.7810   40.2010   55.0780 C.ar      1 645501      0.0000 
     11 C8         44.1080   40.6280   55.2290 C.ar      1 645501      0.0000 
     12 C9         45.1240   40.1540   54.3980 C.ar      1 645501      0.0000 
     13 S1         41.6430   40.9740   55.9500 S.o2      1 645501      0.0000 
     14 O3         41.1180   40.2230   56.9260 O.2       1 645501      0.0000 
     15 O4         42.2070   41.7590   56.9650 O.2       1 645501      0.0000 
     16 C10        40.9550   41.8810   54.9540 C.3       1 645501      0.0000 
     17 C11        46.5160   37.1100   54.1870 C.2       1 645501      0.0000 
     18 N1         47.6280   36.2880   54.4140 N.2       1 645501      0.0000 
     19 N2         48.4120   36.4880   53.2960 N.pl3     1 645501      0.0000 
     20 C12        49.6640   35.8080   53.1260 C.3       1 645501      0.0000 
     21 C13        49.0900   34.3640   52.7300 C.3       1 645501      0.0000 
     22 C14        50.6120   36.1130   51.9520 C.3       1 645501      0.0000 
     23 C15        50.3840   35.6340   54.4130 C.3       1 645501      0.0000 
     24 C16        45.5170   36.6720   55.0220 C.ar      1 645501      0.0000 
     25 C17        44.5320   35.6740   54.4220 C.ar      1 645501      0.0000 
     26 CL2        44.6420   34.9760   53.1020 Cl        1 645501      0.0000 
     27 C18        43.3820   35.4860   55.4060 C.ar      1 645501      0.0000 
     28 C19        43.2250   36.0850   56.6390 C.ar      1 645501      0.0000 
     29 CL3        42.1910   35.8290   57.3370 Cl        1 645501      0.0000 
     30 C20        44.3210   37.0170   57.0170 C.ar      1 645501      0.0000 
     31 C21        45.3160   37.1710   56.1520 C.ar      1 645501      0.0000 
     32 H          41.5402   38.8786   53.9394 H         1 645501      0.0000 
     33 H          44.3362   41.3100   55.9742 H         1 645501      0.0000 
     34 H          46.1038   40.4953   54.5410 H         1 645501      0.0000 
     35 H          42.6432   34.8048   55.0524 H         1 645501      0.0000 
     36 H          44.2415   37.4762   57.9092 H         1 645501      0.0000 
     37 H          46.1156   37.8896   56.5288 H         1 645501      0.0000 
     38 H          41.6126   42.4090   54.4166 H         1 645501      0.0000 
     39 H          40.3949   41.3644   54.3064 H         1 645501      0.0000 
     40 H          40.3508   42.5377   55.4053 H         1 645501      0.0000 
     41 H          49.8240   33.7068   52.5586 H         1 645501      0.0000 
     42 H          48.5167   33.9809   53.4542 H         1 645501      0.0000 
     43 H          48.5305   34.4010   51.9020 H         1 645501      0.0000 
     44 H          50.9065   37.0687   51.9510 H         1 645501      0.0000 
     45 H          51.4388   35.5516   51.9868 H         1 645501      0.0000 
     46 H          50.1768   35.9395   51.0685 H         1 645501      0.0000 
     47 H          51.2560   35.1603   54.2896 H         1 645501      0.0000 
     48 H          50.5862   36.5119   54.8471 H         1 645501      0.0000 
     49 H          49.8501   35.0992   55.0679 H         1 645501      0.0000 
@<TRIPOS>BOND
     1    2    1 1    
     2    3    2 2    
     3   19    2 1    
     4    4    3 1    
     5   17    3 1    
     6    5    4 2    
     7    6    4 1    
     8    7    6 ar   
     9   12    6 ar   
    10    8    7 1    
    11    9    7 ar   
    12   10    9 ar   
    13   32    9 1    
    14   11   10 ar   
    15   13   10 1    
    16   12   11 ar   
    17   33   11 1    
    18   34   12 1    
    19   14   13 2    
    20   15   13 2    
    21   16   13 1    
    22   38   16 1    
    23   39   16 1    
    24   40   16 1    
    25   18   17 2    
    26   24   17 1    
    27   19   18 1    
    28   20   19 1    
    29   21   20 1    
    30   22   20 1    
    31   23   20 1    
    32   41   21 1    
    33   42   21 1    
    34   43   21 1    
    35   44   22 1    
    36   45   22 1    
    37   46   22 1    
    38   47   23 1    
    39   48   23 1    
    40   49   23 1    
    41   25   24 ar   
    42   31   24 ar   
    43   26   25 1    
    44   27   25 ar   
    45   28   27 ar   
    46   35   27 1    
    47   29   28 1    
    48   30   28 ar   
    49   31   30 ar   
    50   36   30 1    
    51   37   31 1    
@<TRIPOS>SUBSTRUCTURE
     1 645501      1 GROUP   
@<TRIPOS>SET

