#    Name: 2o4c_NAD_2_INTS_M
#    Modification time : Tue Mar 25 21:59:02 2014

@<TRIPOS>MOLECULE
2o4c_NAD_2_INTS_M
   90     0     9     0     0
SMALL
NO_CHARGES


@<TRIPOS>ATOM
      1 N          43.1520   59.1525   44.4290 N.am      2 SEC2        0.0000 
      2 N          42.7860   59.0760   45.9250 N.am      8 SEL2        0.0000 
      3 N          43.5180   59.2290   42.9330 N.am      5 SEP2        0.0000 
      4 CA         43.3015   64.6260   47.2525 C.3       3 GLC5        0.0000 
      5 CA         43.8450   62.5440   47.0050 C.3       9 GLL5        0.0000 
      6 CA         42.7580   66.7080   47.5000 C.3       6 GLP5        0.0000 
      7 CA         45.8800   64.6115   45.8645 C.3       3 GLC5        0.0000 
      8 CA         45.3200   62.9420   46.8550 C.3       9 GLL5        0.0000 
      9 CA         46.4400   66.2810   44.8740 C.3       6 GLP5        0.0000 
     10 O          48.1465   62.4210   46.1865 O.2       1 ALC1        0.0000 
     11 O          47.2930   61.5050   46.6570 O.2       7 ALL1        0.0000 
     12 O          49.0000   63.3370   45.7160 O.2       4 ALP1        0.0000 
     13 O          49.1675   62.9495   48.2710 O.2       1 ALC1        0.0000 
     14 O          48.2100   62.3430   48.9610 O.2       7 ALL1        0.0000 
     15 O          50.1250   63.5560   47.5810 O.2       4 ALP1        0.0000 
     16 O          48.6050   62.8400   47.3385 O.2       1 ALC1        0.0000 
     17 CA         46.6150   65.2040   46.5190 C.3       3 GLC5        0.0000 
     18 CA         46.7900   64.1270   48.1640 C.3       9 GLL5        0.0000 
     19 CA         44.7955   64.3905   48.9345 C.3       3 GLC5        0.0000 
     20 CA         42.8010   64.6540   49.7050 C.3       6 GLP5        0.0000 
     21 CA         46.6125   70.3270   49.8230 C.3       3 GLC5        0.0000 
     22 CA         47.6740   68.4500   50.1780 C.3       9 GLL5        0.0000 
     23 CA         45.5510   72.2040   49.4680 C.3       6 GLP5        0.0000 
     24 CA         47.7105   69.6570   46.9395 C.3       3 GLC5        0.0000 
     25 CA         48.3390   68.2600   47.9590 C.3       9 GLL5        0.0000 
     26 CA         47.0820   71.0540   45.9200 C.3       6 GLP5        0.0000 
     27 CA         47.3895   67.2705   46.4165 C.3       3 GLC5        0.0000 
     28 CA         49.8510   69.5240   47.2050 C.3       3 GLC5        0.0000 
     29 CA         51.3630   70.7880   46.4510 C.3       6 GLP5        0.0000 
     30 CA         49.7905   67.1500   47.2610 C.3       3 GLC5        0.0000 
     31 CA         51.2420   66.0400   46.5630 C.3       6 GLP5        0.0000 
     32 CA         49.8790   67.8885   48.5325 C.3       3 GLC5        0.0000 
     33 CA         51.4190   67.5170   49.1060 C.3       6 GLP5        0.0000 
     34 CA         46.4765   68.3505   47.7490 C.3       3 GLC5        0.0000 
     35 CA         44.6140   68.4410   47.5390 C.3       6 GLP5        0.0000 
     36 CA         46.8980   66.3490   46.9175 C.3       3 GLC5        0.0000 
     37 CA         47.3560   66.4170   48.9610 C.3       9 GLL5        0.0000 
     38 CA         49.1130   65.5125   49.9175 C.3       3 GLC5        0.0000 
     39 CA         50.8700   64.6080   50.8740 C.3       6 GLP5        0.0000 
     40 N          41.6135   60.9800   42.5905 N.am      2 SEC2        0.0000 
     41 N          41.4360   61.2940   44.0020 N.am      8 SEL2        0.0000 
     42 N          41.7910   60.6660   41.1790 N.am      5 SEP2        0.0000 
     43 CA         39.4430   64.7945   48.7000 C.3       3 GLC5        0.0000 
     44 CA         38.3610   64.2760   47.1370 C.3       9 GLL5        0.0000 
     45 CA         40.5250   65.3130   50.2630 C.3       6 GLP5        0.0000 
     46 O          39.2075   66.1180   47.8725 O.2       1 ALC1        0.0000 
     47 O          38.0220   65.4800   47.8360 O.2       7 ALL1        0.0000 
     48 O          40.3930   66.7560   47.9090 O.2       4 ALP1        0.0000 
     49 N          34.9465   64.5730   48.6350 N.am      2 SEC2        0.0000 
     50 N          36.0490   63.8010   47.6140 N.am      8 SEL2        0.0000 
     51 N          33.8440   65.3450   49.6560 N.am      5 SEP2        0.0000 
     52 CA         37.0545   66.2710   45.1705 C.3       3 GLC5        0.0000 
     53 CA         36.8110   64.4260   45.3840 C.3       9 GLL5        0.0000 
     54 CA         37.2980   68.1160   44.9570 C.3       6 GLP5        0.0000 
     55 CA         36.0880   66.4190   44.4150 C.3       3 GLC5        0.0000 
     56 CA         34.8780   64.7220   43.8730 C.3       9 GLL5        0.0000 
     57 CA         32.1335   65.3175   43.6795 C.3       3 GLC5        0.0000 
     58 CA         33.9540   64.2480   42.9470 C.3       9 GLL5        0.0000 
     59 CA         30.3130   66.3870   44.4120 C.3       6 GLP5        0.0000 
     60 N          31.7755   64.2230   40.4195 N.am      2 SEC2        0.0000 
     61 N          31.8030   64.7050   41.7320 N.am      8 SEL2        0.0000 
     62 N          31.7480   63.7410   39.1070 N.am      5 SEP2        0.0000 
     63 O          34.5680   66.9280   42.5190 O.2       1 ALC1        0.0000 
     64 O          33.1310   66.5060   42.4390 O.2       7 ALL1        0.0000 
     65 O          36.0050   67.3500   42.5990 O.2       4 ALP1        0.0000 
     66 O          32.3575   67.3585   41.5820 O.2       1 ALC1        0.0000 
     67 O          31.5840   68.2110   40.7250 O.2       4 ALP1        0.0000 
     68 CA         32.9600   62.5980   40.8590 C.3       3 GLC5        0.0000 
     69 CA         33.9910   62.9030   42.5670 C.3       9 GLL5        0.0000 
     70 CA         31.9290   62.2930   39.1510 C.3       6 GLP5        0.0000 
     71 CA         37.4980   62.2535   42.6155 C.3       3 GLC5        0.0000 
     72 CA         35.8900   62.5070   44.0110 C.3       9 GLL5        0.0000 
     73 CA         39.1060   62.0000   41.2200 C.3       6 GLP5        0.0000 
     74 CA         43.6917   63.6985   48.3175 C.3       3 GLC5        0.0000 
     75 CA         45.4406   61.3580   45.5132 C.3       3 GLC5        0.0000 
     76 CA         45.4630   60.3830   43.7830 C.3       6 GLP5        0.0000 
     77 CA         45.9308   68.5230   50.9970 C.3       3 GLC5        0.0000 
     78 CA         47.2190   67.1360   50.1400 C.3       9 GLL5        0.0000 
     79 CA         44.4150   69.2530   51.8350 C.3       6 GLP5        0.0000 
     80 CA         49.4101   67.3110   49.3330 C.3       3 GLC5        0.0000 
     81 CA         46.0076   67.7730   48.5495 C.3       3 GLC5        0.0000 
     82 CA         40.7893   65.5920   44.7238 C.3       3 GLC5        0.0000 
     83 CA         40.1670   63.5950   45.5060 C.3       9 GLL5        0.0000 
     84 CA         41.9470   67.0720   43.7810 C.3       6 GLP5        0.0000 
     85 CA         38.7117   66.4398   46.0015 C.3       3 GLC5        0.0000 
     86 CA         39.0960   64.6290   45.8270 C.3       9 GLL5        0.0000 
     87 CA         38.6950   68.4270   45.5210 C.3       6 GLP5        0.0000 
     88 CA         34.9455   63.9625   41.5255 C.3       3 GLC5        0.0000 
     89 CA         35.4750   63.4400   39.6410 C.3       6 GLP5        0.0000 
     90 CA         35.3281   62.9635   41.5301 C.3       3 GLC5        0.0000 
@<TRIPOS>BOND
@<TRIPOS>SUBSTRUCTURE
     1 ALC1       10 GROUP        1 X    ALC  0     ROOT ALC X 1
     2 SEC2        1 GROUP        1 X    SEC  0     **** SEC X 2
     3 GLC5        4 GROUP        1 X    GLC  0     **** GLC X 6
     4 ALP1       12 GROUP        1 Y    ALP  0     ROOT ALP Y 8
     5 SEP2        3 GROUP        1 Y    SEP  0     **** SEP Y 9
     6 GLP5        6 GROUP        1 Y    GLP  0     **** GLP Y 13
     7 ALL1       11 GROUP        1 Z    ALL  0     ROOT ALL Z 15
     8 SEL2        2 GROUP        1 Z    SEL  0     **** SEL Z 16
     9 GLL5        5 GROUP        1 Z    GLL  0     **** GLL Z 20
@<TRIPOS>SET

