#    Name: 2o4c_NAD_2_ligand
#    Modification time : Tue Mar 25 21:59:02 2014

@<TRIPOS>MOLECULE
2o4c_NAD_2_ligand
   70    74     1     0     0
SMALL
NO_CHARGES


@<TRIPOS>ATOM
      1 PA         42.5590   60.2370   46.8150 P.3       1 NAD1001     0.0000 
      2 O1A        42.7860   59.0760   45.9250 O.co2     1 NAD1001     0.0000 
      3 O2A        42.6200   60.0810   48.2840 O.co2     1 NAD1001     0.0000 
      4 O5B        43.6350   61.3110   46.3500 O.3       1 NAD1001     0.0000 
      5 C5B        43.8450   62.5440   47.0050 C.3       1 NAD1001     0.0000 
      6 C4B        45.3200   62.9420   46.8550 C.3       1 NAD1001     0.0000 
      7 O4B        45.4720   64.1860   47.5600 O.3       1 NAD1001     0.0000 
      8 C3B        46.2540   61.9230   47.5570 C.3       1 NAD1001     0.0000 
      9 O3B        47.2930   61.5050   46.6570 O.3       1 NAD1001     0.0000 
     10 C2B        46.8450   62.7110   48.7250 C.3       1 NAD1001     0.0000 
     11 O2B        48.2100   62.3430   48.9610 O.3       1 NAD1001     0.0000 
     12 C1B        46.7900   64.1270   48.1640 C.3       1 NAD1001     0.0000 
     13 N9A        46.8570   65.2020   49.1780 N.pl3     1 NAD1001     0.0000 
     14 C8A        46.4100   65.1550   50.4350 C.2       1 NAD1001     0.0000 
     15 N7A        46.6330   66.3330   51.0250 N.2       1 NAD1001     0.0000 
     16 C5A        47.2190   67.1360   50.1400 C.ar      1 NAD1001     0.0000 
     17 C6A        47.6740   68.4500   50.1780 C.ar      1 NAD1001     0.0000 
     18 N6A        47.5660   69.1740   51.2900 N.pl3     1 NAD1001     0.0000 
     19 N1A        48.2250   68.9800   49.0700 N.ar      1 NAD1001     0.0000 
     20 C2A        48.3390   68.2600   47.9590 C.ar      1 NAD1001     0.0000 
     21 N3A        47.9200   67.0000   47.8920 N.ar      1 NAD1001     0.0000 
     22 C4A        47.3560   66.4170   48.9610 C.ar      1 NAD1001     0.0000 
     23 O3         41.1230   60.9230   46.5170 O.3       1 NAD1001     0.0000 
     24 PN         40.4090   61.0270   45.0420 P.3       1 NAD1001     0.0000 
     25 O1N        41.4360   61.2940   44.0020 O.co2     1 NAD1001     0.0000 
     26 O2N        39.4830   59.8860   44.8760 O.co2     1 NAD1001     0.0000 
     27 O5D        39.5450   62.3350   45.2940 O.3       1 NAD1001     0.0000 
     28 C5D        40.1670   63.5950   45.5060 C.3       1 NAD1001     0.0000 
     29 C4D        39.0960   64.6290   45.8270 C.3       1 NAD1001     0.0000 
     30 O4D        38.1150   64.5650   44.7620 O.3       1 NAD1001     0.0000 
     31 C3D        38.3610   64.2760   47.1370 C.3       1 NAD1001     0.0000 
     32 O3D        38.0220   65.4800   47.8360 O.3       1 NAD1001     0.0000 
     33 C2D        37.0880   63.6020   46.6550 C.3       1 NAD1001     0.0000 
     34 O2D        36.0490   63.8010   47.6140 O.3       1 NAD1001     0.0000 
     35 C1D        36.8110   64.4260   45.3840 C.3       1 NAD1001     0.0000 
     36 N1N        35.8480   63.8590   44.4070 N.pl3     1 NAD1001     0.0000 
     37 C2N        34.8780   64.7220   43.8730 C.ar      1 NAD1001     0.0000 
     38 C3N        33.9540   64.2480   42.9470 C.ar      1 NAD1001     0.0000 
     39 C7N        32.9070   65.1920   42.3460 C.2       1 NAD1001     0.0000 
     40 O7N        31.8030   64.7050   41.7320 O.2       1 NAD1001     0.0000 
     41 N7N        33.1310   66.5060   42.4390 N.am      1 NAD1001     0.0000 
     42 C4N        33.9910   62.9030   42.5670 C.ar      1 NAD1001     0.0000 
     43 C5N        34.9540   62.0310   43.0880 C.ar      1 NAD1001     0.0000 
     44 C6N        35.8900   62.5070   44.0110 C.ar      1 NAD1001     0.0000 
     45 H          43.6283   62.4890   48.0761 H         1 NAD1001     0.0000 
     46 H          43.2432   63.3511   46.5766 H         1 NAD1001     0.0000 
     47 H          45.5746   63.0241   45.8469 H         1 NAD1001     0.0000 
     48 H          45.6666   61.1393   47.9316 H         1 NAD1001     0.0000 
     49 H          46.2136   62.6441   49.5420 H         1 NAD1001     0.0000 
     50 H          47.5296   64.2371   47.4164 H         1 NAD1001     0.0000 
     51 H          45.9873   64.3830   50.8569 H         1 NAD1001     0.0000 
     52 H          47.8719   70.1240   51.2280 H         1 NAD1001     0.0000 
     53 H          47.1887   68.7025   52.0871 H         1 NAD1001     0.0000 
     54 H          48.7773   68.7034   47.0998 H         1 NAD1001     0.0000 
     55 H          40.7091   63.9381   44.6193 H         1 NAD1001     0.0000 
     56 H          40.8695   63.5686   46.3449 H         1 NAD1001     0.0000 
     57 H          39.5217   65.5846   45.9059 H         1 NAD1001     0.0000 
     58 H          38.9341   63.6024   47.6789 H         1 NAD1001     0.0000 
     59 H          37.2878   62.6282   46.3923 H         1 NAD1001     0.0000 
     60 H          36.4871   65.4164   45.7074 H         1 NAD1001     0.0000 
     61 H          34.8549   65.7049   44.1702 H         1 NAD1001     0.0000 
     62 H          32.4124   67.1014   42.0796 H         1 NAD1001     0.0000 
     63 H          33.9971   66.7760   42.8597 H         1 NAD1001     0.0000 
     64 H          33.2964   62.5462   41.8905 H         1 NAD1001     0.0000 
     65 H          34.9722   61.0513   42.7947 H         1 NAD1001     0.0000 
     66 H          36.5999   61.8846   44.3978 H         1 NAD1001     0.0000 
     67 H          47.7999   62.3396   46.4416 H         1 NAD1001     0.0000 
     68 H          48.7467   62.9511   48.3760 H         1 NAD1001     0.0000 
     69 H          38.8590   65.7457   48.3144 H         1 NAD1001     0.0000 
     70 H          36.3334   64.6017   48.1412 H         1 NAD1001     0.0000 
@<TRIPOS>BOND
     1    2    1 ar   
     2    3    1 ar   
     3    4    1 1    
     4   23    1 1    
     5    5    4 1    
     6    6    5 1    
     7   45    5 1    
     8   46    5 1    
     9    7    6 1    
    10    8    6 1    
    11   47    6 1    
    12   12    7 1    
    13    9    8 1    
    14   10    8 1    
    15   48    8 1    
    16   67    9 1    
    17   11   10 1    
    18   12   10 1    
    19   49   10 1    
    20   68   11 1    
    21   13   12 1    
    22   50   12 1    
    23   14   13 1    
    24   22   13 1    
    25   15   14 2    
    26   51   14 1    
    27   16   15 1    
    28   17   16 ar   
    29   22   16 ar   
    30   18   17 1    
    31   19   17 ar   
    32   52   18 1    
    33   53   18 1    
    34   20   19 ar   
    35   21   20 ar   
    36   54   20 1    
    37   22   21 ar   
    38   24   23 1    
    39   25   24 ar   
    40   26   24 ar   
    41   27   24 1    
    42   28   27 1    
    43   29   28 1    
    44   55   28 1    
    45   56   28 1    
    46   30   29 1    
    47   31   29 1    
    48   57   29 1    
    49   35   30 1    
    50   32   31 1    
    51   33   31 1    
    52   58   31 1    
    53   69   32 1    
    54   34   33 1    
    55   35   33 1    
    56   59   33 1    
    57   70   34 1    
    58   36   35 1    
    59   60   35 1    
    60   37   36 ar   
    61   44   36 ar   
    62   38   37 ar   
    63   61   37 1    
    64   39   38 1    
    65   42   38 ar   
    66   40   39 2    
    67   41   39 am   
    68   62   41 1    
    69   63   41 1    
    70   43   42 ar   
    71   64   42 1    
    72   44   43 ar   
    73   65   43 1    
    74   66   44 1    
@<TRIPOS>SUBSTRUCTURE
     1 NAD1001     1 GROUP   
@<TRIPOS>SET

