#    Name: 1d4k_PI8_1_INTS_M
#    Modification time : Mon Mar 24 21:30:18 2014

@<TRIPOS>MOLECULE
1d4k_PI8_1_INTS_M
   96     0     9     0     0
SMALL
NO_CHARGES


@<TRIPOS>ATOM
      1 O           4.8390    2.9725   13.3865 O.2       1 ALC1        0.0000 
      2 O           4.6010    2.0260   12.0620 O.2       7 ALL1        0.0000 
      3 O           5.0770    3.9190   14.7110 O.2       4 ALP1        0.0000 
      4 CA          4.2760    0.4505    9.9195 C.3       3 GLC5        0.0000 
      5 CA          3.5320    1.9460   11.0500 C.3       9 GLL5        0.0000 
      6 CA          5.0200   -1.0450    8.7890 C.3       6 GLP5        0.0000 
      7 N           2.7195    4.9770   12.5170 N.am      2 SEC2        0.0000 
      8 N           3.7690    4.3110   11.4310 N.am      8 SEL2        0.0000 
      9 N           1.6700    5.6430   13.6030 N.am      5 SEP2        0.0000 
     10 O           3.4955    5.6770   10.9095 O.2       1 ALC1        0.0000 
     11 O           3.7690    4.3110   11.4310 O.2       7 ALL1        0.0000 
     12 O           3.2220    7.0430   10.3880 O.2       4 ALP1        0.0000 
     13 CA          1.6860    5.3930   10.8970 C.3       3 GLC5        0.0000 
     14 CA          2.0440    3.4960   10.0130 C.3       9 GLL5        0.0000 
     15 CA          1.3280    7.2900   11.7810 C.3       6 GLP5        0.0000 
     16 CA         -1.5500    3.9055   11.4495 C.3       3 GLC5        0.0000 
     17 CA         -0.0800    2.5520   11.2140 C.3       9 GLL5        0.0000 
     18 CA         -3.0200    5.2590   11.6850 C.3       6 GLP5        0.0000 
     19 CA          0.0025   -0.8215   14.2660 C.3       3 GLC5        0.0000 
     20 CA          0.3060    0.6990   12.7280 C.3       9 GLL5        0.0000 
     21 CA         -0.3010   -2.3420   15.8040 C.3       6 GLP5        0.0000 
     22 CA         -1.5195    3.5355   12.6060 C.3       3 GLC5        0.0000 
     23 CA         -0.5720    1.6070   12.1160 C.3       9 GLL5        0.0000 
     24 CA         -2.4670    5.4640   13.0960 C.3       6 GLP5        0.0000 
     25 CA          9.2905    0.6330   13.5265 C.3       3 GLC5        0.0000 
     26 CA          7.7430    1.2920   12.7740 C.3       9 GLL5        0.0000 
     27 CA         10.8380   -0.0260   14.2790 C.3       6 GLP5        0.0000 
     28 CA          6.3715    0.3585    9.5510 C.3       3 GLC5        0.0000 
     29 CA          7.7230    1.7620   10.3130 C.3       9 GLL5        0.0000 
     30 CA          8.2730    4.3470   13.4965 C.3       3 GLC5        0.0000 
     31 CA          7.7280    3.6130   11.8330 C.3       9 GLL5        0.0000 
     32 CA          8.8180    5.0810   15.1600 C.3       6 GLP5        0.0000 
     33 CA          8.6415   -0.0220   14.3500 C.3       3 GLC5        0.0000 
     34 CA          6.4450   -0.0180   14.4210 C.3       9 GLL5        0.0000 
     35 N           3.8995    0.1150   17.1050 N.am      2 SEC2        0.0000 
     36 N           5.2810    0.3390   16.5060 N.am      8 SEL2        0.0000 
     37 N           2.5180   -0.1090   17.7040 N.am      5 SEP2        0.0000 
     38 O           6.5400    0.7010   16.8415 O.2       1 ALC1        0.0000 
     39 O           5.2810    0.3390   16.5060 O.2       7 ALL1        0.0000 
     40 O           7.7990    1.0630   17.1770 O.2       4 ALP1        0.0000 
     41 CA          2.2070   -3.6235   18.6890 C.3       3 GLC5        0.0000 
     42 CA          2.7160   -4.2190   16.7070 C.3       9 GLL5        0.0000 
     43 CA          1.6980   -3.0280   20.6710 C.3       6 GLP5        0.0000 
     44 CA          1.2075   -3.2805   16.2555 C.3       3 GLC5        0.0000 
     45 CA          1.8065   -3.9880   14.6770 C.3       3 GLC5        0.0000 
     46 CA          0.8970   -3.7570   12.6470 C.3       6 GLP5        0.0000 
     47 CA          2.2980   -4.5940   19.4880 C.3       3 GLC5        0.0000 
     48 CA          2.8980   -6.1600   18.3050 C.3       9 GLL5        0.0000 
     49 O           5.7175   -3.9645   18.4475 O.2       1 ALC1        0.0000 
     50 O           6.0830   -4.8000   17.0790 O.2       7 ALL1        0.0000 
     51 O           5.3520   -3.1290   19.8160 O.2       4 ALP1        0.0000 
     52 CA          6.3300   -6.2010   14.7140 C.3       3 GLC5        0.0000 
     53 CA          7.1660   -5.7450   16.7330 C.3       9 GLL5        0.0000 
     54 CA          5.4940   -6.6570   12.6950 C.3       6 GLP5        0.0000 
     55 CA         10.9065   -6.4420   14.5170 C.3       3 GLC5        0.0000 
     56 CA          9.1810   -5.8100   15.2170 C.3       9 GLL5        0.0000 
     57 CA         12.6320   -7.0740   13.8170 C.3       6 GLP5        0.0000 
     58 CA         10.0625   -2.6590   13.5505 C.3       3 GLC5        0.0000 
     59 CA          9.3940   -2.9390   15.2290 C.3       9 GLL5        0.0000 
     60 CA         10.7310   -2.3790   11.8720 C.3       6 GLP5        0.0000 
     61 CA         10.1160   -1.4825   14.7540 C.3       3 GLC5        0.0000 
     62 N           8.0380   -5.3950   20.1290 N.am      2 SEC2        0.0000 
     63 N           7.4000   -6.0840   19.1040 N.am      8 SEL2        0.0000 
     64 N           8.6760   -4.7060   21.1540 N.am      5 SEP2        0.0000 
     65 O           7.0730   -8.1415   16.1860 O.2       1 ALC1        0.0000 
     66 O           7.6450   -7.8940   17.7790 O.2       7 ALL1        0.0000 
     67 O           6.5010   -8.3890   14.5930 O.2       4 ALP1        0.0000 
     68 CA          8.4300   -7.9230   20.4670 C.3       3 GLC5        0.0000 
     69 CA          7.9150   -8.8640   18.8560 C.3       9 GLL5        0.0000 
     70 CA          8.9450   -6.9820   22.0780 C.3       6 GLP5        0.0000 
     71 CA          2.0128    2.9903   13.1655 C.3       3 GLC5        0.0000 
     72 CA          2.1400    1.6920   11.5350 C.3       9 GLL5        0.0000 
     73 CA          2.3180    3.8410   15.0980 C.3       6 GLP5        0.0000 
     74 CA          1.5152   -1.2107   12.2190 C.3       3 GLC5        0.0000 
     75 CA          2.0450   -3.1450   11.8580 C.3       6 GLP5        0.0000 
     76 CA         -1.2105    0.9897   10.2115 C.3       3 GLC5        0.0000 
     77 CA         -2.0950   -0.1000    8.7580 C.3       6 GLP5        0.0000 
     78 CA         -1.7525    0.7891   12.0762 C.3       3 GLC5        0.0000 
     79 CA         -3.4950    0.1890   11.9560 C.3       6 GLP5        0.0000 
     80 CA          0.7449    1.9921   13.9360 C.3       3 GLC5        0.0000 
     81 CA          1.2830    2.8190   15.5240 C.3       6 GLP5        0.0000 
     82 CA          9.5458    2.6460   11.8380 C.3       3 GLC5        0.0000 
     83 CA         11.3510    3.5260   11.4800 C.3       6 GLP5        0.0000 
     84 CA          9.3343    1.6310    8.8220 C.3       3 GLC5        0.0000 
     85 CA         10.9590    1.0610    7.8680 C.3       6 GLP5        0.0000 
     86 CA          1.1382   -6.3518   18.4155 C.3       3 GLC5        0.0000 
     87 CA         -0.7050   -5.8660   18.3910 C.3       6 GLP5        0.0000 
     88 CA          1.0717   -5.8259   17.3970 C.3       3 GLC5        0.0000 
     89 CA          2.9240   -6.6160   15.9550 C.3       9 GLL5        0.0000 
     90 CA          4.2512   -6.9750   14.3893 C.3       3 GLC5        0.0000 
     91 CA          1.5351   -8.4832   15.8504 C.3       3 GLC5        0.0000 
     92 CA         -0.0160   -9.1110   14.8970 C.3       6 GLP5        0.0000 
     93 CA          9.0299   -2.7618   17.4620 C.3       3 GLC5        0.0000 
     94 CA          8.4860   -5.0290   16.3370 C.3       9 GLL5        0.0000 
     95 CA          9.1870   -1.8970   19.2590 C.3       6 GLP5        0.0000 
     96 CA          9.5283    3.5539   10.9704 C.3       3 GLC5        0.0000 
@<TRIPOS>BOND
@<TRIPOS>SUBSTRUCTURE
     1 ALC1        1 GROUP        1 X    ALC  0     ROOT ALC X 1
     2 SEC2        7 GROUP        1 X    SEC  0     **** SEC X 2
     3 GLC5        4 GROUP        1 X    GLC  0     **** GLC X 6
     4 ALP1        3 GROUP        1 Y    ALP  0     ROOT ALP Y 8
     5 SEP2        9 GROUP        1 Y    SEP  0     **** SEP Y 9
     6 GLP5        6 GROUP        1 Y    GLP  0     **** GLP Y 13
     7 ALL1        2 GROUP        1 Z    ALL  0     ROOT ALL Z 15
     8 SEL2        8 GROUP        1 Z    SEL  0     **** SEL Z 16
     9 GLL5        5 GROUP        1 Z    GLL  0     **** GLL Z 20
@<TRIPOS>SET

