#    Name: 1d4k_PI8_1_ligand
#    Modification time : Mon Mar 24 21:30:18 2014

@<TRIPOS>MOLECULE
1d4k_PI8_1_ligand
  104   108     1     0     0
SMALL
NO_CHARGES


@<TRIPOS>ATOM
      1 N1          4.6010    2.0260   12.0620 N.am      1 PI8201      0.0000 
      2 C2          3.5320    1.9460   11.0500 C.3       1 PI8201      0.0000 
      3 C1          3.4530    3.3260   10.4420 C.3       1 PI8201      0.0000 
      4 O1          3.7690    4.3110   11.4310 O.3       1 PI8201      0.0000 
      5 C9          2.0440    3.4960   10.0130 C.3       1 PI8201      0.0000 
      6 C3          2.1400    1.6920   11.5350 C.ar      1 PI8201      0.0000 
      7 C8          1.2750    2.5870   10.9310 C.ar      1 PI8201      0.0000 
      8 C4          1.6650    0.7480   12.4320 C.ar      1 PI8201      0.0000 
      9 C7         -0.0800    2.5520   11.2140 C.ar      1 PI8201      0.0000 
     10 C5          0.3060    0.6990   12.7280 C.ar      1 PI8201      0.0000 
     11 C6         -0.5720    1.6070   12.1160 C.ar      1 PI8201      0.0000 
     12 C11         6.3910    1.1670   13.4710 C.3       1 PI8201      0.0000 
     13 C12         7.7430    1.2920   12.7740 C.3       1 PI8201      0.0000 
     14 C13         7.7380    2.2400   11.6180 C.ar      1 PI8201      0.0000 
     15 C18         7.7230    1.7620   10.3130 C.ar      1 PI8201      0.0000 
     16 C14         7.7280    3.6130   11.8330 C.ar      1 PI8201      0.0000 
     17 C17         7.6960    2.6400    9.2390 C.ar      1 PI8201      0.0000 
     18 C15         7.7010    4.4990   10.7670 C.ar      1 PI8201      0.0000 
     19 C16         7.6840    4.0140    9.4670 C.ar      1 PI8201      0.0000 
     20 C10         5.2850    0.9460   12.4290 C.2       1 PI8201      0.0000 
     21 O2          5.0570   -0.1810   11.9770 O.2       1 PI8201      0.0000 
     22 C19         6.4450   -0.0180   14.4210 C.3       1 PI8201      0.0000 
     23 O3          5.2810    0.3390   16.5060 O.3       1 PI8201      0.0000 
     24 C20         5.1870   -0.2920   15.2230 C.3       1 PI8201      0.0000 
     25 C21         5.0960   -1.7900   15.3930 C.3       1 PI8201      0.0000 
     26 N2          3.9150   -2.1480   16.1700 N.4       1 PI8201      0.0000 
     27 C22         4.0580   -3.4820   16.7620 C.3       1 PI8201      0.0000 
     28 C23         2.7160   -4.2190   16.7070 C.3       1 PI8201      0.0000 
     29 C24         2.8300   -5.6920   16.9950 C.ar      1 PI8201      0.0000 
     30 C25         2.8980   -6.1600   18.3050 C.ar      1 PI8201      0.0000 
     31 C26         3.0650   -7.5150   18.5750 C.ar      1 PI8201      0.0000 
     32 C29         2.9240   -6.6160   15.9550 C.ar      1 PI8201      0.0000 
     33 C28         3.0930   -7.9700   16.2120 C.ar      1 PI8201      0.0000 
     34 C27         3.1640   -8.4180   17.5240 C.ar      1 PI8201      0.0000 
     35 O6          3.3520   -9.7700   17.7500 O.3       1 PI8201      0.0000 
     36 C30         5.1730   -4.3830   16.2000 C.2       1 PI8201      0.0000 
     37 O4          5.2480   -4.6210   14.9940 O.2       1 PI8201      0.0000 
     38 N3          6.0830   -4.8000   17.0790 N.am      1 PI8201      0.0000 
     39 C31         7.1660   -5.7450   16.7330 C.3       1 PI8201      0.0000 
     40 C32         8.4860   -5.0290   16.3370 C.3       1 PI8201      0.0000 
     41 C33         9.1810   -5.8100   15.2170 C.3       1 PI8201      0.0000 
     42 C34         8.2170   -3.5990   15.8650 C.3       1 PI8201      0.0000 
     43 C35         9.3940   -2.9390   15.2290 C.3       1 PI8201      0.0000 
     44 C36         7.4300   -6.5950   17.9780 C.2       1 PI8201      0.0000 
     45 O5          7.4000   -6.0840   19.1040 O.2       1 PI8201      0.0000 
     46 N4          7.6450   -7.8940   17.7790 N.am      1 PI8201      0.0000 
     47 C37         7.9150   -8.8640   18.8560 C.3       1 PI8201      0.0000 
     48 C38         7.6090  -10.3010   18.4460 C.3       1 PI8201      0.0000 
     49 C39         6.1340  -10.5030   18.1270 C.3       1 PI8201      0.0000 
     50 C40         5.2480  -10.0060   19.2570 C.3       1 PI8201      0.0000 
     51 C41         3.7780  -10.3070   18.9950 C.3       1 PI8201      0.0000 
     52 H           4.7748    2.9669   12.4567 H         1 PI8201      0.0000 
     53 H           3.7824    1.2739   10.2618 H         1 PI8201      0.0000 
     54 H           4.0923    3.3701    9.6005 H         1 PI8201      0.0000 
     55 H           1.9183    3.1769    9.0009 H         1 PI8201      0.0000 
     56 H           1.7268    4.5062   10.1568 H         1 PI8201      0.0000 
     57 H           2.3115    0.0861   12.8779 H         1 PI8201      0.0000 
     58 H          -0.7225    3.2142   10.7662 H         1 PI8201      0.0000 
     59 H          -0.0568    0.0059   13.3883 H         1 PI8201      0.0000 
     60 H          -1.5730    1.5735   12.3334 H         1 PI8201      0.0000 
     61 H           6.1908    2.0556   14.0187 H         1 PI8201      0.0000 
     62 H           8.0539    0.2885   12.4312 H         1 PI8201      0.0000 
     63 H           8.4918    1.6172   13.5188 H         1 PI8201      0.0000 
     64 H           7.7321    0.7430   10.1421 H         1 PI8201      0.0000 
     65 H           7.7409    3.9772   12.8017 H         1 PI8201      0.0000 
     66 H           7.6848    2.2799    8.2769 H         1 PI8201      0.0000 
     67 H           7.6936    5.5127   10.9386 H         1 PI8201      0.0000 
     68 H           7.6626    4.6653    8.6726 H         1 PI8201      0.0000 
     69 H           7.2948    0.1298   15.1269 H         1 PI8201      0.0000 
     70 H           6.7035   -0.9313   13.8368 H         1 PI8201      0.0000 
     71 H           4.3457    0.0445   14.6651 H         1 PI8201      0.0000 
     72 H           6.0088   -2.1416   15.8912 H         1 PI8201      0.0000 
     73 H           5.0606   -2.2534   14.3985 H         1 PI8201      0.0000 
     74 H           4.2726   -3.3623   17.8595 H         1 PI8201      0.0000 
     75 H           2.2762   -4.0711   15.7074 H         1 PI8201      0.0000 
     76 H           2.0306   -3.7527   17.4332 H         1 PI8201      0.0000 
     77 H           2.8231   -5.4893   19.0897 H         1 PI8201      0.0000 
     78 H           3.1146   -7.8441   19.5454 H         1 PI8201      0.0000 
     79 H           2.8665   -6.2844   14.9756 H         1 PI8201      0.0000 
     80 H           3.1652   -8.6373   15.4345 H         1 PI8201      0.0000 
     81 H           6.0830   -4.4787   18.0759 H         1 PI8201      0.0000 
     82 H           6.8706   -6.3952   15.9420 H         1 PI8201      0.0000 
     83 H           9.1323   -5.0036   17.1929 H         1 PI8201      0.0000 
     84 H           7.8788   -3.0044   16.7343 H         1 PI8201      0.0000 
     85 H           7.3706   -3.6219   15.1531 H         1 PI8201      0.0000 
     86 H           7.6333   -8.3120   16.8093 H         1 PI8201      0.0000 
     87 H           7.3114   -8.6232   19.7477 H         1 PI8201      0.0000 
     88 H           8.9735   -8.8101   19.1626 H         1 PI8201      0.0000 
     89 H           7.8974  -10.9749   19.2593 H         1 PI8201      0.0000 
     90 H           8.2066  -10.5574   17.5652 H         1 PI8201      0.0000 
     91 H           5.9448  -11.5664   17.9604 H         1 PI8201      0.0000 
     92 H           5.8875   -9.9622   17.2098 H         1 PI8201      0.0000 
     93 H           5.3784   -8.9257   19.3702 H         1 PI8201      0.0000 
     94 H           5.5514  -10.4860   20.1921 H         1 PI8201      0.0000 
     95 H           3.6505  -11.4035   19.0311 H         1 PI8201      0.0000 
     96 H           3.1973   -9.8923   19.8380 H         1 PI8201      0.0000 
     97 H          10.0367   -5.3750   14.9366 H         1 PI8201      0.0000 
     98 H           9.4050   -6.7430   15.4986 H         1 PI8201      0.0000 
     99 H           8.6067   -5.8799   14.4013 H         1 PI8201      0.0000 
    100 H          10.1701   -2.8787   15.8567 H         1 PI8201      0.0000 
    101 H           9.7082   -3.4381   14.4215 H         1 PI8201      0.0000 
    102 H           9.1827   -2.0072   14.9338 H         1 PI8201      0.0000 
    103 H           3.5854    5.1892   10.9894 H         1 PI8201      0.0000 
    104 H           6.2538    0.5369   16.6263 H         1 PI8201      0.0000 
@<TRIPOS>BOND
     1    2    1 1    
     2   20    1 am   
     3   52    1 1    
     4    3    2 1    
     5    6    2 1    
     6   53    2 1    
     7    4    3 1    
     8    5    3 1    
     9   54    3 1    
    10  103    4 1    
    11    7    5 1    
    12   55    5 1    
    13   56    5 1    
    14    7    6 ar   
    15    8    6 ar   
    16    9    7 ar   
    17   10    8 ar   
    18   57    8 1    
    19   11    9 ar   
    20   58    9 1    
    21   11   10 ar   
    22   59   10 1    
    23   60   11 1    
    24   13   12 1    
    25   20   12 1    
    26   22   12 1    
    27   61   12 1    
    28   14   13 1    
    29   62   13 1    
    30   63   13 1    
    31   15   14 ar   
    32   16   14 ar   
    33   17   15 ar   
    34   64   15 1    
    35   18   16 ar   
    36   65   16 1    
    37   19   17 ar   
    38   66   17 1    
    39   19   18 ar   
    40   67   18 1    
    41   68   19 1    
    42   21   20 2    
    43   24   22 1    
    44   69   22 1    
    45   70   22 1    
    46   24   23 1    
    47  104   23 1    
    48   25   24 1    
    49   71   24 1    
    50   26   25 1    
    51   72   25 1    
    52   73   25 1    
    53   27   26 1    
    54   28   27 1    
    55   36   27 1    
    56   74   27 1    
    57   29   28 1    
    58   75   28 1    
    59   76   28 1    
    60   30   29 ar   
    61   32   29 ar   
    62   31   30 ar   
    63   77   30 1    
    64   34   31 ar   
    65   78   31 1    
    66   33   32 ar   
    67   79   32 1    
    68   34   33 ar   
    69   80   33 1    
    70   35   34 1    
    71   51   35 1    
    72   37   36 2    
    73   38   36 am   
    74   39   38 1    
    75   81   38 1    
    76   40   39 1    
    77   44   39 1    
    78   82   39 1    
    79   41   40 1    
    80   42   40 1    
    81   83   40 1    
    82   97   41 1    
    83   98   41 1    
    84   99   41 1    
    85   43   42 1    
    86   84   42 1    
    87   85   42 1    
    88  100   43 1    
    89  101   43 1    
    90  102   43 1    
    91   45   44 2    
    92   46   44 am   
    93   47   46 1    
    94   86   46 1    
    95   48   47 1    
    96   87   47 1    
    97   88   47 1    
    98   49   48 1    
    99   89   48 1    
   100   90   48 1    
   101   50   49 1    
   102   91   49 1    
   103   92   49 1    
   104   51   50 1    
   105   93   50 1    
   106   94   50 1    
   107   95   51 1    
   108   96   51 1    
@<TRIPOS>SUBSTRUCTURE
     1 PI8201      1 GROUP   
@<TRIPOS>SET

