#    Name: 4fyy_UTP_2_INTS_M
#    Modification time : Mon Mar 24 21:07:19 2014

@<TRIPOS>MOLECULE
4fyy_UTP_2_INTS_M
   56     0    15     0     0
SMALL
NO_CHARGES


@<TRIPOS>ATOM
      1 NZ         31.4795   93.9105   37.0245 N.4       3 LYC4        0.0000 
      2 NZ         30.4250   94.9380   37.0530 N.4      13 LYL4        0.0000 
      3 NZ         32.5340   92.8830   36.9960 N.4       8 LYP4        0.0000 
      4 N          31.4795   93.9105   37.0245 N.am      2 SEC2        0.0000 
      5 N          30.4250   94.9380   37.0530 N.am     12 SEL2        0.0000 
      6 N          32.5340   92.8830   36.9960 N.am      7 SEP2        0.0000 
      7 Zn         32.2560   97.3455   38.9920 Zn        4 ZIC7        0.0000 
      8 Zn         31.7110   97.6170   38.2170 Zn       14 ZIL7        0.0000 
      9 Zn         32.8010   97.0740   39.7670 Zn        9 ZIP7        0.0000 
     10 Zn         33.4275   96.6665   39.3025 Zn        4 ZIC7        0.0000 
     11 Zn         34.0540   96.2590   38.8380 Zn       14 ZIL7        0.0000 
     12 N          34.6785   95.1455   39.5835 N.am      2 SEC2        0.0000 
     13 N          34.0540   96.2590   38.8380 N.am     12 SEL2        0.0000 
     14 N          35.3030   94.0320   40.3290 N.am      7 SEP2        0.0000 
     15 NZ         33.7100   93.7930   37.0565 N.4       3 LYC4        0.0000 
     16 NZ         34.8860   94.7030   37.1170 N.4      13 LYL4        0.0000 
     17 N          33.7100   93.7930   37.0565 N.am      2 SEC2        0.0000 
     18 N          34.8860   94.7030   37.1170 N.am     12 SEL2        0.0000 
     19 N          35.4370   97.1230   35.2230 N.am      2 SEC2        0.0000 
     20 N          35.3560   97.1180   36.8860 N.am     12 SEL2        0.0000 
     21 N          35.5180   97.1280   33.5600 N.am      7 SEP2        0.0000 
     22 N          36.6025   97.2410   36.0055 N.am      2 SEC2        0.0000 
     23 N          37.8490   97.3640   35.1250 N.am      7 SEP2        0.0000 
     24 CA         31.2145   93.4320   34.9680 C.3       5 GLC5        0.0000 
     25 CA         29.9410   94.9890   34.0360 C.3      15 GLL5        0.0000 
     26 CA         32.4880   91.8750   35.9000 C.3      10 GLP5        0.0000 
     27 CA         28.3710   90.7380   33.8380 C.3       5 GLC5        0.0000 
     28 CA         27.5860   92.7760   33.8040 C.3      15 GLL5        0.0000 
     29 CA         29.1560   88.7000   33.8720 C.3      10 GLP5        0.0000 
     30 O          24.6120   94.8615   32.4085 O.2       1 ALC1        0.0000 
     31 O          25.8480   93.9500   32.6100 O.2      11 ALL1        0.0000 
     32 O          23.3760   95.7730   32.2070 O.2       6 ALP1        0.0000 
     33 N          24.0510   90.4375   34.5025 N.am      2 SEC2        0.0000 
     34 N          25.2470   91.2440   34.5100 N.am     12 SEL2        0.0000 
     35 N          22.8550   89.6310   34.4950 N.am      7 SEP2        0.0000 
     36 O          24.3705   90.8310   37.0665 O.2       1 ALC1        0.0000 
     37 O          25.6360   91.3790   36.6800 O.2      11 ALL1        0.0000 
     38 O          23.1050   90.2830   37.4530 O.2       6 ALP1        0.0000 
     39 N          25.0735   90.7140   39.5515 N.am      2 SEC2        0.0000 
     40 N          25.9860   91.4880   38.8940 N.am     12 SEL2        0.0000 
     41 N          24.1610   89.9400   40.2090 N.am      7 SEP2        0.0000 
     42 N          26.1345   92.4705   39.7920 N.am      2 SEC2        0.0000 
     43 N          26.2830   93.4530   40.6900 N.am      7 SEP2        0.0000 
     44 CA         27.7425   90.3730   37.8115 C.3       5 GLC5        0.0000 
     45 CA         27.5200   92.5160   37.5180 C.3      15 GLL5        0.0000 
     46 CA         27.9650   88.2300   38.1050 C.3      10 GLP5        0.0000 
     47 CA         27.9830   93.0370   39.6390 C.3       5 GLC5        0.0000 
     48 CA         28.4460   93.5580   41.7600 C.3      10 GLP5        0.0000 
     49 CA         29.7515   94.0810   31.1335 C.3       5 GLC5        0.0000 
     50 CA         29.3220   94.0350   33.0700 C.3      15 GLL5        0.0000 
     51 CA         30.8060   93.8490   29.4910 C.3      10 GLP5        0.0000 
     52 CA         25.9490   94.1570   34.8483 C.3       5 GLC5        0.0000 
     53 CA         27.0700   94.0900   33.3150 C.3      15 GLL5        0.0000 
     54 CA         24.5700   94.8810   36.1370 C.3      10 GLP5        0.0000 
     55 CA         26.1403   93.7765   36.5003 C.3       5 GLC5        0.0000 
     56 CA         27.9010   92.8280   36.2090 C.3      15 GLL5        0.0000 
@<TRIPOS>BOND
@<TRIPOS>SUBSTRUCTURE
     1 ALC1       30 GROUP        1 X    ALC  0     ROOT ALC X 1
     2 SEC2        4 GROUP        1 X    SEC  0     **** SEC X 2
     3 LYC4        1 GROUP        1 X    LYC  0     **** LYC X 4
     4 ZIC7        7 GROUP        1 X    ZIC  0     **** ZIC X 5
     5 GLC5       24 GROUP        1 X    GLC  0     **** GLC X 6
     6 ALP1       32 GROUP        1 Y    ALP  0     ROOT ALP Y 8
     7 SEP2        6 GROUP        1 Y    SEP  0     **** SEP Y 9
     8 LYP4        3 GROUP        1 Y    LYP  0     **** LYP Y 11
     9 ZIP7        9 GROUP        1 Y    ZIP  0     **** ZIP Y 12
    10 GLP5       26 GROUP        1 Y    GLP  0     **** GLP Y 13
    11 ALL1       31 GROUP        1 Z    ALL  0     ROOT ALL Z 15
    12 SEL2        5 GROUP        1 Z    SEL  0     **** SEL Z 16
    13 LYL4        2 GROUP        1 Z    LYL  0     **** LYL Z 18
    14 ZIL7        8 GROUP        1 Z    ZIL  0     **** ZIL Z 19
    15 GLL5       25 GROUP        1 Z    GLL  0     **** GLL Z 20
@<TRIPOS>SET

