#    Name: 4fyy_UTP_2_ligand
#    Modification time : Mon Mar 24 21:07:19 2014

@<TRIPOS>MOLECULE
4fyy_UTP_2_ligand
   40    41     1     0     0
SMALL
NO_CHARGES


@<TRIPOS>ATOM
      1 PA         29.7200   96.0370   36.3710 P.3       1 UTP202      0.0000 
      2 O1A        28.5980   96.5130   37.2130 O.co2     1 UTP202      0.0000 
      3 O2A        30.4250   94.9380   37.0530 O.co2     1 UTP202      0.0000 
      4 O3A        30.6980   97.1830   35.9930 O.3       1 UTP202      0.0000 
      5 O5'        29.0930   95.4990   35.0630 O.3       1 UTP202      0.0000 
      6 PB         32.0060   97.4550   36.7630 P.3       1 UTP202      0.0000 
      7 O1B        32.6510   98.7350   36.2110 O.co2     1 UTP202      0.0000 
      8 O2B        31.7110   97.6170   38.2170 O.co2     1 UTP202      0.0000 
      9 O3B        32.9590   96.2450   36.5330 O.3       1 UTP202      0.0000 
     10 PG         34.3150   96.0800   37.3750 P.3       1 UTP202      0.0000 
     11 O1G        34.0540   96.2590   38.8380 O.co2     1 UTP202      0.0000 
     12 O2G        34.8860   94.7030   37.1170 O.co2     1 UTP202      0.0000 
     13 O3G        35.3560   97.1180   36.8860 O.co2     1 UTP202      0.0000 
     14 C5'        29.9410   94.9890   34.0360 C.3       1 UTP202      0.0000 
     15 C4'        29.3220   94.0350   33.0700 C.3       1 UTP202      0.0000 
     16 O4'        28.9710   92.8610   33.7400 O.3       1 UTP202      0.0000 
     17 C1'        27.5860   92.7760   33.8040 C.3       1 UTP202      0.0000 
     18 C2'        27.0700   94.0900   33.3150 C.3       1 UTP202      0.0000 
     19 O2'        25.8480   93.9500   32.6100 O.3       1 UTP202      0.0000 
     20 C3'        28.0720   94.5910   32.4820 C.3       1 UTP202      0.0000 
     21 O3'        27.8890   94.1150   31.1830 O.3       1 UTP202      0.0000 
     22 N1         27.1540   92.4050   35.1740 N.am      1 UTP202      0.0000 
     23 C6         27.9010   92.8280   36.2090 C.2       1 UTP202      0.0000 
     24 C2         25.9850   91.6600   35.4270 C.2       1 UTP202      0.0000 
     25 O2         25.2470   91.2440   34.5100 O.2       1 UTP202      0.0000 
     26 N3         25.6360   91.3790   36.6800 N.am      1 UTP202      0.0000 
     27 C4         26.3610   91.7780   37.7310 C.2       1 UTP202      0.0000 
     28 O4         25.9860   91.4880   38.8940 O.2       1 UTP202      0.0000 
     29 C5         27.5200   92.5160   37.5180 C.2       1 UTP202      0.0000 
     30 H          30.8434   94.4825   34.4887 H         1 UTP202      0.0000 
     31 H          30.3896   95.8378   33.4410 H         1 UTP202      0.0000 
     32 H          30.0197   93.8345   32.2730 H         1 UTP202      0.0000 
     33 H          27.2353   92.0043   33.1014 H         1 UTP202      0.0000 
     34 H          26.9510   94.7328   34.1835 H         1 UTP202      0.0000 
     35 H          28.1214   95.6536   32.5362 H         1 UTP202      0.0000 
     36 H          28.7604   93.3847   36.0626 H         1 UTP202      0.0000 
     37 H          24.7505   90.8179   36.8551 H         1 UTP202      0.0000 
     38 H          28.0896   92.8286   38.3067 H         1 UTP202      0.0000 
     39 H          25.3553   94.8046   32.7740 H         1 UTP202      0.0000 
     40 H          26.9105   93.9206   31.1142 H         1 UTP202      0.0000 
@<TRIPOS>BOND
     1    2    1 ar   
     2    3    1 ar   
     3    4    1 1    
     4    5    1 1    
     5    6    4 1    
     6   14    5 1    
     7    7    6 ar   
     8    8    6 ar   
     9    9    6 1    
    10   10    9 1    
    11   11   10 ar   
    12   12   10 ar   
    13   13   10 ar   
    14   15   14 1    
    15   30   14 1    
    16   31   14 1    
    17   16   15 1    
    18   20   15 1    
    19   32   15 1    
    20   17   16 1    
    21   18   17 1    
    22   22   17 1    
    23   33   17 1    
    24   19   18 1    
    25   20   18 1    
    26   34   18 1    
    27   39   19 1    
    28   21   20 1    
    29   35   20 1    
    30   40   21 1    
    31   23   22 1    
    32   24   22 1    
    33   29   23 2    
    34   36   23 1    
    35   25   24 2    
    36   26   24 1    
    37   27   26 1    
    38   37   26 1    
    39   28   27 2    
    40   29   27 1    
    41   38   29 1    
@<TRIPOS>SUBSTRUCTURE
     1 UTP202      1 GROUP   
@<TRIPOS>SET

