#    Name: 3v3m_0EN_1_INTS_M
#    Modification time : Mon Mar 24 23:56:01 2014

@<TRIPOS>MOLECULE
3v3m_0EN_1_INTS_M
   75     0     6     0     0
SMALL
NO_CHARGES


@<TRIPOS>ATOM
      1 N          20.9900  -29.5415    1.1200 N.am      1 SEC2        0.0000 
      2 N          21.8260  -28.7010    0.2550 N.am      5 SEL2        0.0000 
      3 N          20.1540  -30.3820    1.9850 N.am      3 SEP2        0.0000 
      4 CA         22.9950  -33.5505   -2.7960 C.3       2 GLC5        0.0000 
      5 CA         24.1090  -32.0950   -1.5550 C.3       6 GLL5        0.0000 
      6 CA         21.8810  -35.0060   -4.0370 C.3       4 GLP5        0.0000 
      7 CA         21.8435  -34.0080   -1.3320 C.3       2 GLC5        0.0000 
      8 CA         23.0990  -32.3750   -0.6530 C.3       6 GLL5        0.0000 
      9 CA         20.5880  -35.6410   -2.0110 C.3       4 GLP5        0.0000 
     10 CA         21.4085  -32.0785    0.6225 C.3       2 GLC5        0.0000 
     11 CA         19.7180  -31.7820    1.8980 C.3       4 GLP5        0.0000 
     12 N          21.3280  -30.7845    0.8555 N.am      1 SEC2        0.0000 
     13 N          22.5020  -31.1870   -0.2740 N.am      5 SEL2        0.0000 
     14 CA         29.6910  -27.2845   -5.3320 C.3       2 GLC5        0.0000 
     15 CA         27.8040  -27.1130   -5.6660 C.3       6 GLL5        0.0000 
     16 CA         31.5780  -27.4560   -4.9980 C.3       4 GLP5        0.0000 
     17 CA         28.3000  -26.8180   -7.7640 C.3       2 GLC5        0.0000 
     18 CA         28.7960  -26.5230   -9.8620 C.3       4 GLP5        0.0000 
     19 CA         25.8870  -28.2385   -9.0980 C.3       2 GLC5        0.0000 
     20 CA         26.2250  -28.5120   -6.9550 C.3       6 GLL5        0.0000 
     21 CA         25.5490  -27.9650  -11.2410 C.3       4 GLP5        0.0000 
     22 CA         27.5105  -27.5175   -8.4085 C.3       2 GLC5        0.0000 
     23 CA         26.7780  -30.9300   -6.5075 C.3       2 GLC5        0.0000 
     24 CA         27.7660  -29.5840   -5.3440 C.3       6 GLL5        0.0000 
     25 CA         25.7900  -32.2760   -7.6710 C.3       4 GLP5        0.0000 
     26 CA         29.4490  -30.5790   -5.9340 C.3       2 GLC5        0.0000 
     27 CA         31.1320  -31.5740   -6.5240 C.3       4 GLP5        0.0000 
     28 CA         29.5075  -28.9995   -4.6035 C.3       2 GLC5        0.0000 
     29 CA         31.2490  -28.4150   -3.8630 C.3       4 GLP5        0.0000 
     30 CA         28.2790  -27.7130   -2.8695 C.3       2 GLC5        0.0000 
     31 CA         26.2700  -27.7800   -3.1940 C.3       6 GLL5        0.0000 
     32 CA         30.2880  -27.6460   -2.5450 C.3       4 GLP5        0.0000 
     33 N          21.6170  -24.6010   -3.9000 N.am      1 SEC2        0.0000 
     34 N          22.7010  -25.2600   -3.2250 N.am      5 SEL2        0.0000 
     35 N          20.5330  -23.9420   -4.5750 N.am      3 SEP2        0.0000 
     36 CA         16.6035  -25.6870   -0.7570 C.3       2 GLC5        0.0000 
     37 CA         18.3800  -25.5530   -0.7530 C.3       6 GLL5        0.0000 
     38 CA         14.8270  -25.8210   -0.7610 C.3       4 GLP5        0.0000 
     39 CA         17.4635  -26.8755   -2.3155 C.3       2 GLC5        0.0000 
     40 CA         16.5470  -28.1980   -3.8780 C.3       4 GLP5        0.0000 
     41 CA         17.2820  -24.3450   -2.0205 C.3       2 GLC5        0.0000 
     42 CA         16.1840  -23.1370   -3.2880 C.3       4 GLP5        0.0000 
     43 N          17.9395  -26.5880   -2.8025 N.am      1 SEC2        0.0000 
     44 N          18.8480  -26.2460   -1.7870 N.am      5 SEL2        0.0000 
     45 N          17.0310  -26.9300   -3.8180 N.am      3 SEP2        0.0000 
     46 CA         20.3765  -28.4940   -2.5050 C.3       2 GLC5        0.0000 
     47 CA         20.1560  -26.5290   -1.9260 C.3       6 GLL5        0.0000 
     48 CA         20.5970  -30.4590   -3.0840 C.3       4 GLP5        0.0000 
     49 CA         18.3515  -27.3635   -2.9020 C.3       2 GLC5        0.0000 
     50 CA         20.3995  -26.2625   -3.8695 C.3       2 GLC5        0.0000 
     51 CA         20.6430  -25.9960   -5.8130 C.3       4 GLP5        0.0000 
     52 CA         24.2127  -31.8412   -3.5605 C.3       2 GLC5        0.0000 
     53 CA         24.1440  -30.7260   -1.7450 C.3       6 GLL5        0.0000 
     54 CA         24.2990  -32.2720   -5.4710 C.3       4 GLP5        0.0000 
     55 CA         24.7930  -33.8490   -1.1880 C.3       2 GLC5        0.0000 
     56 CA         25.9820  -35.4630   -1.2720 C.3       4 GLP5        0.0000 
     57 CA         22.1803  -29.2570   -3.0830 C.3       2 GLC5        0.0000 
     58 CA         23.5670  -28.2490   -3.7250 C.3       6 GLL5        0.0000 
     59 CA         24.1713  -30.2995   -4.8502 C.3       2 GLC5        0.0000 
     60 CA         22.9873  -27.0115   -5.4082 C.3       2 GLC5        0.0000 
     61 CA         24.5200  -28.4050   -4.7340 C.3       6 GLL5        0.0000 
     62 CA         21.9310  -25.6960   -6.5870 C.3       4 GLP5        0.0000 
     63 CA         25.5747  -30.1947   -6.5392 C.3       2 GLC5        0.0000 
     64 CA         24.5840  -31.9620   -6.8020 C.3       4 GLP5        0.0000 
     65 CA         20.1315  -26.6928    1.5973 C.3       2 GLC5        0.0000 
     66 CA         20.5990  -25.3210    0.1060 C.3       6 GLL5        0.0000 
     67 CA         20.3500  -28.1990    3.0270 C.3       4 GLP5        0.0000 
     68 CA         17.9068  -25.7858    1.4800 C.3       2 GLC5        0.0000 
     69 CA         19.2270  -25.0520    0.2290 C.3       6 GLL5        0.0000 
     70 CA         17.0100  -26.2690    3.2220 C.3       4 GLP5        0.0000 
     71 CA         19.3357  -23.9183   -1.4705 C.3       2 GLC5        0.0000 
     72 CA         19.8680  -22.5340   -2.6790 C.3       4 GLP5        0.0000 
     73 CA         20.1814  -24.3236   -1.9294 C.3       2 GLC5        0.0000 
     74 CA         22.1101  -30.9017   -2.1554 C.3       2 GLC5        0.0000 
     75 CA         23.1410  -30.1820   -0.9540 C.3       6 GLL5        0.0000 
@<TRIPOS>BOND
@<TRIPOS>SUBSTRUCTURE
     1 SEC2        1 GROUP        1 X    SEC  0     ROOT SEC X 2
     2 GLC5        4 GROUP        1 X    GLC  0     **** GLC X 6
     3 SEP2        3 GROUP        1 Y    SEP  0     ROOT SEP Y 9
     4 GLP5        6 GROUP        1 Y    GLP  0     **** GLP Y 13
     5 SEL2        2 GROUP        1 Z    SEL  0     ROOT SEL Z 16
     6 GLL5        5 GROUP        1 Z    GLL  0     **** GLL Z 20
@<TRIPOS>SET

