#    Name: 3v3m_0EN_1_ligand
#    Modification time : Mon Mar 24 23:56:01 2014

@<TRIPOS>MOLECULE
3v3m_0EN_1_ligand
   63    65     1     0     0
SMALL
NO_CHARGES


@<TRIPOS>ATOM
      1 O1         21.8260  -28.7010    0.2550 O.2       1 0EN401      0.0000 
      2 C1         22.6250  -28.7910   -0.6720 C.2       1 0EN401      0.0000 
      3 C4         23.1410  -30.1820   -0.9540 C.2       1 0EN401      0.0000 
      4 C5         24.1440  -30.7260   -1.7450 C.2       1 0EN401      0.0000 
      5 C6         24.1090  -32.0950   -1.5550 C.2       1 0EN401      0.0000 
      6 C7         23.0990  -32.3750   -0.6530 C.2       1 0EN401      0.0000 
      7 O3         22.5020  -31.1870   -0.2740 O.3       1 0EN401      0.0000 
      8 N1         23.0070  -27.7030   -1.3980 N.am      1 0EN401      0.0000 
      9 C8         23.9600  -27.8610   -2.4390 C.ar      1 0EN401      0.0000 
     10 C9         23.5670  -28.2490   -3.7250 C.ar      1 0EN401      0.0000 
     11 C10        24.5200  -28.4050   -4.7340 C.ar      1 0EN401      0.0000 
     12 C11        25.8800  -28.1720   -4.4850 C.ar      1 0EN401      0.0000 
     13 C14        26.9060  -28.3430   -5.5980 C.3       1 0EN401      0.0000 
     14 C15        27.8040  -27.1130   -5.6660 C.3       1 0EN401      0.0000 
     15 C16        26.2250  -28.5120   -6.9550 C.3       1 0EN401      0.0000 
     16 C17        27.7660  -29.5840   -5.3440 C.3       1 0EN401      0.0000 
     17 C12        26.2700  -27.7800   -3.1940 C.ar      1 0EN401      0.0000 
     18 C13        25.3220  -27.6300   -2.1780 C.ar      1 0EN401      0.0000 
     19 C2         22.5400  -26.3240   -1.0950 C.3       1 0EN401      0.0000 
     20 C3         23.1050  -25.3000   -2.0580 C.2       1 0EN401      0.0000 
     21 N2         24.0530  -24.5110   -1.5220 N.am      1 0EN401      0.0000 
     22 C23        24.8250  -23.4290   -2.1480 C.3       1 0EN401      0.0000 
     23 C24        24.7860  -23.4420   -3.6720 C.3       1 0EN401      0.0000 
     24 C25        26.2950  -23.5120   -1.7450 C.3       1 0EN401      0.0000 
     25 C26        24.2860  -22.1040   -1.6220 C.3       1 0EN401      0.0000 
     26 O2         22.7010  -25.2600   -3.2250 O.2       1 0EN401      0.0000 
     27 C18        21.0680  -26.0740   -0.9730 C.ar      1 0EN401      0.0000 
     28 C19        20.5990  -25.3210    0.1060 C.ar      1 0EN401      0.0000 
     29 C20        19.2270  -25.0520    0.2290 C.ar      1 0EN401      0.0000 
     30 C21        18.3800  -25.5530   -0.7530 C.ar      1 0EN401      0.0000 
     31 N3         18.8480  -26.2460   -1.7870 N.ar      1 0EN401      0.0000 
     32 C22        20.1560  -26.5290   -1.9260 C.ar      1 0EN401      0.0000 
     33 H          24.7344  -30.2499   -2.3037 H         1 0EN401      0.0000 
     34 H          24.6785  -32.7314   -1.9708 H         1 0EN401      0.0000 
     35 H          22.8547  -33.2441   -0.3435 H         1 0EN401      0.0000 
     36 H          22.5741  -28.4193   -3.9261 H         1 0EN401      0.0000 
     37 H          24.2210  -28.6962   -5.6783 H         1 0EN401      0.0000 
     38 H          27.2646  -27.6021   -2.9971 H         1 0EN401      0.0000 
     39 H          25.6179  -27.3500   -1.2356 H         1 0EN401      0.0000 
     40 H          22.9897  -26.0274   -0.0870 H         1 0EN401      0.0000 
     41 H          24.3183  -24.6615   -0.4744 H         1 0EN401      0.0000 
     42 H          21.2537  -24.9639    0.8088 H         1 0EN401      0.0000 
     43 H          18.8735  -24.5126    1.0063 H         1 0EN401      0.0000 
     44 H          17.3525  -25.3660   -0.6523 H         1 0EN401      0.0000 
     45 H          20.5063  -27.0796   -2.7274 H         1 0EN401      0.0000 
     46 H          28.2941  -26.9630   -4.8073 H         1 0EN401      0.0000 
     47 H          28.4929  -27.1955   -6.3861 H         1 0EN401      0.0000 
     48 H          27.2813  -26.2815   -5.8542 H         1 0EN401      0.0000 
     49 H          26.8904  -28.6219   -7.6933 H         1 0EN401      0.0000 
     50 H          25.6301  -29.3156   -6.9745 H         1 0EN401      0.0000 
     51 H          25.6578  -27.7217   -7.1869 H         1 0EN401      0.0000 
     52 H          28.4456  -29.7188   -6.0651 H         1 0EN401      0.0000 
     53 H          28.2647  -29.5197   -4.4796 H         1 0EN401      0.0000 
     54 H          27.2136  -30.4165   -5.3025 H         1 0EN401      0.0000 
     55 H          25.3233  -22.6951   -4.0636 H         1 0EN401      0.0000 
     56 H          25.1526  -24.2941   -4.0456 H         1 0EN401      0.0000 
     57 H          23.8536  -23.3464   -4.0205 H         1 0EN401      0.0000 
     58 H          26.7073  -24.3803   -2.0208 H         1 0EN401      0.0000 
     59 H          26.8368  -22.7838   -2.1647 H         1 0EN401      0.0000 
     60 H          26.4138  -23.4324   -0.7553 H         1 0EN401      0.0000 
     61 H          24.3695  -22.0375   -0.6277 H         1 0EN401      0.0000 
     62 H          24.7760  -21.3234   -2.0101 H         1 0EN401      0.0000 
     63 H          23.3185  -21.9824   -1.8436 H         1 0EN401      0.0000 
@<TRIPOS>BOND
     1    2    1 2    
     2    3    2 1    
     3    8    2 am   
     4    4    3 2    
     5    7    3 1    
     6    5    4 1    
     7   33    4 1    
     8    6    5 2    
     9   34    5 1    
    10    7    6 1    
    11   35    6 1    
    12    9    8 1    
    13   19    8 1    
    14   10    9 ar   
    15   18    9 ar   
    16   11   10 ar   
    17   36   10 1    
    18   12   11 ar   
    19   37   11 1    
    20   13   12 1    
    21   17   12 ar   
    22   14   13 1    
    23   15   13 1    
    24   16   13 1    
    25   46   14 1    
    26   47   14 1    
    27   48   14 1    
    28   49   15 1    
    29   50   15 1    
    30   51   15 1    
    31   52   16 1    
    32   53   16 1    
    33   54   16 1    
    34   18   17 ar   
    35   38   17 1    
    36   39   18 1    
    37   20   19 1    
    38   27   19 1    
    39   40   19 1    
    40   21   20 am   
    41   26   20 2    
    42   22   21 1    
    43   41   21 1    
    44   23   22 1    
    45   24   22 1    
    46   25   22 1    
    47   55   23 1    
    48   56   23 1    
    49   57   23 1    
    50   58   24 1    
    51   59   24 1    
    52   60   24 1    
    53   61   25 1    
    54   62   25 1    
    55   63   25 1    
    56   28   27 ar   
    57   32   27 ar   
    58   29   28 ar   
    59   42   28 1    
    60   30   29 ar   
    61   43   29 1    
    62   31   30 ar   
    63   44   30 1    
    64   32   31 ar   
    65   45   32 1    
@<TRIPOS>SUBSTRUCTURE
     1 0EN401      1 GROUP   
@<TRIPOS>SET

