#    Name: 2W0W_1_CAVITY_N1_ALL.mol2
#    Modification time : Mon Mar 10 18:31:57 2014

@<TRIPOS>MOLECULE
2W0W_1_CAVITY_N1_ALL.mol2
   72     0     6     0     0
SMALL
NO_CHARGES


@<TRIPOS>ATOM
      1 N          66.8881    9.4254   80.8660 N.2       2 ALA2        0.0000 
      2 O          66.2339   10.5302   80.0905 O.2       2 ALA2        0.0000 
      3 O          65.5797   11.6350   79.3150 O.2       2 ALA2        0.0000 
      4 CZ         64.9254   12.7398   78.5394 C.ar      4 PHE5        0.0000 
      5 OG         64.2712   13.8446   77.7639 O.2       1 SER1        0.0000 
      6 NZ         63.6170   14.9494   76.9884 N.2       3 LYS4        0.0000 
      7 NZ         66.4504    7.3808   81.2238 N.2       3 LYS4        0.0000 
      8 NZ         65.7962    8.4856   80.4483 N.2       3 LYS4        0.0000 
      9 DU         65.1420    9.5904   79.6728 H         6 CUB7        0.0000 
     10 O          64.4877   10.6952   78.8973 O.2       2 ALA2        0.0000 
     11 O          63.8335   11.8000   78.1218 O.2       2 ALA2        0.0000 
     12 NZ         63.1793   12.9048   77.3462 N.2       3 LYS4        0.0000 
     13 NZ         62.5251   14.0096   76.5707 N.2       3 LYS4        0.0000 
     14 NZ         61.8709   15.1143   75.7952 N.2       3 LYS4        0.0000 
     15 NZ         65.3585    6.4410   80.8062 N.2       3 LYS4        0.0000 
     16 NZ         64.7043    7.5458   80.0306 N.2       3 LYS4        0.0000 
     17 DU         64.0500    8.6506   79.2551 H         6 CUB7        0.0000 
     18 N          63.3958    9.7554   78.4796 N.2       2 ALA2        0.0000 
     19 N          62.7416   10.8602   77.7041 N.2       2 ALA2        0.0000 
     20 N          62.0874   11.9650   76.9286 N.2       2 ALA2        0.0000 
     21 N          61.4331   13.0698   76.1530 N.2       2 ALA2        0.0000 
     22 CA         60.7789   14.1745   75.3775 C.3       5 GLY6        0.0000 
     23 CZ         63.6123    6.6060   79.6129 C.ar      4 PHE5        0.0000 
     24 N          62.9581    7.7108   78.8374 N.2       2 ALA2        0.0000 
     25 N          62.3039    8.8156   78.0619 N.2       2 ALA2        0.0000 
     26 N          60.9954   11.0252   76.5109 N.2       2 ALA2        0.0000 
     27 CA         60.3412   12.1299   75.7353 C.3       5 GLY6        0.0000 
     28 NZ         66.0946    9.8078   82.0801 N.2       3 LYS4        0.0000 
     29 CA         65.4404   10.9126   81.3046 C.3       5 GLY6        0.0000 
     30 O          64.7861   12.0174   80.5291 O.2       2 ALA2        0.0000 
     31 NZ         65.0027    8.8680   81.6624 N.2       3 LYS4        0.0000 
     32 CA         64.3484    9.9728   80.8869 C.3       5 GLY6        0.0000 
     33 CA         62.3858   13.2871   78.5604 C.3       5 GLY6        0.0000 
     34 NZ         63.9107    7.9282   81.2448 N.2       3 LYS4        0.0000 
     35 CA         63.2565    9.0330   80.4692 C.3       5 GLY6        0.0000 
     36 N          62.6023   10.1377   79.6937 N.2       2 ALA2        0.0000 
     37 CA         60.6396   13.4521   77.3672 C.3       5 GLY6        0.0000 
     38 CA         62.1646    8.0932   80.0516 C.3       5 GLY6        0.0000 
     39 N          61.0726    7.1533   79.6339 N.2       2 ALA2        0.0000 
     40 N          66.4306    7.5035   75.6127 N.2       2 ALA2        0.0000 
     41 CZ         67.1667   10.8702   76.8867 C.ar      4 PHE5        0.0000 
     42 DU         66.7290    8.8257   77.2445 H         6 CUB7        0.0000 
     43 CZ         66.0748    9.9304   76.4690 C.ar      4 PHE5        0.0000 
     44 CZ         64.1121   13.2448   74.1425 C.ar      4 PHE5        0.0000 
     45 DU         66.2913    6.7811   77.6024 H         6 CUB7        0.0000 
     46 DU         65.6371    7.8858   76.8269 H         6 CUB7        0.0000 
     47 N          64.9829    8.9906   76.0513 N.2       2 ALA2        0.0000 
     48 N          64.3286   10.0954   75.2758 N.2       2 ALA2        0.0000 
     49 N          63.6744   11.2002   74.5003 N.2       2 ALA2        0.0000 
     50 CA         63.0202   12.3050   73.7248 C.3       5 GLY6        0.0000 
     51 N          65.1994    5.8413   77.1847 N.2       2 ALA2        0.0000 
     52 DU         67.0274   10.1478   78.8764 H         6 CUB7        0.0000 
     53 CZ         66.3732   11.2526   78.1008 C.ar      4 PHE5        0.0000 
     54 DU         66.5897    8.1032   79.2342 H         6 CUB7        0.0000 
     55 DU         65.9355    9.2080   78.4587 H         6 CUB7        0.0000 
     56 CZ         65.2813   10.3128   77.6832 C.ar      4 PHE5        0.0000 
     57 CZ         64.6270   11.4176   76.9076 C.ar      4 PHE5        0.0000 
     58 CZ         63.9728   12.5224   76.1321 C.ar      4 PHE5        0.0000 
     59 CZ         63.3186   13.6272   75.3566 C.ar      4 PHE5        0.0000 
     60 CA         62.6644   14.7320   74.5811 C.3       5 GLY6        0.0000 
     61 CZ         66.1520    6.0586   79.5920 C.ar      4 PHE5        0.0000 
     62 DU         65.4978    7.1634   78.8165 H         6 CUB7        0.0000 
     63 N          64.8436    8.2682   78.0410 N.2       2 ALA2        0.0000 
     64 N          64.1893    9.3730   77.2655 N.2       2 ALA2        0.0000 
     65 N          63.5351   10.4778   76.4899 N.2       2 ALA2        0.0000 
     66 DU         62.8809   11.5826   75.7144 H         6 CUB7        0.0000 
     67 CA         62.2267   12.6874   74.9389 C.3       5 GLY6        0.0000 
     68 CA         61.5725   13.7922   74.1634 C.3       5 GLY6        0.0000 
     69 N          64.4059    6.2236   78.3988 N.2       2 ALA2        0.0000 
     70 CA         62.4432    9.5380   76.0723 C.3       5 GLY6        0.0000 
     71 CA         61.7890   10.6428   75.2967 C.3       5 GLY6        0.0000 
     72 CA         61.1347   11.7476   74.5212 C.3       5 GLY6        0.0000 
@<TRIPOS>BOND
@<TRIPOS>SUBSTRUCTURE
     1 SER1        5 GROUP   
     2 ALA2        1 GROUP   
     3 LYS4        6 GROUP   
     4 PHE5        4 GROUP   
     5 GLY6       22 GROUP   
     6 CUB7        9 GROUP   
@<TRIPOS>SET

