#    Name: 2w0w_LZS_1_INTS_M
#    Modification time : Tue Mar 25 03:29:52 2014

@<TRIPOS>MOLECULE
2w0w_LZS_1_INTS_M
   93     0     6     0     0
SMALL
NO_CHARGES


@<TRIPOS>ATOM
      1 CA         64.4765    2.8330   76.7870 C.3       2 GLC5        0.0000 
      2 CA         65.6370    3.1700   74.9200 C.3       6 GLL5        0.0000 
      3 CA         63.3160    2.4960   78.6540 C.3       4 GLP5        0.0000 
      4 CA         66.5200    2.7475   73.0805 C.3       2 GLC5        0.0000 
      5 CA         67.4030    2.3250   71.2410 C.3       4 GLP5        0.0000 
      6 CA         67.4765    3.2430   73.0545 C.3       2 GLC5        0.0000 
      7 CA         67.5500    4.1610   74.8680 C.3       6 GLL5        0.0000 
      8 CA         65.4100    3.0515   78.3430 C.3       2 GLC5        0.0000 
      9 CA         66.6100    3.6790   76.9730 C.3       6 GLL5        0.0000 
     10 CA         64.2100    2.4240   79.7130 C.3       4 GLP5        0.0000 
     11 CA         65.4815    6.4055   84.8135 C.3       2 GLC5        0.0000 
     12 CA         66.4390    4.8010   83.6170 C.3       6 GLL5        0.0000 
     13 CA         64.5240    8.0100   86.0100 C.3       4 GLP5        0.0000 
     14 N          68.6570    3.1735   86.4225 N.am      1 SEC2        0.0000 
     15 N          67.4300    3.6820   85.5270 N.am      5 SEL2        0.0000 
     16 N          69.8840    2.6650   87.3180 N.am      3 SEP2        0.0000 
     17 CA         66.3710    2.9860   87.2085 C.3       2 GLC5        0.0000 
     18 CA         67.1630    4.6870   86.5050 C.3       6 GLL5        0.0000 
     19 CA         65.5790    1.2850   87.9120 C.3       4 GLP5        0.0000 
     20 CA         68.9620    4.2480   86.7685 C.3       2 GLC5        0.0000 
     21 CA         70.7610    3.8090   87.0320 C.3       4 GLP5        0.0000 
     22 CA         67.8345    6.6695   86.7880 C.3       2 GLC5        0.0000 
     23 CA         68.5060    8.6520   87.0710 C.3       4 GLP5        0.0000 
     24 CA         66.0810    4.9305   87.8050 C.3       2 GLC5        0.0000 
     25 CA         64.9990    5.1740   89.1050 C.3       4 GLP5        0.0000 
     26 CA         65.8435    6.3485   86.2575 C.3       2 GLC5        0.0000 
     27 CA         69.4375    0.1250   85.5960 C.3       2 GLC5        0.0000 
     28 CA         68.9990    0.9900   83.7900 C.3       6 GLL5        0.0000 
     29 CA         69.8760   -0.7400   87.4020 C.3       4 GLP5        0.0000 
     30 CA         70.4925   -0.5135   85.4090 C.3       2 GLC5        0.0000 
     31 CA         71.1090   -0.2870   83.4160 C.3       6 GLL5        0.0000 
     32 CA         69.5390   -2.7390   82.4605 C.3       2 GLC5        0.0000 
     33 CA         69.9720   -1.0390   82.7270 C.3       6 GLL5        0.0000 
     34 CA         69.1060   -4.4390   82.1940 C.3       4 GLP5        0.0000 
     35 CA         67.3355    1.5005   81.6180 C.3       2 GLC5        0.0000 
     36 CA         68.2360    3.4630   81.9630 C.3       6 GLL5        0.0000 
     37 CA         66.4350   -0.4620   81.2730 C.3       4 GLP5        0.0000 
     38 CA         68.7605    1.9790   80.5110 C.3       2 GLC5        0.0000 
     39 CA         69.2850    0.4950   79.0590 C.3       4 GLP5        0.0000 
     40 N          64.8350    6.4180   82.7865 N.am      1 SEC2        0.0000 
     41 N          65.5050    5.8510   81.6970 N.am      5 SEL2        0.0000 
     42 N          64.1650    6.9850   83.8760 N.am      3 SEP2        0.0000 
     43 CA         63.9575    5.3000   81.3475 C.3       2 GLC5        0.0000 
     44 CA         65.4660    6.0690   80.3570 C.3       6 GLL5        0.0000 
     45 CA         62.4490    4.5310   82.3380 C.3       4 GLP5        0.0000 
     46 CA         63.1120    5.4375   79.1530 C.3       2 GLC5        0.0000 
     47 CA         64.3410    6.9760   78.3410 C.3       6 GLL5        0.0000 
     48 CA         61.8830    3.8990   79.9650 C.3       4 GLP5        0.0000 
     49 CA         65.3830   12.8455   76.1980 C.3       2 GLC5        0.0000 
     50 CA         63.7520   12.4560   76.4020 C.3       6 GLL5        0.0000 
     51 CA         67.0140   13.2350   75.9940 C.3       4 GLP5        0.0000 
     52 CA         61.2385   13.0575   78.3730 C.3       2 GLC5        0.0000 
     53 CA         62.2960   12.9290   76.3980 C.3       6 GLL5        0.0000 
     54 CA         60.1810   13.1860   80.3480 C.3       4 GLP5        0.0000 
     55 CA         60.2550   12.4830   74.1970 C.3       2 GLC5        0.0000 
     56 CA         61.3490   11.9570   75.7020 C.3       6 GLL5        0.0000 
     57 CA         59.1610   13.0090   72.6920 C.3       4 GLP5        0.0000 
     58 CA         60.2515   10.4920   74.9015 C.3       2 GLC5        0.0000 
     59 CA         59.1540    9.0270   74.1010 C.3       4 GLP5        0.0000 
     60 CA         59.5010   11.7770   76.0820 C.3       2 GLC5        0.0000 
     61 CA         57.6530   11.5970   76.4620 C.3       4 GLP5        0.0000 
     62 CA         60.6705   13.6575   74.2240 C.3       2 GLC5        0.0000 
     63 CA         62.1800   14.3060   75.7560 C.3       6 GLL5        0.0000 
     64 CA         62.6185   15.0905   74.0200 C.3       2 GLC5        0.0000 
     65 CA         63.0570   15.8750   72.2840 C.3       4 GLP5        0.0000 
     66 CA         64.3045   14.7740   75.2725 C.3       2 GLC5        0.0000 
     67 CA         66.4290   15.2420   74.7890 C.3       4 GLP5        0.0000 
     68 N          62.9795   12.0910   80.3415 N.am      1 SEC2        0.0000 
     69 N          63.8330   11.8830   79.1720 N.am      5 SEL2        0.0000 
     70 N          62.1260   12.2990   81.5110 N.am      3 SEP2        0.0000 
     71 CA         63.4995   10.5100   81.5140 C.3       2 GLC5        0.0000 
     72 CA         64.1140    9.2200   80.3710 C.3       6 GLL5        0.0000 
     73 CA         62.8850   11.8000   82.6570 C.3       4 GLP5        0.0000 
     74 CA         63.0710    6.1540   81.4965 C.3       2 GLC5        0.0000 
     75 CA         63.6930    7.7770   80.6550 C.3       6 GLL5        0.0000 
     76 CA         61.9395    8.0865   81.5800 C.3       2 GLC5        0.0000 
     77 CA         60.1860    8.3960   82.5050 C.3       4 GLP5        0.0000 
     78 CA         64.1690    4.0185   75.2147 C.3       2 GLC5        0.0000 
     79 CA         65.7810    5.2430   75.4520 C.3       6 GLL5        0.0000 
     80 CA         62.4750    4.1220   75.2290 C.3       4 GLP5        0.0000 
     81 CA         64.4363    4.7185   82.6330 C.3       2 GLC5        0.0000 
     82 CA         66.4080    5.0110   82.2390 C.3       6 GLL5        0.0000 
     83 CA         66.5122    1.9178   83.5330 C.3       2 GLC5        0.0000 
     84 CA         67.3740    3.9230   84.1710 C.3       6 GLL5        0.0000 
     85 CA         65.2050    0.2450   83.3100 C.3       4 GLP5        0.0000 
     86 CA         69.2903    3.6997   85.3940 C.3       2 GLC5        0.0000 
     87 CA         68.2650    3.2580   83.3410 C.3       6 GLL5        0.0000 
     88 CA         69.6303    0.1090   80.8953 C.3       2 GLC5        0.0000 
     89 CA         69.9790    0.4850   82.7360 C.3       6 GLL5        0.0000 
     90 CA         68.0827   -0.3064   82.1340 C.3       2 GLC5        0.0000 
     91 CA         62.6425    8.5237   75.4445 C.3       2 GLC5        0.0000 
     92 CA         64.1440    8.7300   76.5400 C.3       6 GLL5        0.0000 
     93 CA         61.2080    7.6520   74.5520 C.3       4 GLP5        0.0000 
@<TRIPOS>BOND
@<TRIPOS>SUBSTRUCTURE
     1 SEC2       14 GROUP        1 X    SEC  0     ROOT SEC X 2
     2 GLC5        1 GROUP        1 X    GLC  0     **** GLC X 6
     3 SEP2       16 GROUP        1 Y    SEP  0     ROOT SEP Y 9
     4 GLP5        3 GROUP        1 Y    GLP  0     **** GLP Y 13
     5 SEL2       15 GROUP        1 Z    SEL  0     ROOT SEL Z 16
     6 GLL5        2 GROUP        1 Z    GLL  0     **** GLL Z 20
@<TRIPOS>SET

