#    Name: 2w0w_LZS_1_ligand
#    Modification time : Tue Mar 25 03:29:52 2014

@<TRIPOS>MOLECULE
2w0w_LZS_1_ligand
   73    77     1     0     0
SMALL
NO_CHARGES


@<TRIPOS>ATOM
      1 F85        65.7810    5.2430   75.4520 F         1 LZS1454     0.0000 
      2 C83        66.3970    4.0770   75.5100 C.3       1 LZS1454     0.0000 
      3 F81        65.6370    3.1700   74.9200 F         1 LZS1454     0.0000 
      4 F83        67.5500    4.1610   74.8680 F         1 LZS1454     0.0000 
      5 C16        66.6100    3.6790   76.9730 C.3       1 LZS1454     0.0000 
      6 S12        68.0630    4.2070   77.6140 S.o2      1 LZS1454     0.0000 
      7 O18        68.2360    5.6180   77.4010 O.2       1 LZS1454     0.0000 
      8 O17        69.1350    3.4810   76.9870 O.2       1 LZS1454     0.0000 
      9 N8         68.1010    3.9410   79.1900 N.pl3     1 LZS1454     0.0000 
     10 C3         67.2490    4.5670   80.0330 C.ar      1 LZS1454     0.0000 
     11 C1         67.3040    4.3410   81.4090 C.ar      1 LZS1454     0.0000 
     12 C2         66.4080    5.0110   82.2390 C.ar      1 LZS1454     0.0000 
     13 C6         66.4390    4.8010   83.6170 C.ar      1 LZS1454     0.0000 
     14 C11        67.3740    3.9230   84.1710 C.ar      1 LZS1454     0.0000 
     15 O15        67.4300    3.6820   85.5270 O.3       1 LZS1454     0.0000 
     16 C22        67.1630    4.6870   86.5050 C.3       1 LZS1454     0.0000 
     17 C9         68.2650    3.2580   83.3410 C.ar      1 LZS1454     0.0000 
     18 O13        69.1770    2.4000   83.8940 O.3       1 LZS1454     0.0000 
     19 C19        68.9990    0.9900   83.7900 C.3       1 LZS1454     0.0000 
     20 C23        69.9790    0.4850   82.7360 C.3       1 LZS1454     0.0000 
     21 C27        71.1090   -0.2870   83.4160 C.3       1 LZS1454     0.0000 
     22 C26        69.9720   -1.0390   82.7270 C.3       1 LZS1454     0.0000 
     23 C4         68.2360    3.4630   81.9630 C.ar      1 LZS1454     0.0000 
     24 N5         65.5050    5.8510   81.6970 N.ar      1 LZS1454     0.0000 
     25 C10        65.4660    6.0690   80.3570 C.ar      1 LZS1454     0.0000 
     26 N7         66.3290    5.4250   79.5450 N.ar      1 LZS1454     0.0000 
     27 N14        64.5210    6.9380   79.7920 N.3       1 LZS1454     0.0000 
     28 C20        64.3410    6.9760   78.3410 C.3       1 LZS1454     0.0000 
     29 C24        64.1840    8.4160   77.8870 C.2       1 LZS1454     0.0000 
     30 C29        64.1440    8.7300   76.5400 C.2       1 LZS1454     0.0000 
     31 C31        64.0100   10.0610   76.1340 C.2       1 LZS1454     0.0000 
     32 N32        63.9010   11.1120   76.9770 N.am      1 LZS1454     0.0000 
     33 C34        63.7520   12.4560   76.4020 C.3       1 LZS1454     0.0000 
     34 C35        62.2960   12.9290   76.3980 C.3       1 LZS1454     0.0000 
     35 C37        61.3490   11.9570   75.7020 C.3       1 LZS1454     0.0000 
     36 C36        62.1800   14.3060   75.7560 C.3       1 LZS1454     0.0000 
     37 C30        63.9290   10.9160   78.3790 C.2       1 LZS1454     0.0000 
     38 O33        63.8330   11.8830   79.1720 O.2       1 LZS1454     0.0000 
     39 C28        64.0710    9.5230   78.8850 C.2       1 LZS1454     0.0000 
     40 C25        64.1140    9.2200   80.3710 C.3       1 LZS1454     0.0000 
     41 C21        63.6930    7.7770   80.6550 C.3       1 LZS1454     0.0000 
     42 H          66.6150    2.5976   77.0893 H         1 LZS1454     0.0000 
     43 H          65.8379    4.1020   77.6117 H         1 LZS1454     0.0000 
     44 H          68.8165    3.2709   79.4605 H         1 LZS1454     0.0000 
     45 H          65.7740    5.2919   84.2269 H         1 LZS1454     0.0000 
     46 H          67.9946    0.7277   83.4677 H         1 LZS1454     0.0000 
     47 H          69.2190    0.4804   84.7246 H         1 LZS1454     0.0000 
     48 H          70.2299    0.8128   81.9655 H         1 LZS1454     0.0000 
     49 H          70.9319   -0.2914   84.3440 H         1 LZS1454     0.0000 
     50 H          71.8479   -0.2866   82.8272 H         1 LZS1454     0.0000 
     51 H          70.2885   -1.3226   81.8822 H         1 LZS1454     0.0000 
     52 H          69.3725   -1.3273   83.3991 H         1 LZS1454     0.0000 
     53 H          68.8996    2.9687   81.3553 H         1 LZS1454     0.0000 
     54 H          63.4494    6.4191   78.0460 H         1 LZS1454     0.0000 
     55 H          65.2041    6.5428   77.8315 H         1 LZS1454     0.0000 
     56 H          64.2125    7.9874   75.8311 H         1 LZS1454     0.0000 
     57 H          63.9947   10.2401   75.0838 H         1 LZS1454     0.0000 
     58 H          64.1206   12.4753   75.3641 H         1 LZS1454     0.0000 
     59 H          64.3477   13.1877   76.9706 H         1 LZS1454     0.0000 
     60 H          61.9692   13.0286   77.4421 H         1 LZS1454     0.0000 
     61 H          63.4415    9.8972   80.9006 H         1 LZS1454     0.0000 
     62 H          65.1276    9.3747   80.7453 H         1 LZS1454     0.0000 
     63 H          63.8717    7.5662   81.6957 H         1 LZS1454     0.0000 
     64 H          62.6478    7.6720   80.4186 H         1 LZS1454     0.0000 
     65 H          67.2478    4.3313   87.4358 H         1 LZS1454     0.0000 
     66 H          67.7949    5.4581   86.4272 H         1 LZS1454     0.0000 
     67 H          66.2379    5.0559   86.4154 H         1 LZS1454     0.0000 
     68 H          61.5983   11.8176   74.7437 H         1 LZS1454     0.0000 
     69 H          61.3523   11.0578   76.1395 H         1 LZS1454     0.0000 
     70 H          60.4046   12.2855   75.7144 H         1 LZS1454     0.0000 
     71 H          62.7193   14.9908   76.2460 H         1 LZS1454     0.0000 
     72 H          62.5013   14.3025   74.8090 H         1 LZS1454     0.0000 
     73 H          61.2345   14.6315   75.7435 H         1 LZS1454     0.0000 
@<TRIPOS>BOND
     1    2    1 1    
     2    3    2 1    
     3    4    2 1    
     4    5    2 1    
     5    6    5 1    
     6   42    5 1    
     7   43    5 1    
     8    7    6 2    
     9    8    6 2    
    10    9    6 1    
    11   10    9 1    
    12   44    9 1    
    13   11   10 ar   
    14   26   10 ar   
    15   12   11 ar   
    16   23   11 ar   
    17   13   12 ar   
    18   24   12 ar   
    19   14   13 ar   
    20   45   13 1    
    21   15   14 1    
    22   17   14 ar   
    23   16   15 1    
    24   65   16 1    
    25   66   16 1    
    26   67   16 1    
    27   18   17 1    
    28   23   17 ar   
    29   19   18 1    
    30   20   19 1    
    31   46   19 1    
    32   47   19 1    
    33   21   20 1    
    34   22   20 1    
    35   48   20 1    
    36   22   21 1    
    37   49   21 1    
    38   50   21 1    
    39   51   22 1    
    40   52   22 1    
    41   53   23 1    
    42   25   24 ar   
    43   26   25 ar   
    44   27   25 1    
    45   28   27 1    
    46   41   27 1    
    47   29   28 1    
    48   54   28 1    
    49   55   28 1    
    50   30   29 1    
    51   39   29 2    
    52   31   30 2    
    53   56   30 1    
    54   32   31 1    
    55   57   31 1    
    56   33   32 1    
    57   37   32 am   
    58   34   33 1    
    59   58   33 1    
    60   59   33 1    
    61   35   34 1    
    62   36   34 1    
    63   60   34 1    
    64   68   35 1    
    65   69   35 1    
    66   70   35 1    
    67   71   36 1    
    68   72   36 1    
    69   73   36 1    
    70   38   37 2    
    71   39   37 1    
    72   40   39 1    
    73   41   40 1    
    74   61   40 1    
    75   62   40 1    
    76   63   41 1    
    77   64   41 1    
@<TRIPOS>SUBSTRUCTURE
     1 LZS1454     1 GROUP   
@<TRIPOS>SET

