#    Name: 1ojt_FAD_1_INTS_M
#    Modification time : Mon Mar 24 20:14:27 2014

@<TRIPOS>MOLECULE
1ojt_FAD_1_INTS_M
  136     0     9     0     0
SMALL
NO_CHARGES


@<TRIPOS>ATOM
      1 N         114.5505   80.8060   30.3250 N.am      2 SEC2        0.0000 
      2 N         113.4880   80.1420   29.7390 N.am      8 SEL2        0.0000 
      3 N         115.6130   81.4700   30.9110 N.am      5 SEP2        0.0000 
      4 CA        114.7165   74.8090   28.2525 C.3       3 GLC5        0.0000 
      5 CA        115.1680   76.5860   29.3770 C.3       9 GLL5        0.0000 
      6 CA        114.2650   73.0320   27.1280 C.3       6 GLP5        0.0000 
      7 CA        113.8260   76.4405   27.7295 C.3       3 GLC5        0.0000 
      8 CA        112.4840   76.2950   26.0820 C.3       6 GLP5        0.0000 
      9 CA        116.1500   74.4370   30.9345 C.3       3 GLC5        0.0000 
     10 CA        116.4500   76.2510   30.2690 C.3       9 GLL5        0.0000 
     11 CA        115.8500   72.6230   31.6000 C.3       6 GLP5        0.0000 
     12 N         116.4605   74.5790   31.8490 N.am      2 SEC2        0.0000 
     13 N         116.9180   74.9210   30.2210 N.am      8 SEL2        0.0000 
     14 N         116.0030   74.2370   33.4770 N.am      5 SEP2        0.0000 
     15 N         117.6290   75.4975   31.5305 N.am      2 SEC2        0.0000 
     16 N         118.3400   76.0740   32.8400 N.am      5 SEP2        0.0000 
     17 CA        118.4730   79.1110   30.2035 C.3       3 GLC5        0.0000 
     18 CA        117.5710   77.2470   29.8750 C.3       9 GLL5        0.0000 
     19 CA        119.3750   80.9750   30.5320 C.3       6 GLP5        0.0000 
     20 N         118.1625   76.8990   32.0185 N.am      2 SEC2        0.0000 
     21 N         117.9850   77.7240   31.1970 N.am      8 SEL2        0.0000 
     22 N         118.1810   79.0390   30.4965 N.am      2 SEC2        0.0000 
     23 N         118.3770   80.3540   29.7960 N.am      5 SEP2        0.0000 
     24 CA        120.3730   77.6875   29.1730 C.3       3 GLC5        0.0000 
     25 CA        118.6180   76.4240   29.2520 C.3       9 GLL5        0.0000 
     26 CA        122.1280   78.9510   29.0940 C.3       6 GLP5        0.0000 
     27 N         119.1435   76.3420   31.3700 N.am      2 SEC2        0.0000 
     28 N         119.9470   76.6100   29.9000 N.am      8 SEL2        0.0000 
     29 N         120.5605   76.2315   28.5800 N.am      2 SEC2        0.0000 
     30 N         121.1740   75.8530   27.2600 N.am      5 SEP2        0.0000 
     31 O         120.0960   76.0740   30.8715 O.2       1 ALC1        0.0000 
     32 O         119.9470   76.6100   29.9000 O.2       7 ALL1        0.0000 
     33 O         120.2450   75.5380   31.8430 O.2       4 ALP1        0.0000 
     34 CA        117.0650   73.8045   30.7065 C.3       3 GLC5        0.0000 
     35 CA        118.2800   74.9860   29.8130 C.3       9 GLL5        0.0000 
     36 CA        116.9865   72.1795   26.7770 C.3       3 GLC5        0.0000 
     37 CA        119.0850   72.3610   27.4450 C.3       9 GLL5        0.0000 
     38 CA        114.8880   71.9980   26.1090 C.3       6 GLP5        0.0000 
     39 CA        121.7740   70.4840   27.8120 C.3       3 GLC5        0.0000 
     40 CA        119.7450   71.1030   27.3180 C.3       9 GLL5        0.0000 
     41 CA        123.8030   69.8650   28.3060 C.3       6 GLP5        0.0000 
     42 O         120.1330   68.9230   26.1710 O.2       1 ALC1        0.0000 
     43 O         119.8100   70.4490   26.1860 O.2       7 ALL1        0.0000 
     44 O         120.4560   67.3970   26.1560 O.2       4 ALP1        0.0000 
     45 N         121.1360   69.3945   28.3480 N.am      2 SEC2        0.0000 
     46 N         120.3570   70.5490   28.3870 N.am      8 SEL2        0.0000 
     47 N         121.9150   68.2400   28.3090 N.am      5 SEP2        0.0000 
     48 CA        119.0685   69.8720   29.4340 C.3       3 GLC5        0.0000 
     49 CA        120.2940   71.2130   29.5320 C.3       9 GLL5        0.0000 
     50 CA        117.8430   68.5310   29.3360 C.3       6 GLP5        0.0000 
     51 CA        120.4670   69.7445   30.6985 C.3       3 GLC5        0.0000 
     52 CA        120.6400   68.2760   31.8650 C.3       6 GLP5        0.0000 
     53 CA        120.3530   71.9800   31.4190 C.3       3 GLC5        0.0000 
     54 CA        120.4120   72.7470   33.3060 C.3       6 GLP5        0.0000 
     55 CA        121.7865   72.4805   29.5470 C.3       3 GLC5        0.0000 
     56 CA        123.2790   73.7480   29.5620 C.3       6 GLP5        0.0000 
     57 CA        122.0485   70.5390   28.9190 C.3       3 GLC5        0.0000 
     58 N         120.8695   72.8865   30.7195 N.am      2 SEC2        0.0000 
     59 N         119.6910   72.4150   29.8390 N.am      8 SEL2        0.0000 
     60 N         122.0480   73.3580   31.6000 N.am      5 SEP2        0.0000 
     61 CA        117.4840   72.7635   30.1430 C.3       3 GLC5        0.0000 
     62 CA        119.1180   72.9040   28.6860 C.3       9 GLL5        0.0000 
     63 N         106.9445   84.3690   30.0820 N.am      2 SEC2        0.0000 
     64 N         107.5050   85.8760   29.6130 N.am      8 SEL2        0.0000 
     65 N         106.3840   82.8620   30.5510 N.am      5 SEP2        0.0000 
     66 N         108.3365   90.7175   30.9625 N.am      2 SEC2        0.0000 
     67 N         107.6310   89.4980   31.3120 N.am      8 SEL2        0.0000 
     68 N         109.0420   91.9370   30.6130 N.am      5 SEP2        0.0000 
     69 CA        115.1140   89.9525   25.6905 C.3       3 GLC5        0.0000 
     70 CA        113.9180   89.5520   27.0680 C.3       9 GLL5        0.0000 
     71 CA        116.3100   90.3530   24.3130 C.3       6 GLP5        0.0000 
     72 CA        115.4890   90.2840   27.8840 C.3       3 GLC5        0.0000 
     73 CA        117.0600   91.0160   28.7000 C.3       6 GLP5        0.0000 
     74 CA        113.1800   90.3510   25.5710 C.3       3 GLC5        0.0000 
     75 CA        112.4420   91.1500   24.0740 C.3       6 GLP5        0.0000 
     76 CA        112.9360   85.7105   24.2995 C.3       3 GLC5        0.0000 
     77 CA        113.6670   86.6220   25.8470 C.3       9 GLL5        0.0000 
     78 CA        112.2050   84.7990   22.7520 C.3       6 GLP5        0.0000 
     79 CA        110.1595   86.5160   30.1570 C.3       3 GLC5        0.0000 
     80 CA        110.5520   86.9180   28.0850 C.3       9 GLL5        0.0000 
     81 CA        109.7670   86.1140   32.2290 C.3       6 GLP5        0.0000 
     82 CA        107.2080   83.9535   28.1885 C.3       3 GLC5        0.0000 
     83 CA        109.1840   84.8300   28.0230 C.3       9 GLL5        0.0000 
     84 CA        105.2320   83.0770   28.3540 C.3       6 GLP5        0.0000 
     85 CA        107.3010   82.7890   28.7160 C.3       3 GLC5        0.0000 
     86 CA        109.3700   82.5010   29.0780 C.3       9 GLL5        0.0000 
     87 O         108.4005   80.9240   27.5195 O.2       1 ALC1        0.0000 
     88 O         108.4470   82.1390   28.1070 O.2       7 ALL1        0.0000 
     89 O         108.3540   79.7090   26.9320 O.2       4 ALP1        0.0000 
     90 CA        110.3930   80.8945   31.3045 C.3       3 GLC5        0.0000 
     91 CA        110.2510   81.2600   29.2760 C.3       9 GLL5        0.0000 
     92 CA        110.5350   80.5290   33.3330 C.3       6 GLP5        0.0000 
     93 N         112.3705   82.4675   30.8550 N.am      2 SEC2        0.0000 
     94 N         111.1340   81.5260   30.3600 N.am      8 SEL2        0.0000 
     95 N         113.6070   83.4090   31.3500 N.am      5 SEP2        0.0000 
     96 CA        110.4215   79.7840   31.2480 C.3       3 GLC5        0.0000 
     97 CA        109.3780   80.1530   29.6790 C.3       9 GLL5        0.0000 
     98 CA        111.4650   79.4150   32.8170 C.3       6 GLP5        0.0000 
     99 CA        107.9600   78.9620   30.4705 C.3       3 GLC5        0.0000 
    100 CA        106.5420   77.7710   31.2620 C.3       6 GLP5        0.0000 
    101 N         109.8825   76.8860   32.0655 N.am      2 SEC2        0.0000 
    102 N         110.4010   77.0450   30.7550 N.am      8 SEL2        0.0000 
    103 N         109.3640   76.7270   33.3760 N.am      5 SEP2        0.0000 
    104 N         108.8315   76.9705   27.6305 N.am      2 SEC2        0.0000 
    105 N         109.8100   77.0210   28.8110 N.am      8 SEL2        0.0000 
    106 N         107.8530   76.9200   26.4500 N.am      5 SEP2        0.0000 
    107 CA        114.6715   76.9472   31.5835 C.3       3 GLC5        0.0000 
    108 CA        113.5340   77.4760   33.3440 C.3       6 GLP5        0.0000 
    109 CA        116.4818   78.3430   31.3995 C.3       3 GLC5        0.0000 
    110 CA        115.9530   79.9370   32.7270 C.3       6 GLP5        0.0000 
    111 CA        120.4840   75.3700   29.3447 C.3       3 GLC5        0.0000 
    112 CA        122.5190   75.0350   29.1570 C.3       6 GLP5        0.0000 
    113 CA        118.6290   70.1315   28.3588 C.3       3 GLC5        0.0000 
    114 CA        120.6943   73.7893   27.8523 C.3       3 GLC5        0.0000 
    115 CA        122.2870   74.9460   27.6390 C.3       6 GLP5        0.0000 
    116 CA        111.2035   88.6445   30.3555 C.3       3 GLC5        0.0000 
    117 CA        111.8340   89.0210   28.2270 C.3       9 GLL5        0.0000 
    118 CA        111.1400   88.6870   32.3050 C.3       6 GLP5        0.0000 
    119 CA        110.6625   88.9750   26.7575 C.3       3 GLC5        0.0000 
    120 CA        110.7000   88.1830   28.5850 C.3       9 GLL5        0.0000 
    121 CA        110.0580   89.3480   25.1090 C.3       6 GLP5        0.0000 
    122 CA        113.7905   88.5480   28.6960 C.3       3 GLC5        0.0000 
    123 CA        112.7940   88.5360   27.3560 C.3       9 GLL5        0.0000 
    124 CA        114.2250   88.0520   30.1800 C.3       6 GLP5        0.0000 
    125 CA        111.3973   88.6202   26.0998 C.3       3 GLC5        0.0000 
    126 CA        113.6135   85.3459   27.4415 C.3       3 GLC5        0.0000 
    127 CA        112.6790   87.2490   26.8250 C.3       9 GLL5        0.0000 
    128 CA        114.8420   83.9880   28.1270 C.3       6 GLP5        0.0000 
    129 CA        110.5662   88.0215   26.3697 C.3       3 GLC5        0.0000 
    130 CA        111.5970   86.4720   27.1760 C.3       9 GLL5        0.0000 
    131 CA        109.7290   85.2050   30.2762 C.3       3 GLC5        0.0000 
    132 CA        110.7338   82.9124   30.7963 C.3       3 GLC5        0.0000 
    133 CA        111.4500   83.6290   32.5290 C.3       6 GLP5        0.0000 
    134 CA        108.1501   81.5854   30.6015 C.3       3 GLC5        0.0000 
    135 CA        106.7060   82.1540   31.7750 C.3       6 GLP5        0.0000 
    136 CA        112.8744   87.6811   28.9015 C.3       3 GLC5        0.0000 
@<TRIPOS>BOND
@<TRIPOS>SUBSTRUCTURE
     1 ALC1       31 GROUP        1 X    ALC  0     ROOT ALC X 1
     2 SEC2        1 GROUP        1 X    SEC  0     **** SEC X 2
     3 GLC5        4 GROUP        1 X    GLC  0     **** GLC X 6
     4 ALP1       33 GROUP        1 Y    ALP  0     ROOT ALP Y 8
     5 SEP2        3 GROUP        1 Y    SEP  0     **** SEP Y 9
     6 GLP5        6 GROUP        1 Y    GLP  0     **** GLP Y 13
     7 ALL1       32 GROUP        1 Z    ALL  0     ROOT ALL Z 15
     8 SEL2        2 GROUP        1 Z    SEL  0     **** SEL Z 16
     9 GLL5        5 GROUP        1 Z    GLL  0     **** GLL Z 20
@<TRIPOS>SET

