#    Name: 1ojt_FAD_1_ligand
#    Modification time : Mon Mar 24 20:14:27 2014

@<TRIPOS>MOLECULE
1ojt_FAD_1_ligand
   84    89     1     0     0
SMALL
NO_CHARGES


@<TRIPOS>ATOM
      1 PA        113.4540   78.6630   29.4340 P.3       1 FAD600      0.0000 
      2 O1A       113.4880   80.1420   29.7390 O.co2     1 FAD600      0.0000 
      3 O2A       113.7850   78.9480   28.0960 O.co2     1 FAD600      0.0000 
      4 O5B       114.6210   77.7440   30.0710 O.3       1 FAD600      0.0000 
      5 C5B       115.1680   76.5860   29.3770 C.3       1 FAD600      0.0000 
      6 C4B       116.4500   76.2510   30.2690 C.3       1 FAD600      0.0000 
      7 O4B       116.9180   74.9210   30.2210 O.3       1 FAD600      0.0000 
      8 C3B       117.5710   77.2470   29.8750 C.3       1 FAD600      0.0000 
      9 O3B       117.9850   77.7240   31.1970 O.3       1 FAD600      0.0000 
     10 C2B       118.6180   76.4240   29.2520 C.3       1 FAD600      0.0000 
     11 O2B       119.9470   76.6100   29.9000 O.3       1 FAD600      0.0000 
     12 C1B       118.2800   74.9860   29.8130 C.3       1 FAD600      0.0000 
     13 N9A       118.4430   74.0940   28.6050 N.pl3     1 FAD600      0.0000 
     14 C8A       118.0110   74.2420   27.3230 C.2       1 FAD600      0.0000 
     15 N7A       118.3740   73.2070   26.5720 N.2       1 FAD600      0.0000 
     16 C5A       119.0850   72.3610   27.4450 C.ar      1 FAD600      0.0000 
     17 C6A       119.7450   71.1030   27.3180 C.ar      1 FAD600      0.0000 
     18 N6A       119.8100   70.4490   26.1860 N.pl3     1 FAD600      0.0000 
     19 N1A       120.3570   70.5490   28.3870 N.ar      1 FAD600      0.0000 
     20 C2A       120.2940   71.2130   29.5320 C.ar      1 FAD600      0.0000 
     21 N3A       119.6910   72.4150   29.8390 N.ar      1 FAD600      0.0000 
     22 C4A       119.1180   72.9040   28.6860 C.ar      1 FAD600      0.0000 
     23 N1        107.5050   85.8760   29.6130 N.2       1 FAD600      0.0000 
     24 C2        106.5880   86.3550   30.4830 C.2       1 FAD600      0.0000 
     25 O2        105.6250   85.6220   30.7800 O.2       1 FAD600      0.0000 
     26 N3        106.6160   87.5690   31.0730 N.am      1 FAD600      0.0000 
     27 C4        107.6700   88.3760   30.7370 C.2       1 FAD600      0.0000 
     28 O4        107.6310   89.4980   31.3120 O.2       1 FAD600      0.0000 
     29 C4X       108.6890   87.9510   29.8300 C.2       1 FAD600      0.0000 
     30 N5        109.7920   88.7190   29.4520 N.2       1 FAD600      0.0000 
     31 C5X       110.7000   88.1830   28.5850 C.ar      1 FAD600      0.0000 
     32 C6        111.8340   89.0210   28.2270 C.ar      1 FAD600      0.0000 
     33 C7        112.7940   88.5360   27.3560 C.ar      1 FAD600      0.0000 
     34 C7M       113.9180   89.5520   27.0680 C.3       1 FAD600      0.0000 
     35 C8        112.6790   87.2490   26.8250 C.ar      1 FAD600      0.0000 
     36 C8M       113.6670   86.6220   25.8470 C.3       1 FAD600      0.0000 
     37 C9        111.5970   86.4720   27.1760 C.ar      1 FAD600      0.0000 
     38 C9A       110.5520   86.9180   28.0850 C.ar      1 FAD600      0.0000 
     39 N10       109.3710   86.1690   28.2770 N.pl3     1 FAD600      0.0000 
     40 C10       108.3440   86.8300   29.0520 C.2       1 FAD600      0.0000 
     41 C1'       109.1840   84.8300   28.0230 C.3       1 FAD600      0.0000 
     42 C2'       110.1980   83.7620   28.6240 C.3       1 FAD600      0.0000 
     43 O2'       110.7510   84.2740   29.8320 O.3       1 FAD600      0.0000 
     44 C3'       109.3700   82.5010   29.0780 C.3       1 FAD600      0.0000 
     45 O3'       108.4470   82.1390   28.1070 O.3       1 FAD600      0.0000 
     46 C4'       110.2510   81.2600   29.2760 C.3       1 FAD600      0.0000 
     47 O4'       111.1340   81.5260   30.3600 O.3       1 FAD600      0.0000 
     48 C5'       109.3780   80.1530   29.6790 C.3       1 FAD600      0.0000 
     49 O5'       110.0740   79.1220   30.4890 O.3       1 FAD600      0.0000 
     50 P         110.6580   77.8980   29.6400 P.3       1 FAD600      0.0000 
     51 O1P       110.4010   77.0450   30.7550 O.co2     1 FAD600      0.0000 
     52 O2P       109.8100   77.0210   28.8110 O.co2     1 FAD600      0.0000 
     53 O3P       112.1480   77.7540   29.1780 O.3       1 FAD600      0.0000 
     54 H         115.5171   76.8169   28.4095 H         1 FAD600      0.0000 
     55 H         114.5330   75.7457   29.4214 H         1 FAD600      0.0000 
     56 H         116.1610   76.5428   31.3042 H         1 FAD600      0.0000 
     57 H         117.1803   77.9684   29.2829 H         1 FAD600      0.0000 
     58 H         118.6336   76.3847   28.2655 H         1 FAD600      0.0000 
     59 H         118.9758   74.7411   30.5351 H         1 FAD600      0.0000 
     60 H         117.4971   75.0216   27.0095 H         1 FAD600      0.0000 
     61 H         119.8405   69.4519   26.2550 H         1 FAD600      0.0000 
     62 H         119.8233   71.0065   25.3559 H         1 FAD600      0.0000 
     63 H         120.8065   70.7379   30.4005 H         1 FAD600      0.0000 
     64 H         105.9054   87.8732   31.7256 H         1 FAD600      0.0000 
     65 H         111.8922   89.9517   28.6307 H         1 FAD600      0.0000 
     66 H         111.4926   85.5083   26.7865 H         1 FAD600      0.0000 
     67 H         109.1609   84.5971   26.9053 H         1 FAD600      0.0000 
     68 H         108.1566   84.4616   28.3589 H         1 FAD600      0.0000 
     69 H         110.8830   83.4839   27.9149 H         1 FAD600      0.0000 
     70 H         108.9027   82.7283   30.0177 H         1 FAD600      0.0000 
     71 H         110.7521   81.0476   28.3826 H         1 FAD600      0.0000 
     72 H         108.9423   79.6717   28.7776 H         1 FAD600      0.0000 
     73 H         108.5158   80.5470   30.2582 H         1 FAD600      0.0000 
     74 H         114.4007   89.8183   27.9023 H         1 FAD600      0.0000 
     75 H         114.6017   89.1812   26.4395 H         1 FAD600      0.0000 
     76 H         113.5636   90.3905   26.6541 H         1 FAD600      0.0000 
     77 H         114.5875   86.5660   26.2337 H         1 FAD600      0.0000 
     78 H         113.3989   85.6928   25.5927 H         1 FAD600      0.0000 
     79 H         113.7365   87.1492   25.0001 H         1 FAD600      0.0000 
     80 H         118.9847   77.7156   31.1737 H         1 FAD600      0.0000 
     81 H         120.1082   75.7633   30.4072 H         1 FAD600      0.0000 
     82 H         111.0283   83.4663   30.3523 H         1 FAD600      0.0000 
     83 H         108.6468   81.1802   27.9048 H         1 FAD600      0.0000 
     84 H         111.9696   81.0215   30.1427 H         1 FAD600      0.0000 
@<TRIPOS>BOND
     1    2    1 ar   
     2    3    1 ar   
     3    4    1 1    
     4   53    1 1    
     5    5    4 1    
     6    6    5 1    
     7   54    5 1    
     8   55    5 1    
     9    7    6 1    
    10    8    6 1    
    11   56    6 1    
    12   12    7 1    
    13    9    8 1    
    14   10    8 1    
    15   57    8 1    
    16   80    9 1    
    17   11   10 1    
    18   12   10 1    
    19   58   10 1    
    20   81   11 1    
    21   13   12 1    
    22   59   12 1    
    23   14   13 1    
    24   22   13 1    
    25   15   14 2    
    26   60   14 1    
    27   16   15 1    
    28   17   16 ar   
    29   22   16 ar   
    30   18   17 1    
    31   19   17 ar   
    32   61   18 1    
    33   62   18 1    
    34   20   19 ar   
    35   21   20 ar   
    36   63   20 1    
    37   22   21 ar   
    38   24   23 1    
    39   40   23 2    
    40   25   24 2    
    41   26   24 am   
    42   27   26 am   
    43   64   26 1    
    44   28   27 2    
    45   29   27 1    
    46   30   29 2    
    47   40   29 1    
    48   31   30 1    
    49   32   31 ar   
    50   38   31 ar   
    51   33   32 ar   
    52   65   32 1    
    53   34   33 1    
    54   35   33 ar   
    55   74   34 1    
    56   75   34 1    
    57   76   34 1    
    58   36   35 1    
    59   37   35 ar   
    60   77   36 1    
    61   78   36 1    
    62   79   36 1    
    63   38   37 ar   
    64   66   37 1    
    65   39   38 1    
    66   40   39 1    
    67   41   39 1    
    68   42   41 1    
    69   67   41 1    
    70   68   41 1    
    71   43   42 1    
    72   44   42 1    
    73   69   42 1    
    74   82   43 1    
    75   45   44 1    
    76   46   44 1    
    77   70   44 1    
    78   83   45 1    
    79   47   46 1    
    80   48   46 1    
    81   71   46 1    
    82   84   47 1    
    83   49   48 1    
    84   72   48 1    
    85   73   48 1    
    86   50   49 1    
    87   51   50 ar   
    88   52   50 ar   
    89   53   50 1    
@<TRIPOS>SUBSTRUCTURE
     1 FAD600      1 GROUP   
@<TRIPOS>SET

