#    Name: 2DVO_1_CAVITY_N1_6.mol2
#    Modification time : Tue Mar 11 09:23:00 2014

@<TRIPOS>MOLECULE
2DVO_1_CAVITY_N1_6.mol2
  100     0     7     0     0
SMALL
NO_CHARGES


@<TRIPOS>ATOM
      1 CZ         48.8271   69.1457   30.2531 C.ar      5 PHE5        0.0000 
      2 CZ         48.4677   67.6967   30.1068 C.ar      5 PHE5        0.0000 
      3 CZ         47.5400   67.8084   31.2802 C.ar      5 PHE5        0.0000 
      4 DU         48.1082   66.2478   29.9604 H         7 CUB7        0.0000 
      5 OG         47.1805   66.3594   31.1339 O.2       1 SER1        0.0000 
      6 O          50.8774   68.6623   30.0025 O.2       2 ALA2        0.0000 
      7 O          49.9497   68.7739   31.1759 O.2       2 ALA2        0.0000 
      8 CZ         49.0221   68.8855   32.3494 C.ar      5 PHE5        0.0000 
      9 CZ         48.0944   68.9971   33.5229 C.ar      5 PHE5        0.0000 
     10 DU         50.5179   67.2134   29.8561 H         7 CUB7        0.0000 
     11 O          49.5903   67.3250   31.0296 O.2       2 ALA2        0.0000 
     12 CZ         48.6626   67.4366   32.2030 C.ar      5 PHE5        0.0000 
     13 CA         47.7350   67.5482   33.3765 C.3       6 GLY6        0.0000 
     14 O          50.1584   65.7645   29.7098 O.2       2 ALA2        0.0000 
     15 O          49.2308   65.8761   30.8832 O.2       2 ALA2        0.0000 
     16 OG         48.3031   65.9877   32.0567 O.2       1 SER1        0.0000 
     17 O          48.8713   64.4272   30.7368 O.2       2 ALA2        0.0000 
     18 OG         47.9437   64.5388   31.9103 O.2       1 SER1        0.0000 
     19 OG         47.5842   63.0899   31.7639 O.2       1 SER1        0.0000 
     20 OG         45.3694   61.8642   33.9645 O.2       1 SER1        0.0000 
     21 CA         44.4418   61.9758   35.1379 C.3       6 GLY6        0.0000 
     22 NZ         44.0823   60.5269   34.9916 N.2       4 LYS4        0.0000 
     23 CA         49.5765   70.0743   34.5920 C.3       6 GLY6        0.0000 
     24 CZ         51.0723   68.4022   32.0988 C.ar      5 PHE5        0.0000 
     25 CA         50.1447   68.5138   33.2722 C.3       6 GLY6        0.0000 
     26 CA         49.2170   68.6254   34.4457 C.3       6 GLY6        0.0000 
     27 N          48.2894   68.7370   35.6191 N.2       2 ALA2        0.0000 
     28 CZ         51.6405   66.8417   30.7789 C.ar      5 PHE5        0.0000 
     29 O          50.7129   66.9533   31.9524 O.2       2 ALA2        0.0000 
     30 O          49.7852   67.0649   33.1258 O.2       2 ALA2        0.0000 
     31 CA         48.8576   67.1765   34.2993 C.3       6 GLY6        0.0000 
     32 CA         47.9299   67.2881   35.4728 C.3       6 GLY6        0.0000 
     33 O          49.4257   65.6160   32.9795 O.2       2 ALA2        0.0000 
     34 OG         48.4981   65.7276   34.1529 O.2       1 SER1        0.0000 
     35 O          49.0663   64.1670   32.8331 O.2       2 ALA2        0.0000 
     36 OG         48.1386   64.2787   34.0066 O.2       1 SER1        0.0000 
     37 CA         49.6344   62.6065   31.5133 C.3       6 GLY6        0.0000 
     38 O          48.7068   62.7181   32.6867 O.2       2 ALA2        0.0000 
     39 OG         47.7791   62.8297   33.8602 O.2       1 SER1        0.0000 
     40 CA         46.8515   62.9413   35.0337 C.3       6 GLY6        0.0000 
     41 CA         45.9238   63.0530   36.2071 C.3       6 GLY6        0.0000 
     42 CA         44.9962   63.1646   37.3806 C.3       6 GLY6        0.0000 
     43 OG         48.3473   61.2692   32.5404 O.2       1 SER1        0.0000 
     44 DU         47.4197   61.3808   33.7138 H         7 CUB7        0.0000 
     45 NZ         46.4920   61.4924   34.8873 N.2       4 LYS4        0.0000 
     46 NZ         45.5644   61.6040   36.0608 N.2       4 LYS4        0.0000 
     47 NZ         44.6367   61.7156   37.2342 N.2       4 LYS4        0.0000 
     48 NZ         46.1325   60.0435   34.7409 N.2       4 LYS4        0.0000 
     49 CZ         50.6991   69.7026   35.5148 C.ar      5 PHE5        0.0000 
     50 CZ         51.2673   68.1421   34.1950 C.ar      5 PHE5        0.0000 
     51 DU         50.3396   68.2537   35.3685 H         7 CUB7        0.0000 
     52 CZ         49.4120   68.3653   36.5419 C.ar      5 PHE5        0.0000 
     53 CZ         50.9078   66.6931   34.0487 C.ar      5 PHE5        0.0000 
     54 DU         49.9802   66.8047   35.2221 H         7 CUB7        0.0000 
     55 O          49.0525   66.9164   36.3956 O.2       2 ALA2        0.0000 
     56 O          49.6207   65.3558   35.0757 O.2       2 ALA2        0.0000 
     57 CA         48.6930   65.4674   36.2492 C.3       6 GLY6        0.0000 
     58 O          47.7654   65.5790   37.4227 O.2       2 ALA2        0.0000 
     59 O          49.2612   63.9069   34.9294 O.2       2 ALA2        0.0000 
     60 CA         48.3336   64.0185   36.1028 C.3       6 GLY6        0.0000 
     61 CA         47.4059   64.1301   37.2763 C.3       6 GLY6        0.0000 
     62 N          46.4783   64.2417   38.4498 N.2       2 ALA2        0.0000 
     63 O          49.8294   62.3464   33.6095 O.2       2 ALA2        0.0000 
     64 OD1        48.9017   62.4580   34.7830 O.3       3 ASP3        0.0000 
     65 CA         47.9741   62.5696   35.9565 C.3       6 GLY6        0.0000 
     66 CA         47.0464   62.6812   37.1299 C.3       6 GLY6        0.0000 
     67 N          46.1188   62.7928   38.3034 N.2       2 ALA2        0.0000 
     68 OD1        48.5423   61.0091   34.6366 O.3       3 ASP3        0.0000 
     69 NZ         47.6146   61.1207   35.8101 N.2       4 LYS4        0.0000 
     70 NZ         46.6870   61.2323   36.9836 N.2       4 LYS4        0.0000 
     71 NZ         45.7593   61.3439   38.1570 N.2       4 LYS4        0.0000 
     72 CZ         52.7494   69.2192   35.2642 C.ar      5 PHE5        0.0000 
     73 CZ         51.8217   69.3308   36.4377 C.ar      5 PHE5        0.0000 
     74 CZ         50.8941   69.4424   37.6111 C.ar      5 PHE5        0.0000 
     75 CZ         51.4622   67.8819   36.2913 C.ar      5 PHE5        0.0000 
     76 CA         50.5346   67.9935   37.4647 C.3       6 GLY6        0.0000 
     77 CZ         51.1028   66.4330   36.1449 C.ar      5 PHE5        0.0000 
     78 N          50.1751   66.5446   37.3184 N.2       2 ALA2        0.0000 
     79 CA         49.2475   66.6562   38.4918 C.3       6 GLY6        0.0000 
     80 O          51.6709   64.8725   34.8251 O.2       2 ALA2        0.0000 
     81 O          50.7433   64.9841   35.9985 O.2       2 ALA2        0.0000 
     82 N          49.8156   65.0957   37.1720 N.2       2 ALA2        0.0000 
     83 CA         50.3838   63.5352   35.8522 C.3       6 GLY6        0.0000 
     84 N          49.4562   63.6468   37.0256 N.2       2 ALA2        0.0000 
     85 N          48.5285   63.7584   38.1991 N.2       2 ALA2        0.0000 
     86 OD1        50.0243   62.0863   35.7058 O.3       3 ASP3        0.0000 
     87 OD1        49.0967   62.1979   36.8793 O.3       3 ASP3        0.0000 
     88 NZ         48.1690   62.3095   38.0527 N.2       4 LYS4        0.0000 
     89 NZ         47.2414   62.4211   39.2262 N.2       4 LYS4        0.0000 
     90 OD1        48.7372   60.7490   36.7329 O.3       3 ASP3        0.0000 
     91 CZ         53.8720   68.8475   36.1870 C.ar      5 PHE5        0.0000 
     92 CZ         52.9443   68.9591   37.3605 C.ar      5 PHE5        0.0000 
     93 CZ         52.5848   67.5102   37.2141 C.ar      5 PHE5        0.0000 
     94 CZ         51.6572   67.6218   38.3875 C.ar      5 PHE5        0.0000 
     95 CZ         53.1530   65.9497   35.8943 C.ar      5 PHE5        0.0000 
     96 OG         52.2254   66.0613   37.0677 O.2       1 SER1        0.0000 
     97 OG         51.2977   66.1729   38.2412 O.2       1 SER1        0.0000 
     98 OG         51.8659   64.6124   36.9214 O.2       1 SER1        0.0000 
     99 OG         50.5788   63.2751   37.9484 O.2       1 SER1        0.0000 
    100 OD1        50.2193   61.8261   37.8021 O.3       3 ASP3        0.0000 
@<TRIPOS>BOND
@<TRIPOS>SUBSTRUCTURE
     1 SER1        5 GROUP   
     2 ALA2        6 GROUP   
     3 ASP3       64 GROUP   
     4 LYS4       22 GROUP   
     5 PHE5        1 GROUP   
     6 GLY6       13 GROUP   
     7 CUB7        4 GROUP   
@<TRIPOS>SET

