#    Name: 2dvo_ITT_1_INTS_M
#    Modification time : Tue Mar 25 10:23:42 2014

@<TRIPOS>MOLECULE
2dvo_ITT_1_INTS_M
   68     0     9     0     0
SMALL
NO_CHARGES


@<TRIPOS>ATOM
      1 NZ         51.3640   59.7530   35.5080 N.4       2 LYC4        0.0000 
      2 NZ         50.7800   58.8910   34.5620 N.4       8 LYL4        0.0000 
      3 NZ         51.9480   60.6150   36.4540 N.4       5 LYP4        0.0000 
      4 N          51.6440   58.7305   33.5615 N.am      1 SEC2        0.0000 
      5 N          50.7800   58.8910   34.5620 N.am      7 SEL2        0.0000 
      6 N          52.5080   58.5700   32.5610 N.am      4 SEP2        0.0000 
      7 N          51.3640   59.7530   35.5080 N.am      1 SEC2        0.0000 
      8 N          51.9480   60.6150   36.4540 N.am      4 SEP2        0.0000 
      9 N          47.4200   58.2785   35.2630 N.am      1 SEC2        0.0000 
     10 N          48.3990   59.1270   34.8660 N.am      7 SEL2        0.0000 
     11 N          46.4410   57.4300   35.6600 N.am      4 SEP2        0.0000 
     12 N          50.8885   58.4305   32.6930 N.am      1 SEC2        0.0000 
     13 N          49.2690   58.2910   32.8250 N.am      7 SEL2        0.0000 
     14 N          49.9850   58.0705   31.6460 N.am      1 SEC2        0.0000 
     15 N          50.7010   57.8500   30.4670 N.am      4 SEP2        0.0000 
     16 N          48.7705   58.9285   31.4050 N.am      1 SEC2        0.0000 
     17 N          48.2720   59.5660   29.9850 N.am      4 SEP2        0.0000 
     18 N          50.7310   63.6720   33.1340 N.am      1 SEC2        0.0000 
     19 N          49.7530   63.0700   33.8750 N.am      7 SEL2        0.0000 
     20 N          51.7090   64.2740   32.3930 N.am      4 SEP2        0.0000 
     21 NZ         50.9360   61.2440   37.0035 N.4       2 LYC4        0.0000 
     22 NZ         49.9240   61.8730   37.5530 N.4       8 LYL4        0.0000 
     23 N          50.9360   61.2440   37.0035 N.am      1 SEC2        0.0000 
     24 N          49.9240   61.8730   37.5530 N.am      7 SEL2        0.0000 
     25 N          50.5180   62.0795   39.1310 N.am      1 SEC2        0.0000 
     26 N          51.1120   62.2860   40.7090 N.am      4 SEP2        0.0000 
     27 CA         47.1705   65.1995   36.4045 C.3       3 GLC5        0.0000 
     28 CA         48.8200   65.0440   37.6460 C.3       9 GLL5        0.0000 
     29 CA         45.5210   65.3550   35.1630 C.3       6 GLP5        0.0000 
     30 CA         47.1965   66.5315   36.2610 C.3       3 GLC5        0.0000 
     31 CA         48.9760   66.2240   37.0100 C.3       9 GLL5        0.0000 
     32 CA         45.4170   66.8390   35.5120 C.3       6 GLP5        0.0000 
     33 CA         47.5020   65.7960   35.3530 C.3       3 GLC5        0.0000 
     34 CA         49.4830   66.2370   35.5430 C.3       9 GLL5        0.0000 
     35 CA         52.0860   67.3130   34.7140 C.3       3 GLC5        0.0000 
     36 CA         50.3480   67.5480   35.6840 C.3       9 GLL5        0.0000 
     37 CA         53.8240   67.0780   33.7440 C.3       6 GLP5        0.0000 
     38 CA         48.9985   67.9665   38.2480 C.3       3 GLC5        0.0000 
     39 CA         50.7410   67.6860   37.1430 C.3       9 GLL5        0.0000 
     40 CA         47.2560   68.2470   39.3530 C.3       6 GLP5        0.0000 
     41 CA         50.1300   69.7045   37.2405 C.3       3 GLC5        0.0000 
     42 CA         49.5190   71.7230   37.3380 C.3       6 GLP5        0.0000 
     43 N          55.1485   66.8225   39.1675 N.am      1 SEC2        0.0000 
     44 N          54.2040   66.7040   37.8920 N.am      7 SEL2        0.0000 
     45 N          56.0930   66.9410   40.4430 N.am      4 SEP2        0.0000 
     46 N          54.8375   65.4840   37.7825 N.am      1 SEC2        0.0000 
     47 N          55.4710   64.2640   37.6730 N.am      4 SEP2        0.0000 
     48 CA         57.3880   69.1310   36.7240 C.3       3 GLC5        0.0000 
     49 CA         55.4110   68.7350   37.0760 C.3       9 GLL5        0.0000 
     50 CA         59.3650   69.5270   36.3720 C.3       6 GLP5        0.0000 
     51 N          57.4965   68.8305   36.3325 N.am      1 SEC2        0.0000 
     52 N          56.6750   68.4270   37.3140 N.am      7 SEL2        0.0000 
     53 N          58.3180   69.2340   35.3510 N.am      4 SEP2        0.0000 
     54 N          57.0120   66.9250   37.1770 N.am      1 SEC2        0.0000 
     55 N          57.3490   65.4230   37.0400 N.am      4 SEP2        0.0000 
     56 N          56.7680   69.6485   35.9010 N.am      1 SEC2        0.0000 
     57 N          55.2180   70.0630   36.4510 N.am      7 SEL2        0.0000 
     58 CA         52.6985   70.9135   34.6170 C.3       3 GLC5        0.0000 
     59 CA         53.8970   70.4930   36.1460 C.3       9 GLL5        0.0000 
     60 CA         51.5000   71.3340   33.0880 C.3       6 GLP5        0.0000 
     61 CA         52.8585   72.1625   36.0415 C.3       3 GLC5        0.0000 
     62 CA         51.8200   73.8320   35.9370 C.3       6 GLP5        0.0000 
     63 CA         54.7210   72.4560   35.7610 C.3       3 GLC5        0.0000 
     64 CA         55.5450   74.4190   35.3760 C.3       6 GLP5        0.0000 
     65 N          52.2440   71.2175   35.7395 N.am      1 SEC2        0.0000 
     66 N          52.7730   69.7980   36.3750 N.am      7 SEL2        0.0000 
     67 N          51.7150   72.6370   35.1040 N.am      4 SEP2        0.0000 
     68 CA         48.0770   66.9405   38.3405 C.3       3 GLC5        0.0000 
@<TRIPOS>BOND
@<TRIPOS>SUBSTRUCTURE
     1 SEC2        4 GROUP        1 X    SEC  0     ROOT SEC X 2
     2 LYC4        1 GROUP        1 X    LYC  0     **** LYC X 4
     3 GLC5       27 GROUP        1 X    GLC  0     **** GLC X 6
     4 SEP2        6 GROUP        1 Y    SEP  0     ROOT SEP Y 9
     5 LYP4        3 GROUP        1 Y    LYP  0     **** LYP Y 11
     6 GLP5       29 GROUP        1 Y    GLP  0     **** GLP Y 13
     7 SEL2        5 GROUP        1 Z    SEL  0     ROOT SEL Z 16
     8 LYL4        2 GROUP        1 Z    LYL  0     **** LYL Z 18
     9 GLL5       28 GROUP        1 Z    GLL  0     **** GLL Z 20
@<TRIPOS>SET

