#    Name: 2dvo_ITT_1_ligand
#    Modification time : Tue Mar 25 10:23:42 2014

@<TRIPOS>MOLECULE
2dvo_ITT_1_ligand
   42    44     1     0     0
SMALL
NO_CHARGES


@<TRIPOS>ATOM
      1 PG         49.5420   59.2020   33.9330 P.3       1 ITT201      0.0000 
      2 O1G        50.7800   58.8910   34.5620 O.co2     1 ITT201      0.0000 
      3 O2G        48.3990   59.1270   34.8660 O.co2     1 ITT201      0.0000 
      4 O3G        49.2690   58.2910   32.8250 O.co2     1 ITT201      0.0000 
      5 PB         48.7430   62.0470   33.9530 P.3       1 ITT201      0.0000 
      6 O1B        49.7530   63.0700   33.8750 O.co2     1 ITT201      0.0000 
      7 O2B        47.4490   62.2590   33.3000 O.co2     1 ITT201      0.0000 
      8 O3B        49.3130   60.7510   33.4360 O.3       1 ITT201      0.0000 
      9 PA         48.7140   62.3980   36.7650 P.3       1 ITT201      0.0000 
     10 O1A        47.4430   61.8280   37.4470 O.co2     1 ITT201      0.0000 
     11 O2A        49.9240   61.8730   37.5530 O.co2     1 ITT201      0.0000 
     12 O3A        48.2810   61.7780   35.3710 O.3       1 ITT201      0.0000 
     13 O5'        48.5470   63.9800   36.6290 O.3       1 ITT201      0.0000 
     14 C5'        48.8200   65.0440   37.6460 C.3       1 ITT201      0.0000 
     15 C4'        48.9760   66.2240   37.0100 C.3       1 ITT201      0.0000 
     16 O4'        49.9620   66.7420   38.0280 O.3       1 ITT201      0.0000 
     17 C3'        49.4830   66.2370   35.5430 C.3       1 ITT201      0.0000 
     18 O3'        48.6180   66.0670   34.5000 O.3       1 ITT201      0.0000 
     19 C2'        50.3480   67.5480   35.6840 C.3       1 ITT201      0.0000 
     20 O2'        49.3960   68.5930   35.1910 O.3       1 ITT201      0.0000 
     21 C1'        50.7410   67.6860   37.1430 C.3       1 ITT201      0.0000 
     22 N9         52.1250   67.5940   37.3010 N.pl3     1 ITT201      0.0000 
     23 C8         52.9140   66.5700   37.8450 C.2       1 ITT201      0.0000 
     24 N7         54.2040   66.7040   37.8920 N.2       1 ITT201      0.0000 
     25 C5         54.2940   67.9600   37.3310 C.ar      1 ITT201      0.0000 
     26 C6         55.4110   68.7350   37.0760 C.ar      1 ITT201      0.0000 
     27 O6         56.6750   68.4270   37.3140 O.3       1 ITT201      0.0000 
     28 N1         55.2180   70.0630   36.4510 N.ar      1 ITT201      0.0000 
     29 C2         53.8970   70.4930   36.1460 C.ar      1 ITT201      0.0000 
     30 N3         52.7730   69.7980   36.3750 N.ar      1 ITT201      0.0000 
     31 C4         53.0300   68.5270   36.9640 C.ar      1 ITT201      0.0000 
     32 H          49.7151   64.7325   38.2158 H         1 ITT201      0.0000 
     33 H          47.9760   65.0404   38.3605 H         1 ITT201      0.0000 
     34 H          48.0972   66.8473   37.1152 H         1 ITT201      0.0000 
     35 H          50.3089   65.4348   35.5890 H         1 ITT201      0.0000 
     36 H          51.1679   67.4445   35.0511 H         1 ITT201      0.0000 
     37 H          50.4075   68.7282   37.4371 H         1 ITT201      0.0000 
     38 H          52.4208   65.7228   38.1978 H         1 ITT201      0.0000 
     39 H          53.8267   71.4632   35.6936 H         1 ITT201      0.0000 
     40 H          49.0143   65.3298   33.9528 H         1 ITT201      0.0000 
     41 H          48.6559   68.0827   34.7528 H         1 ITT201      0.0000 
     42 H          56.8512   68.7559   38.2418 H         1 ITT201      0.0000 
@<TRIPOS>BOND
     1    2    1 ar   
     2    3    1 ar   
     3    4    1 ar   
     4    8    1 1    
     5    6    5 ar   
     6    7    5 ar   
     7    8    5 1    
     8   12    5 1    
     9   10    9 ar   
    10   11    9 ar   
    11   12    9 1    
    12   13    9 1    
    13   14   13 1    
    14   15   14 1    
    15   32   14 1    
    16   33   14 1    
    17   16   15 1    
    18   17   15 1    
    19   34   15 1    
    20   21   16 1    
    21   18   17 1    
    22   19   17 1    
    23   35   17 1    
    24   40   18 1    
    25   20   19 1    
    26   21   19 1    
    27   36   19 1    
    28   41   20 1    
    29   22   21 1    
    30   37   21 1    
    31   23   22 1    
    32   31   22 1    
    33   24   23 2    
    34   38   23 1    
    35   25   24 1    
    36   26   25 ar   
    37   31   25 ar   
    38   27   26 1    
    39   28   26 ar   
    40   42   27 1    
    41   29   28 ar   
    42   30   29 ar   
    43   39   29 1    
    44   31   30 ar   
@<TRIPOS>SUBSTRUCTURE
     1 ITT201      1 GROUP   
@<TRIPOS>SET

