#    Name: 4buw_F33_1_INTS_M
#    Modification time : Tue Mar 25 08:26:24 2014

@<TRIPOS>MOLECULE
4buw_F33_1_INTS_M
   46     0     9     0     0
SMALL
NO_CHARGES


@<TRIPOS>ATOM
      1 CA        -38.1075   -8.1515    4.1905 C.3       3 GLC5        0.0000 
      2 CA        -39.7520   -8.7530    4.8010 C.3       9 GLL5        0.0000 
      3 CA        -36.4630   -7.5500    3.5800 C.3       6 GLP5        0.0000 
      4 CA        -39.2310  -13.6190    7.3945 C.3       3 GLC5        0.0000 
      5 CA        -39.7620  -11.9460    8.3640 C.3       9 GLL5        0.0000 
      6 CA        -38.7000  -15.2920    6.4250 C.3       6 GLP5        0.0000 
      7 O         -36.9825  -10.4565   12.3650 O.2       1 ALC1        0.0000 
      8 O         -38.1190  -11.1270   12.8880 O.2       7 ALL1        0.0000 
      9 O         -35.8460   -9.7860   11.8420 O.2       4 ALP1        0.0000 
     10 N         -36.3020   -9.8130   14.6660 N.am      2 SEC2        0.0000 
     11 N         -37.3760  -10.6980   14.9560 N.am      8 SEL2        0.0000 
     12 N         -35.2280   -8.9280   14.3760 N.am      5 SEP2        0.0000 
     13 N         -36.7395  -10.7290   16.2035 N.am      2 SEC2        0.0000 
     14 N         -36.1030  -10.7600   17.4510 N.am      5 SEP2        0.0000 
     15 CA        -37.6195   -7.8700    5.4620 C.3       3 GLC5        0.0000 
     16 CA        -39.1120   -8.8830    6.1870 C.3       9 GLL5        0.0000 
     17 CA        -36.1270   -6.8570    4.7370 C.3       6 GLP5        0.0000 
     18 CA        -40.0560  -10.9705   16.9090 C.3       3 GLC5        0.0000 
     19 CA        -39.1630  -12.6750   16.0940 C.3       9 GLL5        0.0000 
     20 CA        -40.9490   -9.2660   17.7240 C.3       6 GLP5        0.0000 
     21 CA        -36.9550  -12.5950   16.2635 C.3       3 GLC5        0.0000 
     22 CA        -34.7470  -12.5150   16.4330 C.3       6 GLP5        0.0000 
     23 CA        -40.3560   -7.1460    6.2800 C.3       3 GLC5        0.0000 
     24 CA        -41.2800   -5.4740    7.0660 C.3       6 GLP5        0.0000 
     25 CA        -41.3736  -12.1080    9.0494 C.3       3 GLC5        0.0000 
     26 CA        -39.6280  -12.3290    9.6970 C.3       9 GLL5        0.0000 
     27 CA        -43.1800  -12.3840    9.1870 C.3       6 GLP5        0.0000 
     28 CA        -37.0293   -8.7775    9.5482 C.3       3 GLC5        0.0000 
     29 CA        -38.6190   -9.8950    8.8080 C.3       9 GLL5        0.0000 
     30 CA        -35.5130   -7.4670    9.6200 C.3       6 GLP5        0.0000 
     31 CA        -37.0857  -12.0262   10.9520 C.3       3 GLC5        0.0000 
     32 CA        -38.4720  -10.2810   10.1450 C.3       9 GLL5        0.0000 
     33 CA        -35.4800  -13.1490   11.5350 C.3       6 GLP5        0.0000 
     34 CA        -41.0335  -12.0380   14.1598 C.3       3 GLC5        0.0000 
     35 CA        -39.8210  -13.1360   13.7710 C.3       9 GLL5        0.0000 
     36 CA        -42.6240  -11.3320   14.0580 C.3       6 GLP5        0.0000 
     37 CA        -41.6735  -12.8012   14.4827 C.3       3 GLC5        0.0000 
     38 CA        -40.6690  -14.1320   14.2290 C.3       9 GLL5        0.0000 
     39 CA        -41.0823  -14.7365   17.9312 C.3       3 GLC5        0.0000 
     40 CA        -40.0220  -13.6990   16.5170 C.3       9 GLL5        0.0000 
     41 CA        -41.7650  -15.4190   19.8110 C.3       6 GLP5        0.0000 
     42 CA        -41.1082  -12.2595   15.1818 C.3       3 GLC5        0.0000 
     43 CA        -38.9607  -12.8630   18.0217 C.3       3 GLC5        0.0000 
     44 CA        -38.3290  -12.5390   19.7380 C.3       6 GLP5        0.0000 
     45 CA        -38.7726  -14.6038   17.0699 C.3       3 GLC5        0.0000 
     46 CA        -37.7640  -15.8430   18.0670 C.3       6 GLP5        0.0000 
@<TRIPOS>BOND
@<TRIPOS>SUBSTRUCTURE
     1 ALC1        7 GROUP        1 X    ALC  0     ROOT ALC X 1
     2 SEC2       10 GROUP        1 X    SEC  0     **** SEC X 2
     3 GLC5        1 GROUP        1 X    GLC  0     **** GLC X 6
     4 ALP1        9 GROUP        1 Y    ALP  0     ROOT ALP Y 8
     5 SEP2       12 GROUP        1 Y    SEP  0     **** SEP Y 9
     6 GLP5        3 GROUP        1 Y    GLP  0     **** GLP Y 13
     7 ALL1        8 GROUP        1 Z    ALL  0     ROOT ALL Z 15
     8 SEL2       11 GROUP        1 Z    SEL  0     **** SEL Z 16
     9 GLL5        2 GROUP        1 Z    GLL  0     **** GLL Z 20
@<TRIPOS>SET

