#    Name: 4buw_F33_1_ligand
#    Modification time : Tue Mar 25 08:26:24 2014

@<TRIPOS>MOLECULE
4buw_F33_1_ligand
   36    39     1     0     0
SMALL
NO_CHARGES


@<TRIPOS>ATOM
      1 O         -40.5890  -12.0000    5.5650 O.2       1 F332167     0.0000 
      2 C4        -40.0680  -10.9070    5.5790 C.2       1 F332167     0.0000 
      3 C1        -39.7520   -8.7530    4.8010 C.3       1 F332167     0.0000 
      4 N         -39.4470  -10.2600    6.5590 N.am      1 F332167     0.0000 
      5 C5        -39.2510  -10.7240    7.8890 C.ar      1 F332167     0.0000 
      6 C10       -39.7620  -11.9460    8.3640 C.ar      1 F332167     0.0000 
      7 C9        -39.6280  -12.3290    9.6970 C.ar      1 F332167     0.0000 
      8 C6        -38.6190   -9.8950    8.8080 C.ar      1 F332167     0.0000 
      9 C7        -38.4720  -10.2810   10.1450 C.ar      1 F332167     0.0000 
     10 O10       -40.1370  -10.0610    4.4190 O.3       1 F332167     0.0000 
     11 C8        -38.9110  -11.5260   10.5930 C.ar      1 F332167     0.0000 
     12 C11       -38.8570  -11.8670   12.0430 C.2       1 F332167     0.0000 
     13 N2        -38.1190  -11.1270   12.8880 N.am      1 F332167     0.0000 
     14 C18       -38.1210  -11.3470   14.2100 C.2       1 F332167     0.0000 
     15 O1        -37.3760  -10.6980   14.9560 O.2       1 F332167     0.0000 
     16 N1        -39.7310  -12.8220   12.4680 N.2       1 F332167     0.0000 
     17 C12       -39.8210  -13.1360   13.7710 C.ar      1 F332167     0.0000 
     18 C17       -39.0650  -12.3520   14.7520 C.ar      1 F332167     0.0000 
     19 C13       -40.6690  -14.1320   14.2290 C.ar      1 F332167     0.0000 
     20 C14       -40.7770  -14.4090   15.5860 C.ar      1 F332167     0.0000 
     21 C15       -40.0220  -13.6990   16.5170 C.ar      1 F332167     0.0000 
     22 C2        -39.1120   -8.8830    6.1870 C.3       1 F332167     0.0000 
     23 C16       -39.1630  -12.6750   16.0940 C.ar      1 F332167     0.0000 
     24 H         -40.5968   -8.0809    4.8887 H         1 F332167     0.0000 
     25 H         -39.0125   -8.3269    4.1341 H         1 F332167     0.0000 
     26 H         -40.2509  -12.5749    7.6990 H         1 F332167     0.0000 
     27 H         -40.0557  -13.2034   10.0271 H         1 F332167     0.0000 
     28 H         -38.2503   -8.9782    8.5034 H         1 F332167     0.0000 
     29 H         -38.0276   -9.6267   10.8137 H         1 F332167     0.0000 
     30 H         -37.5196  -10.3485   12.4966 H         1 F332167     0.0000 
     31 H         -41.2305  -14.6781   13.5514 H         1 F332167     0.0000 
     32 H         -41.4220  -15.1473   15.9092 H         1 F332167     0.0000 
     33 H         -40.0921  -13.9234   17.5169 H         1 F332167     0.0000 
     34 H         -39.5660   -8.1804    6.8411 H         1 F332167     0.0000 
     35 H         -38.0629   -8.7480    6.0938 H         1 F332167     0.0000 
     36 H         -38.6043  -12.1642   16.7933 H         1 F332167     0.0000 
@<TRIPOS>BOND
     1    2    1 2    
     2    4    2 am   
     3   10    2 1    
     4   10    3 1    
     5   22    3 1    
     6   24    3 1    
     7   25    3 1    
     8    5    4 1    
     9   22    4 1    
    10    6    5 ar   
    11    8    5 ar   
    12    7    6 ar   
    13   26    6 1    
    14   11    7 ar   
    15   27    7 1    
    16    9    8 ar   
    17   28    8 1    
    18   11    9 ar   
    19   29    9 1    
    20   12   11 1    
    21   13   12 1    
    22   16   12 2    
    23   14   13 am   
    24   30   13 1    
    25   15   14 2    
    26   18   14 1    
    27   17   16 1    
    28   18   17 ar   
    29   19   17 ar   
    30   23   18 ar   
    31   20   19 ar   
    32   31   19 1    
    33   21   20 ar   
    34   32   20 1    
    35   23   21 ar   
    36   33   21 1    
    37   34   22 1    
    38   35   22 1    
    39   36   23 1    
@<TRIPOS>SUBSTRUCTURE
     1 F332167     1 GROUP   
@<TRIPOS>SET

