#    Name: 1n4h_REA_1_INTS_M
#    Modification time : Tue Mar 25 12:23:01 2014

@<TRIPOS>MOLECULE
1n4h_REA_1_INTS_M
   71     0     6     0     0
SMALL
NO_CHARGES


@<TRIPOS>ATOM
      1 CA         19.7660   33.7505    4.8115 C.3       2 GLC5        0.0000 
      2 CA         21.6370   33.4550    5.3740 C.3       6 GLL5        0.0000 
      3 CA         17.8950   34.0460    4.2490 C.3       4 GLP5        0.0000 
      4 CA         25.2990   33.5350    6.8015 C.3       2 GLC5        0.0000 
      5 CA         23.8620   31.8350    6.6380 C.3       6 GLL5        0.0000 
      6 CA         26.7360   35.2350    6.9650 C.3       4 GLP5        0.0000 
      7 CA         25.5955   28.4280   10.3135 C.3       2 GLC5        0.0000 
      8 CA         26.0660   27.7250    8.5310 C.3       6 GLL5        0.0000 
      9 CA         25.1250   29.1310   12.0960 C.3       4 GLP5        0.0000 
     10 CA         25.8155   27.3750   10.8220 C.3       2 GLC5        0.0000 
     11 CA         27.0510   27.0180    9.3290 C.3       6 GLL5        0.0000 
     12 CA         24.5800   27.7320   12.3150 C.3       4 GLP5        0.0000 
     13 CA         29.6325   22.7040    9.3665 C.3       2 GLC5        0.0000 
     14 CA         27.9510   23.6260   10.2240 C.3       6 GLL5        0.0000 
     15 CA         31.3140   21.7820    8.5090 C.3       4 GLP5        0.0000 
     16 CA         26.5960   22.9820   11.6105 C.3       2 GLC5        0.0000 
     17 CA         25.2410   22.3380   12.9970 C.3       4 GLP5        0.0000 
     18 CA         21.5020   33.0840    9.7405 C.3       2 GLC5        0.0000 
     19 CA         23.2350   32.9900    8.9100 C.3       6 GLL5        0.0000 
     20 CA         19.7690   33.1780   10.5710 C.3       4 GLP5        0.0000 
     21 CA         23.6245   34.5465   10.0120 C.3       2 GLC5        0.0000 
     22 CA         24.0140   36.1030   11.1140 C.3       4 GLP5        0.0000 
     23 CA         25.0225   32.0935    2.5845 C.3       2 GLC5        0.0000 
     24 CA         24.9480   31.6510    4.2340 C.3       6 GLL5        0.0000 
     25 CA         25.0970   32.5360    0.9350 C.3       4 GLP5        0.0000 
     26 CA         24.2590   29.8360    3.7705 C.3       2 GLC5        0.0000 
     27 CA         23.5700   28.0210    3.3070 C.3       4 GLP5        0.0000 
     28 CA         26.9290   32.0155    4.2165 C.3       2 GLC5        0.0000 
     29 CA         28.9100   32.3800    4.1990 C.3       4 GLP5        0.0000 
     30 CA         26.1410   29.5610   10.5900 C.3       2 GLC5        0.0000 
     31 CA         27.1570   29.9910    9.0840 C.3       6 GLL5        0.0000 
     32 CA         27.2605   30.9330   10.6455 C.3       2 GLC5        0.0000 
     33 CA         27.3640   31.8750   12.2070 C.3       4 GLP5        0.0000 
     34 CA         31.1880   25.4590   10.8835 C.3       2 GLC5        0.0000 
     35 CA         29.1590   25.7760   11.0430 C.3       6 GLL5        0.0000 
     36 CA         33.2170   25.1420   10.7240 C.3       4 GLP5        0.0000 
     37 CA         27.3135   26.3125   12.1215 C.3       2 GLC5        0.0000 
     38 CA         25.4680   26.8490   13.2000 C.3       4 GLP5        0.0000 
     39 CA         29.7205   26.9035   12.6170 C.3       2 GLC5        0.0000 
     40 CA         30.2820   28.0310   14.1910 C.3       4 GLP5        0.0000 
     41 N          29.6520   20.7050   10.3845 N.am      1 SEC2        0.0000 
     42 N          28.3770   21.4240   10.6260 N.am      5 SEL2        0.0000 
     43 N          30.9270   19.9860   10.1430 N.am      3 SEP2        0.0000 
     44 N          31.2200   22.1340   11.4795 N.am      1 SEC2        0.0000 
     45 N          29.6410   22.7790   11.6280 N.am      5 SEL2        0.0000 
     46 N          32.7990   21.4890   11.3310 N.am      3 SEP2        0.0000 
     47 CA         21.4832   35.6103    6.3182 C.3       2 GLC5        0.0000 
     48 CA         21.9060   33.5740    6.8750 C.3       6 GLL5        0.0000 
     49 CA         21.1950   37.7060    6.5120 C.3       4 GLP5        0.0000 
     50 CA         22.4573   34.9098    3.6910 C.3       2 GLC5        0.0000 
     51 CA         22.7010   36.6290    2.4420 C.3       4 GLP5        0.0000 
     52 CA         24.4887   33.2620    3.3537 C.3       2 GLC5        0.0000 
     53 CA         22.7900   32.9260    4.5060 C.3       6 GLL5        0.0000 
     54 CA         25.6370   34.0130    1.8270 C.3       4 GLP5        0.0000 
     55 CA         22.8257   30.6460    3.8798 C.3       2 GLC5        0.0000 
     56 CA         22.3110   28.7810    2.8790 C.3       4 GLP5        0.0000 
     57 CA         25.4878   33.5902    5.1653 C.3       2 GLC5        0.0000 
     58 CA         23.8910   32.0960    5.2550 C.3       6 GLL5        0.0000 
     59 CA         26.5560   35.3070    5.5860 C.3       4 GLP5        0.0000 
     60 CA         24.7331   29.9694    9.5956 C.3       2 GLC5        0.0000 
     61 CA         24.9190   31.0450    7.3340 C.3       6 GLL5        0.0000 
     62 CA         23.9350   30.2030   11.2660 C.3       4 GLP5        0.0000 
     63 CA         25.2181   25.6494    8.6095 C.3       2 GLC5        0.0000 
     64 CA         27.0700   25.6940    9.4400 C.3       6 GLL5        0.0000 
     65 CA         23.6220   24.7660    8.0340 C.3       4 GLP5        0.0000 
     66 CA         26.5157   26.0922   11.5205 C.3       2 GLC5        0.0000 
     67 CA         27.1771   23.9364    8.1908 C.3       2 GLC5        0.0000 
     68 CA         26.5970   23.3920    6.3490 C.3       4 GLP5        0.0000 
     69 CA         20.8697   32.6475    9.0650 C.3       2 GLC5        0.0000 
     70 CA         21.6500   31.2540    7.8880 C.3       6 GLL5        0.0000 
     71 CA         23.3170   31.3040    9.7946 C.3       2 GLC5        0.0000 
@<TRIPOS>BOND
@<TRIPOS>SUBSTRUCTURE
     1 SEC2       41 GROUP        1 X    SEC  0     ROOT SEC X 2
     2 GLC5        1 GROUP        1 X    GLC  0     **** GLC X 6
     3 SEP2       43 GROUP        1 Y    SEP  0     ROOT SEP Y 9
     4 GLP5        3 GROUP        1 Y    GLP  0     **** GLP Y 13
     5 SEL2       42 GROUP        1 Z    SEL  0     ROOT SEL Z 16
     6 GLL5        2 GROUP        1 Z    GLL  0     **** GLL Z 20
@<TRIPOS>SET

