#    Name: 1n4h_REA_1_ligand
#    Modification time : Tue Mar 25 12:23:01 2014

@<TRIPOS>MOLECULE
1n4h_REA_1_ligand
   49    49     1     0     0
SMALL
NO_CHARGES


@<TRIPOS>ATOM
      1 C1         22.6760   32.3860    7.5850 C.3       1 REA500      0.0000 
      2 C2         21.9060   33.5740    6.8750 C.3       1 REA500      0.0000 
      3 C3         21.6370   33.4550    5.3740 C.3       1 REA500      0.0000 
      4 C4         22.7900   32.9260    4.5060 C.3       1 REA500      0.0000 
      5 C5         23.8910   32.0960    5.2550 C.2       1 REA500      0.0000 
      6 C6         23.8620   31.8350    6.6380 C.2       1 REA500      0.0000 
      7 C7         24.9190   31.0450    7.3340 C.2       1 REA500      0.0000 
      8 C8         25.0460   29.7100    7.5730 C.2       1 REA500      0.0000 
      9 C9         26.0800   29.0940    8.3970 C.2       1 REA500      0.0000 
     10 C10        26.0660   27.7250    8.5310 C.2       1 REA500      0.0000 
     11 C11        27.0510   27.0180    9.3290 C.2       1 REA500      0.0000 
     12 C12        27.0700   25.6940    9.4400 C.2       1 REA500      0.0000 
     13 C13        28.0570   24.9770   10.2420 C.2       1 REA500      0.0000 
     14 C14        27.9510   23.6260   10.2240 C.2       1 REA500      0.0000 
     15 C15        28.7050   22.5640   10.8700 C.2       1 REA500      0.0000 
     16 C16        21.6500   31.2540    7.8880 C.3       1 REA500      0.0000 
     17 C17        23.2350   32.9900    8.9100 C.3       1 REA500      0.0000 
     18 C18        24.9480   31.6510    4.2340 C.3       1 REA500      0.0000 
     19 C19        27.1570   29.9910    9.0840 C.3       1 REA500      0.0000 
     20 C20        29.1590   25.7760   11.0430 C.3       1 REA500      0.0000 
     21 O1         28.3770   21.4240   10.6260 O.co2     1 REA500      0.0000 
     22 O2         29.6410   22.7790   11.6280 O.co2     1 REA500      0.0000 
     23 H          22.4843   34.5057    7.0724 H         1 REA500      0.0000 
     24 H          20.9392   33.7075    7.4125 H         1 REA500      0.0000 
     25 H          21.3345   34.4537    4.9856 H         1 REA500      0.0000 
     26 H          20.7519   32.7969    5.2213 H         1 REA500      0.0000 
     27 H          23.2883   33.7784    4.0068 H         1 REA500      0.0000 
     28 H          22.3753   32.2909    3.7006 H         1 REA500      0.0000 
     29 H          25.7264   31.6998    7.7080 H         1 REA500      0.0000 
     30 H          24.3542   29.0310    7.1411 H         1 REA500      0.0000 
     31 H          25.3427   27.1516    8.0601 H         1 REA500      0.0000 
     32 H          27.7549   27.6230    9.8182 H         1 REA500      0.0000 
     33 H          26.3668   25.0875    8.9501 H         1 REA500      0.0000 
     34 H          27.1246   23.2132    9.5925 H         1 REA500      0.0000 
     35 H          22.0806   30.4745    8.3430 H         1 REA500      0.0000 
     36 H          20.9127   31.5710    8.4846 H         1 REA500      0.0000 
     37 H          21.2228   30.9067    7.0532 H         1 REA500      0.0000 
     38 H          23.7451   32.3130    9.4406 H         1 REA500      0.0000 
     39 H          23.8555   33.7548    8.7368 H         1 REA500      0.0000 
     40 H          22.5036   33.3336    9.4991 H         1 REA500      0.0000 
     41 H          25.3833   32.4318    3.7858 H         1 REA500      0.0000 
     42 H          25.6760   31.1157    4.6624 H         1 REA500      0.0000 
     43 H          24.5517   31.0826    3.5129 H         1 REA500      0.0000 
     44 H          27.8037   29.4494    9.6211 H         1 REA500      0.0000 
     45 H          27.6917   30.5075    8.4152 H         1 REA500      0.0000 
     46 H          26.7443   30.6563    9.7061 H         1 REA500      0.0000 
     47 H          29.7658   25.1643   11.5506 H         1 REA500      0.0000 
     48 H          29.7354   26.3234   10.4363 H         1 REA500      0.0000 
     49 H          28.7533   26.4039   11.7072 H         1 REA500      0.0000 
@<TRIPOS>BOND
     1    2    1 1    
     2    6    1 1    
     3   16    1 1    
     4   17    1 1    
     5    3    2 1    
     6   23    2 1    
     7   24    2 1    
     8    4    3 1    
     9   25    3 1    
    10   26    3 1    
    11    5    4 1    
    12   27    4 1    
    13   28    4 1    
    14    6    5 2    
    15   18    5 1    
    16    7    6 1    
    17    8    7 2    
    18   29    7 1    
    19    9    8 1    
    20   30    8 1    
    21   10    9 2    
    22   19    9 1    
    23   11   10 1    
    24   31   10 1    
    25   12   11 2    
    26   32   11 1    
    27   13   12 1    
    28   33   12 1    
    29   14   13 2    
    30   20   13 1    
    31   15   14 1    
    32   34   14 1    
    33   21   15 ar   
    34   22   15 ar   
    35   35   16 1    
    36   36   16 1    
    37   37   16 1    
    38   38   17 1    
    39   39   17 1    
    40   40   17 1    
    41   41   18 1    
    42   42   18 1    
    43   43   18 1    
    44   44   19 1    
    45   45   19 1    
    46   46   19 1    
    47   47   20 1    
    48   48   20 1    
    49   49   20 1    
@<TRIPOS>SUBSTRUCTURE
     1 REA500      1 GROUP   
@<TRIPOS>SET

