#    Name: 3toh_079_1_INTS_M
#    Modification time : Mon Mar 24 20:28:21 2014

@<TRIPOS>MOLECULE
3toh_079_1_INTS_M
   87     0    12     0     0
SMALL
NO_CHARGES


@<TRIPOS>ATOM
      1 N          17.9845   34.5245   20.1835 N.am      2 SEC2        0.0000 
      2 N          18.7730   35.0850   19.1320 N.am     10 SEL2        0.0000 
      3 N          17.1960   33.9640   21.2350 N.am      6 SEP2        0.0000 
      4 CA         19.8375   38.8620   14.2185 C.3       4 GLC5        0.0000 
      5 CA         21.4030   39.0840   15.6990 C.3      12 GLL5        0.0000 
      6 CA         18.2720   38.6400   12.7380 C.3       8 GLP5        0.0000 
      7 CA         21.2515   37.6325   14.2535 C.3       4 GLC5        0.0000 
      8 CA         21.1000   36.1810   12.8080 C.3       8 GLP5        0.0000 
      9 O          18.9740   36.1090   15.6270 O.2       1 ALC1        0.0000 
     10 O          19.0470   35.2270   16.8940 O.2       9 ALL1        0.0000 
     11 O          18.9010   36.9910   14.3600 O.2       5 ALP1        0.0000 
     12 CA         18.0770   32.9395   18.3285 C.3       4 GLC5        0.0000 
     13 CA         18.3790   33.9620   16.5600 C.3      12 GLL5        0.0000 
     14 CA         17.7750   31.9170   20.0970 C.3       8 GLP5        0.0000 
     15 CA         16.5145   31.9765   17.4915 C.3       4 GLC5        0.0000 
     16 CA         16.3820   32.7730   15.6150 C.3      12 GLL5        0.0000 
     17 CA         16.6470   31.1800   19.3680 C.3       8 GLP5        0.0000 
     18 CA         14.2740   33.1015   15.7020 C.3       4 GLC5        0.0000 
     19 CA         12.1660   33.4300   15.7890 C.3       8 GLP5        0.0000 
     20 CA         15.5550   31.2175   14.9270 C.3       4 GLC5        0.0000 
     21 CA         14.7280   29.6620   14.2390 C.3       8 GLP5        0.0000 
     22 CA         16.1425   33.2020   13.4865 C.3       4 GLC5        0.0000 
     23 CA         15.9030   33.6310   11.3580 C.3       8 GLP5        0.0000 
     24 CA         14.1335   34.2205   16.2705 C.3       4 GLC5        0.0000 
     25 CA         16.1010   35.0110   16.7520 C.3      12 GLL5        0.0000 
     26 CA         14.5715   35.6050   15.4430 C.3       4 GLC5        0.0000 
     27 CA         13.0420   36.1990   14.1340 C.3       8 GLP5        0.0000 
     28 CA         17.6895   25.5155   13.3575 C.3       4 GLC5        0.0000 
     29 CA         18.5910   26.5620   11.5980 C.3      12 GLL5        0.0000 
     30 CA         16.7880   24.4690   15.1170 C.3       8 GLP5        0.0000 
     31 CA         16.2865   29.2590   12.7805 C.3       4 GLC5        0.0000 
     32 CA         17.8450   28.8560   11.3220 C.3      12 GLL5        0.0000 
     33 CA         17.5210   26.2030   14.3740 C.3       4 GLC5        0.0000 
     34 CA         18.2540   27.9370   13.6310 C.3      12 GLL5        0.0000 
     35 CA         16.4910   28.7995   13.9350 C.3       4 GLC5        0.0000 
     36 CA         19.7960   26.7785   15.6455 C.3       4 GLC5        0.0000 
     37 CA         19.6110   28.3030   14.2610 C.3      12 GLL5        0.0000 
     38 CA         19.9810   25.2540   17.0300 C.3       8 GLP5        0.0000 
     39 O          20.6480   26.8860   14.0730 O.2       1 ALC1        0.0000 
     40 O          20.8240   28.2120   13.4330 O.2       9 ALL1        0.0000 
     41 O          20.4720   25.5600   14.7130 O.2       5 ALP1        0.0000 
     42 OD1        18.1070   29.2215   16.4730 O.co2     3 ASC3        0.0000 
     43 OD1        18.2080   29.9140   15.4730 O.co2    11 ASL3        0.0000 
     44 OD1        18.0060   28.5290   17.4730 O.co2     7 ASP3        0.0000 
     45 O          18.1070   29.2215   16.4730 O.2       1 ALC1        0.0000 
     46 O          18.2080   29.9140   15.4730 O.2       9 ALL1        0.0000 
     47 O          18.0060   28.5290   17.4730 O.2       5 ALP1        0.0000 
     48 N          21.2925   28.6335   17.7755 N.am      2 SEC2        0.0000 
     49 N          20.4740   29.4140   17.1320 N.am     10 SEL2        0.0000 
     50 N          22.1110   27.8530   18.4190 N.am      6 SEP2        0.0000 
     51 O          19.2400   28.9715   17.3025 O.2       1 ALC1        0.0000 
     52 O          20.4740   29.4140   17.1320 O.2       9 ALL1        0.0000 
     53 CA         24.3090   36.4065   13.9810 C.3       4 GLC5        0.0000 
     54 CA         23.5470   34.9630   15.0550 C.3      12 GLL5        0.0000 
     55 CA         25.0710   37.8500   12.9070 C.3       8 GLP5        0.0000 
     56 CA         24.4625   37.0850   15.1930 C.3       4 GLC5        0.0000 
     57 CA         23.3710   35.7850   16.1680 C.3      12 GLL5        0.0000 
     58 CA         25.5540   38.3850   14.2180 C.3       8 GLP5        0.0000 
     59 CA         23.3350   33.1710   19.1255 C.3       4 GLC5        0.0000 
     60 CA         22.5960   33.9030   17.4640 C.3      12 GLL5        0.0000 
     61 CA         24.0740   32.4390   20.7870 C.3       8 GLP5        0.0000 
     62 O          20.2295   32.1505   17.9855 O.2       1 ALC1        0.0000 
     63 O          20.0080   32.1810   16.4160 O.2       9 ALL1        0.0000 
     64 O          20.4510   32.1200   19.5550 O.2       5 ALP1        0.0000 
     65 CA         23.8305   39.0168   15.0411 C.3       4 GLC5        0.0000 
     66 CA         22.4070   40.0300   15.4940 C.3      12 GLL5        0.0000 
     67 CA         16.5470   25.8575    9.9352 C.3       4 GLC5        0.0000 
     68 CA         18.2120   27.4430    9.3870 C.3      12 GLL5        0.0000 
     69 CA         14.6970   24.8020   10.0700 C.3       8 GLP5        0.0000 
     70 CA         17.7885   30.7117   10.2655 C.3       4 GLC5        0.0000 
     71 CA         17.8450   28.6730    9.9420 C.3      12 GLL5        0.0000 
     72 CA         17.7320   32.6590    9.8990 C.3       8 GLP5        0.0000 
     73 CA         16.6129   28.9360    9.1971 C.3       4 GLC5        0.0000 
     74 CA         15.2890   29.4150    7.9010 C.3       8 GLP5        0.0000 
     75 CA         19.4374   29.6915    9.7641 C.3       4 GLC5        0.0000 
     76 CA         20.9380   30.9260    9.0350 C.3       8 GLP5        0.0000 
     77 CA         24.4510   34.0985   16.7965 C.3       4 GLC5        0.0000 
     78 CA         22.7440   33.0900   16.3530 C.3      12 GLL5        0.0000 
     79 CA         25.9210   34.8460   17.8450 C.3       8 GLP5        0.0000 
     80 CA         24.3283   33.7498   13.2040 C.3       4 GLC5        0.0000 
     81 CA         25.2740   33.2120   11.3090 C.3       8 GLP5        0.0000 
     82 CA         24.6900   35.1100   16.7282 C.3       4 GLC5        0.0000 
     83 CA         22.2384   35.6086   14.2207 C.3       4 GLC5        0.0000 
     84 CA         24.3352   34.7130   17.6327 C.3       4 GLC5        0.0000 
     85 CA         22.9030   35.2570   17.3770 C.3      12 GLL5        0.0000 
     86 CA         24.5078   32.3904   17.0167 C.3       4 GLC5        0.0000 
     87 CA         26.2700   31.3390   17.4190 C.3       8 GLP5        0.0000 
@<TRIPOS>BOND
@<TRIPOS>SUBSTRUCTURE
     1 ALC1        9 GROUP        1 X    ALC  0     ROOT ALC X 1
     2 SEC2        1 GROUP        1 X    SEC  0     **** SEC X 2
     3 ASC3       42 GROUP        1 X    ASC  0     **** ASC X 3
     4 GLC5        4 GROUP        1 X    GLC  0     **** GLC X 6
     5 ALP1       11 GROUP        1 Y    ALP  0     ROOT ALP Y 8
     6 SEP2        3 GROUP        1 Y    SEP  0     **** SEP Y 9
     7 ASP3       44 GROUP        1 Y    ASP  0     **** ASP Y 10
     8 GLP5        6 GROUP        1 Y    GLP  0     **** GLP Y 13
     9 ALL1       10 GROUP        1 Z    ALL  0     ROOT ALL Z 15
    10 SEL2        2 GROUP        1 Z    SEL  0     **** SEL Z 16
    11 ASL3       43 GROUP        1 Z    ASL  0     **** ASL Z 17
    12 GLL5        5 GROUP        1 Z    GLL  0     **** GLL Z 20
@<TRIPOS>SET

