#    Name: 3toh_079_1_ligand
#    Modification time : Mon Mar 24 20:28:21 2014

@<TRIPOS>MOLECULE
3toh_079_1_ligand
   79    81     1     0     0
SMALL
NO_CHARGES


@<TRIPOS>ATOM
      1 C1         19.2100   35.6760   18.1460 C.2       1 079100      0.0000 
      2 O1         18.7730   35.0850   19.1320 O.2       1 079100      0.0000 
      3 C2         19.9440   37.0030   18.3800 C.3       1 079100      0.0000 
      4 O2         20.2040   37.5810   17.0670 O.3       1 079100      0.0000 
      5 C3         21.2010   38.5050   16.9560 C.ar      1 079100      0.0000 
      6 C4         22.0180   38.8710   18.0230 C.ar      1 079100      0.0000 
      7 C5         23.0260   39.8210   17.8230 C.ar      1 079100      0.0000 
      8 C6         23.2150   40.3960   16.5650 C.ar      1 079100      0.0000 
      9 C7         22.4070   40.0300   15.4940 C.ar      1 079100      0.0000 
     10 C8         21.4030   39.0840   15.6990 C.ar      1 079100      0.0000 
     11 N1         19.0470   35.2270   16.8940 N.am      1 079100      0.0000 
     12 C9         18.3790   33.9620   16.5600 C.3       1 079100      0.0000 
     13 C13        19.3590   33.1280   15.7130 C.2       1 079100      0.0000 
     14 O3         19.5170   33.3570   14.5000 O.2       1 079100      0.0000 
     15 C10        17.0250   34.1520   15.8820 C.3       1 079100      0.0000 
     16 C11        16.3820   32.7730   15.6150 C.3       1 079100      0.0000 
     17 C12        16.1010   35.0110   16.7520 C.3       1 079100      0.0000 
     18 C27        18.5910   26.5620   11.5980 C.ar      1 079100      0.0000 
     19 C28        18.5820   26.3830   10.2140 C.ar      1 079100      0.0000 
     20 C29        18.2120   27.4430    9.3870 C.ar      1 079100      0.0000 
     21 C30        17.8450   28.6730    9.9420 C.ar      1 079100      0.0000 
     22 C31        17.8450   28.8560   11.3220 C.ar      1 079100      0.0000 
     23 C26        18.2460   27.7960   12.1400 C.ar      1 079100      0.0000 
     24 C25        18.2540   27.9370   13.6310 C.3       1 079100      0.0000 
     25 C24        19.6110   28.3030   14.2610 C.3       1 079100      0.0000 
     26 O5         20.8240   28.2120   13.4330 O.3       1 079100      0.0000 
     27 C23        19.5220   29.6770   14.8350 C.3       1 079100      0.0000 
     28 N3         18.2080   29.9140   15.4730 N.4       1 079100      0.0000 
     29 C22        20.6740   29.8770   15.7870 C.3       1 079100      0.0000 
     30 O4         20.4740   29.4140   17.1320 O.3       1 079100      0.0000 
     31 C14        21.0450   31.3410   15.7650 C.3       1 079100      0.0000 
     32 C15        22.4010   31.6090   16.4210 C.3       1 079100      0.0000 
     33 C16        22.7440   33.0900   16.3530 C.ar      1 079100      0.0000 
     34 C17        23.2180   33.6120   15.1430 C.ar      1 079100      0.0000 
     35 C18        23.5470   34.9630   15.0550 C.ar      1 079100      0.0000 
     36 C19        23.3710   35.7850   16.1680 C.ar      1 079100      0.0000 
     37 C20        22.9030   35.2570   17.3770 C.ar      1 079100      0.0000 
     38 C21        22.5960   33.9030   17.4640 C.ar      1 079100      0.0000 
     39 N2         20.0080   32.1810   16.4160 N.am      1 079100      0.0000 
     40 H          20.8626   36.7946   18.9086 H         1 079100      0.0000 
     41 H          19.3082   37.6428   18.9742 H         1 079100      0.0000 
     42 H          21.8849   38.4510   18.9456 H         1 079100      0.0000 
     43 H          23.6304   40.0962   18.6085 H         1 079100      0.0000 
     44 H          23.9592   41.0964   16.4315 H         1 079100      0.0000 
     45 H          22.5449   40.4456   14.5727 H         1 079100      0.0000 
     46 H          20.7966   38.8047   14.9092 H         1 079100      0.0000 
     47 H          19.3991   35.7736   16.0666 H         1 079100      0.0000 
     48 H          18.2193   33.3947   17.4933 H         1 079100      0.0000 
     49 H          17.1733   34.6445   14.9364 H         1 079100      0.0000 
     50 H          18.8521   25.7830   12.2137 H         1 079100      0.0000 
     51 H          18.8450   25.4806    9.8096 H         1 079100      0.0000 
     52 H          18.2084   27.3218    8.3665 H         1 079100      0.0000 
     53 H          17.5724   29.4496    9.3212 H         1 079100      0.0000 
     54 H          17.5590   29.7436   11.7300 H         1 079100      0.0000 
     55 H          17.9048   26.9893   14.0971 H         1 079100      0.0000 
     56 H          17.5151   28.7104   13.9364 H         1 079100      0.0000 
     57 H          19.7389   27.6221   15.1486 H         1 079100      0.0000 
     58 H          19.6522   30.3914   14.0073 H         1 079100      0.0000 
     59 H          21.5525   29.3463   15.3367 H         1 079100      0.0000 
     60 H          21.1300   31.6573   14.7123 H         1 079100      0.0000 
     61 H          23.1672   31.0352   15.9038 H         1 079100      0.0000 
     62 H          22.3626   31.2930   17.4614 H         1 079100      0.0000 
     63 H          23.3213   33.0004   14.3278 H         1 079100      0.0000 
     64 H          23.9145   35.3494   14.1819 H         1 079100      0.0000 
     65 H          23.5868   36.7903   16.1020 H         1 079100      0.0000 
     66 H          22.7885   35.8678   18.1913 H         1 079100      0.0000 
     67 H          22.2602   33.5096   18.3526 H         1 079100      0.0000 
     68 H          19.8299   31.9917   17.4070 H         1 079100      0.0000 
     69 H          16.9512   32.2071   15.0185 H         1 079100      0.0000 
     70 H          16.2419   32.2585   16.4610 H         1 079100      0.0000 
     71 H          15.4891   32.8589   15.1729 H         1 079100      0.0000 
     72 H          15.9363   34.5920   17.6449 H         1 079100      0.0000 
     73 H          16.4869   35.9180   16.9205 H         1 079100      0.0000 
     74 H          15.2080   35.1475   16.3231 H         1 079100      0.0000 
     75 H          17.9393   30.8759   15.4238 H         1 079100      0.0000 
     76 H          17.4816   29.3840   15.0353 H         1 079100      0.0000 
     77 H          18.2137   29.6605   16.4403 H         1 079100      0.0000 
     78 H          20.9286   27.2377   13.2336 H         1 079100      0.0000 
     79 H          19.5207   29.1135   17.1631 H         1 079100      0.0000 
@<TRIPOS>BOND
     1    2    1 2    
     2    3    1 1    
     3   11    1 am   
     4    4    3 1    
     5   40    3 1    
     6   41    3 1    
     7    5    4 1    
     8    6    5 ar   
     9   10    5 ar   
    10    7    6 ar   
    11   42    6 1    
    12    8    7 ar   
    13   43    7 1    
    14    9    8 ar   
    15   44    8 1    
    16   10    9 ar   
    17   45    9 1    
    18   46   10 1    
    19   12   11 1    
    20   47   11 1    
    21   13   12 1    
    22   15   12 1    
    23   48   12 1    
    24   14   13 2    
    25   39   13 am   
    26   16   15 1    
    27   17   15 1    
    28   49   15 1    
    29   69   16 1    
    30   70   16 1    
    31   71   16 1    
    32   72   17 1    
    33   73   17 1    
    34   74   17 1    
    35   19   18 ar   
    36   23   18 ar   
    37   50   18 1    
    38   20   19 ar   
    39   51   19 1    
    40   21   20 ar   
    41   52   20 1    
    42   22   21 ar   
    43   53   21 1    
    44   23   22 ar   
    45   54   22 1    
    46   24   23 1    
    47   25   24 1    
    48   55   24 1    
    49   56   24 1    
    50   26   25 1    
    51   27   25 1    
    52   57   25 1    
    53   78   26 1    
    54   28   27 1    
    55   29   27 1    
    56   58   27 1    
    57   75   28 1    
    58   76   28 1    
    59   77   28 1    
    60   30   29 1    
    61   31   29 1    
    62   59   29 1    
    63   79   30 1    
    64   32   31 1    
    65   39   31 1    
    66   60   31 1    
    67   33   32 1    
    68   61   32 1    
    69   62   32 1    
    70   34   33 ar   
    71   38   33 ar   
    72   35   34 ar   
    73   63   34 1    
    74   36   35 ar   
    75   64   35 1    
    76   37   36 ar   
    77   65   36 1    
    78   38   37 ar   
    79   66   37 1    
    80   67   38 1    
    81   68   39 1    
@<TRIPOS>SUBSTRUCTURE
     1 079100      1 GROUP   
@<TRIPOS>SET

