#    Name: 2O3U_1_CAVITY_N1_6.mol2
#    Modification time : Tue Mar 11 01:37:05 2014

@<TRIPOS>MOLECULE
2O3U_1_CAVITY_N1_6.mol2
  107     0     7     0     0
SMALL
NO_CHARGES


@<TRIPOS>ATOM
      1 N           2.5787    4.9656    3.9839 N.2       2 ALA2        0.0000 
      2 N           3.0615    5.4621    2.6533 N.2       2 ALA2        0.0000 
      3 CZ          2.9780    3.5695    3.6078 C.ar      5 PHE5        0.0000 
      4 CA          3.4607    4.0660    2.2773 C.3       6 GLY6        0.0000 
      5 CZ          2.8944    1.6769    4.5623 C.ar      5 PHE5        0.0000 
      6 CZ          3.3772    2.1734    3.2318 C.ar      5 PHE5        0.0000 
      7 CA          3.8600    2.6699    1.9012 C.3       6 GLY6        0.0000 
      8 CZ          2.8109   -0.2157    5.5168 C.ar      5 PHE5        0.0000 
      9 CZ          3.2937    0.2808    4.1862 C.ar      5 PHE5        0.0000 
     10 OG          3.7765    0.7772    2.8557 O.2       1 SER1        0.0000 
     11 OG          4.2593    1.2737    1.5251 O.2       1 SER1        0.0000 
     12 OD1         2.7274   -2.1083    6.4713 O.3       3 ASP3        0.0000 
     13 DU          3.2102   -1.6119    5.1407 H         7 CUB7        0.0000 
     14 DU          3.6930   -1.1154    3.8102 H         7 CUB7        0.0000 
     15 CA          4.1758   -0.6189    2.4796 C.3       6 GLY6        0.0000 
     16 CA          4.6585   -0.1224    1.1490 C.3       6 GLY6        0.0000 
     17 OD1         2.6439   -4.0010    7.4258 O.3       3 ASP3        0.0000 
     18 OD1         3.1267   -3.5045    6.0952 O.3       3 ASP3        0.0000 
     19 DU          3.6095   -3.0080    4.7647 H         7 CUB7        0.0000 
     20 O           4.0923   -2.5115    3.4341 O.2       2 ALA2        0.0000 
     21 CA          4.5750   -2.0150    2.1035 C.3       6 GLY6        0.0000 
     22 CA          3.0432   -5.3971    7.0497 C.3       6 GLY6        0.0000 
     23 O           3.5260   -4.9006    5.7192 O.2       2 ALA2        0.0000 
     24 O           4.0088   -4.4041    4.3886 O.2       2 ALA2        0.0000 
     25 N           3.9253   -6.2967    5.3431 N.2       2 ALA2        0.0000 
     26 O           4.4080   -5.8002    4.0125 O.2       2 ALA2        0.0000 
     27 N           1.6150    3.3364    3.0263 N.2       2 ALA2        0.0000 
     28 N           2.0978    3.8328    1.6958 N.2       2 ALA2        0.0000 
     29 N           2.5806    4.3293    0.3652 N.2       2 ALA2        0.0000 
     30 CZ          2.0143    1.9402    2.6503 C.ar      5 PHE5        0.0000 
     31 CA          2.4971    2.4367    1.3197 C.3       6 GLY6        0.0000 
     32 CA          2.9799    2.9332   -0.0109 C.3       6 GLY6        0.0000 
     33 CZ          1.9308    0.0476    3.6047 C.ar      5 PHE5        0.0000 
     34 CZ          2.4136    0.5441    2.2742 C.ar      5 PHE5        0.0000 
     35 OG          2.8964    1.0406    0.9436 O.2       1 SER1        0.0000 
     36 CZ          1.8473   -1.8450    4.5592 C.ar      5 PHE5        0.0000 
     37 CZ          2.3301   -1.3485    3.2287 C.ar      5 PHE5        0.0000 
     38 CZ          2.8129   -0.8520    1.8981 C.ar      5 PHE5        0.0000 
     39 OG          3.2956   -0.3555    0.5675 O.2       1 SER1        0.0000 
     40 NZ          1.7638   -3.7376    5.5137 N.2       4 LYS4        0.0000 
     41 CZ          2.2466   -3.2411    4.1832 C.ar      5 PHE5        0.0000 
     42 CZ          2.7294   -2.7446    2.8526 C.ar      5 PHE5        0.0000 
     43 O           2.1631   -5.1337    5.1377 O.2       2 ALA2        0.0000 
     44 CZ          2.6459   -4.6372    3.8071 C.ar      5 PHE5        0.0000 
     45 O           7.9468    4.0055    7.2644 O.2       2 ALA2        0.0000 
     46 O           8.9123    4.9985    4.6033 O.2       2 ALA2        0.0000 
     47 O           6.5839    3.7724    6.6829 O.2       2 ALA2        0.0000 
     48 O           7.0667    4.2689    5.3523 O.2       2 ALA2        0.0000 
     49 CA          7.5494    4.7654    4.0218 C.3       6 GLY6        0.0000 
     50 OG          7.9487    3.3693    3.6457 O.2       1 SER1        0.0000 
     51 CZ          0.2521    3.1032    2.4448 C.ar      5 PHE5        0.0000 
     52 N           0.7349    3.5997    1.1143 N.2       2 ALA2        0.0000 
     53 CZ          0.6514    1.7071    2.0688 C.ar      5 PHE5        0.0000 
     54 OG          1.1342    2.2036    0.7382 O.2       1 SER1        0.0000 
     55 OG          1.6170    2.7001   -0.5924 O.2       1 SER1        0.0000 
     56 CZ          0.5679   -0.1855    3.0232 C.ar      5 PHE5        0.0000 
     57 NZ          1.0507    0.3110    1.6927 N.2       4 LYS4        0.0000 
     58 OG          1.5335    0.8075    0.3621 O.2       1 SER1        0.0000 
     59 NZ          0.4844   -2.0781    3.9777 N.2       4 LYS4        0.0000 
     60 NZ          0.9672   -1.5816    2.6472 N.2       4 LYS4        0.0000 
     61 CZ          1.4500   -1.0851    1.3166 C.ar      5 PHE5        0.0000 
     62 NZ          0.8837   -3.4742    3.6017 N.2       4 LYS4        0.0000 
     63 O          -1.1108    2.8701    1.8633 O.2       2 ALA2        0.0000 
     64 N          -0.6280    3.3666    0.5328 N.2       2 ALA2        0.0000 
     65 NZ         -0.7115    1.4740    1.4873 N.2       4 LYS4        0.0000 
     66 CA         -0.2287    1.9705    0.1567 C.3       6 GLY6        0.0000 
     67 O          -2.4737    2.6370    1.2818 O.2       2 ALA2        0.0000 
     68 O          -1.9909    3.1334   -0.0487 O.2       2 ALA2        0.0000 
     69 NZ         -2.0744    1.2408    0.9058 N.2       4 LYS4        0.0000 
     70 CA         -1.5916    1.7373   -0.4248 C.3       6 GLY6        0.0000 
     71 O           5.3045    5.4319    5.1469 O.2       2 ALA2        0.0000 
     72 CA          4.7382    3.0428    7.4320 C.3       6 GLY6        0.0000 
     73 O           5.2210    3.5393    6.1014 O.2       2 ALA2        0.0000 
     74 O           5.7038    4.0357    4.7708 O.2       2 ALA2        0.0000 
     75 DU          5.6203    2.1431    5.7253 H         7 CUB7        0.0000 
     76 OG          6.1030    2.6396    4.3948 O.2       1 SER1        0.0000 
     77 DU          6.0195    0.7470    5.3493 H         7 CUB7        0.0000 
     78 OG          6.9016   -0.1526    3.6426 O.2       1 SER1        0.0000 
     79 OG          7.3844    0.3439    2.3120 O.2       1 SER1        0.0000 
     80 DU          7.3008   -1.5487    3.2665 H         7 CUB7        0.0000 
     81 DU          6.7346   -3.9378    5.5516 H         7 CUB7        0.0000 
     82 DU          6.6511   -5.8304    6.5061 H         7 CUB7        0.0000 
     83 CA          7.1338   -5.3339    5.1755 C.3       6 GLY6        0.0000 
     84 OG          7.0503   -7.2266    6.1300 O.2       1 SER1        0.0000 
     85 CA          7.5331   -6.7301    4.7994 C.3       6 GLY6        0.0000 
     86 OG          3.9416    5.1987    4.5654 O.2       1 SER1        0.0000 
     87 OG          4.4244    5.6952    3.2348 O.2       1 SER1        0.0000 
     88 CZ          3.8581    3.3061    5.5199 C.ar      5 PHE5        0.0000 
     89 DU          4.3409    3.8026    4.1893 H         7 CUB7        0.0000 
     90 O           4.8236    4.2991    2.8588 O.2       2 ALA2        0.0000 
     91 CZ          3.7746    1.4135    6.4744 C.ar      5 PHE5        0.0000 
     92 CZ          4.2573    1.9100    5.1438 C.ar      5 PHE5        0.0000 
     93 OG          4.7401    2.4065    3.8133 O.2       1 SER1        0.0000 
     94 DU          4.1738    0.0174    6.0983 H         7 CUB7        0.0000 
     95 DU          4.6566    0.5139    4.7677 H         7 CUB7        0.0000 
     96 OG          5.1394    1.0104    3.4372 O.2       1 SER1        0.0000 
     97 OG          5.5387   -0.3857    3.0611 O.2       1 SER1        0.0000 
     98 OG          6.0215    0.1107    1.7305 O.2       1 SER1        0.0000 
     99 DU          4.4896   -3.2713    6.6767 H         7 CUB7        0.0000 
    100 DU          4.9724   -2.7748    5.3462 H         7 CUB7        0.0000 
    101 CA          5.4552   -2.2783    4.0156 C.3       6 GLY6        0.0000 
    102 CA          5.9379   -1.7819    2.6850 C.3       6 GLY6        0.0000 
    103 CA          6.4207   -1.2854    1.3544 C.3       6 GLY6        0.0000 
    104 DU          4.8889   -4.6674    6.3007 H         7 CUB7        0.0000 
    105 O           5.3717   -4.1710    4.9701 O.2       2 ALA2        0.0000 
    106 N           5.2882   -6.0636    5.9246 N.2       2 ALA2        0.0000 
    107 CA          5.7709   -5.5671    4.5940 C.3       6 GLY6        0.0000 
@<TRIPOS>BOND
@<TRIPOS>SUBSTRUCTURE
     1 SER1       10 GROUP   
     2 ALA2        1 GROUP   
     3 ASP3       12 GROUP   
     4 LYS4       40 GROUP   
     5 PHE5        3 GROUP   
     6 GLY6        4 GROUP   
     7 CUB7       13 GROUP   
@<TRIPOS>SET

