#    Name: 2o3u_NGD_1_INTS_M
#    Modification time : Tue Mar 25 21:58:08 2014

@<TRIPOS>MOLECULE
2o3u_NGD_1_INTS_M
   69     0    12     0     0
SMALL
NO_CHARGES


@<TRIPOS>ATOM
      1 N          11.5950   -1.8155    0.7335 N.am      2 SEC2        0.0000 
      2 N          11.5460   -0.1500    0.6910 N.am     10 SEL2        0.0000 
      3 N          11.6440   -3.4810    0.7760 N.am      6 SEP2        0.0000 
      4 CA         12.0570   -1.4785    2.6305 C.3       4 GLC5        0.0000 
      5 CA         10.0760   -0.6750    2.3920 C.3      12 GLL5        0.0000 
      6 CA         14.0380   -2.2820    2.8690 C.3       8 GLP5        0.0000 
      7 CA         10.7605   -2.1560    0.8890 C.3       4 GLC5        0.0000 
      8 CA         11.4450   -3.6370   -0.6140 C.3       8 GLP5        0.0000 
      9 N          10.8430   -2.7480    1.6140 N.am      2 SEC2        0.0000 
     10 N          10.0420   -2.0150    2.4520 N.am     10 SEL2        0.0000 
     11 O          10.1360    4.9415    2.5960 O.2       1 ALC1        0.0000 
     12 O           9.5580    3.3540    2.9560 O.2       9 ALL1        0.0000 
     13 O          10.7140    6.5290    2.2360 O.2       5 ALP1        0.0000 
     14 CA          2.4610    0.9600    5.7255 C.3       4 GLC5        0.0000 
     15 CA          4.5710    0.5730    5.9430 C.3      12 GLL5        0.0000 
     16 CA          0.3510    1.3470    5.5080 C.3       8 GLP5        0.0000 
     17 N           2.9500    4.6060    7.4735 N.am      2 SEC2        0.0000 
     18 N           3.7140    3.2870    7.3640 N.am     10 SEL2        0.0000 
     19 N           2.1860    5.9250    7.5830 N.am      6 SEP2        0.0000 
     20 NZ          6.3525    5.1095    6.8490 N.4       3 LYC4        0.0000 
     21 NZ          6.1040    3.8300    6.4710 N.4      11 LYL4        0.0000 
     22 NZ          7.7690    7.0400    7.2510 N.4       7 LYP4        0.0000 
     23 N           6.3525    5.1095    6.8490 N.am      2 SEC2        0.0000 
     24 N           6.1040    3.8300    6.4710 N.am     10 SEL2        0.0000 
     25 N           6.6010    6.3890    7.2270 N.am      6 SEP2        0.0000 
     26 N           3.8235    6.7865    3.9795 N.am      2 SEC2        0.0000 
     27 N           4.0690    5.6910    3.1470 N.am     10 SEL2        0.0000 
     28 N           3.5780    7.8820    4.8120 N.am      6 SEP2        0.0000 
     29 N           4.3245    6.0840    1.7655 N.am      2 SEC2        0.0000 
     30 N           4.5800    6.4770    0.3840 N.am      6 SEP2        0.0000 
     31 N           6.4290    4.6000    2.3620 N.am      2 SEC2        0.0000 
     32 N           5.9310    3.8530    3.4630 N.am     10 SEL2        0.0000 
     33 N           6.9270    5.3470    1.2610 N.am      6 SEP2        0.0000 
     34 N           6.2925    3.2345    2.1200 N.am      2 SEC2        0.0000 
     35 N           6.6540    2.6160    0.7770 N.am      6 SEP2        0.0000 
     36 CA          1.3785    2.9970    4.4620 C.3       4 GLC5        0.0000 
     37 CA          2.1340    3.3700    2.8760 C.3      12 GLL5        0.0000 
     38 CA          0.6230    2.6240    6.0480 C.3       8 GLP5        0.0000 
     39 CA          3.6025    3.6400    0.8480 C.3       4 GLC5        0.0000 
     40 CA          1.4830    3.7860    1.5540 C.3      12 GLL5        0.0000 
     41 CA          5.7220    3.4940    0.1420 C.3       8 GLP5        0.0000 
     42 CA          2.1215    5.9220    1.3110 C.3       4 GLC5        0.0000 
     43 CA          2.7600    8.0580    1.0680 C.3       8 GLP5        0.0000 
     44 N          -1.5440    5.3345    1.5975 N.am      2 SEC2        0.0000 
     45 N          -0.7520    4.3590    0.6940 N.am     10 SEL2        0.0000 
     46 N          -2.3360    6.3100    2.5010 N.am      6 SEP2        0.0000 
     47 O          -0.0700    4.9840   -0.3080 O.2       1 ALC1        0.0000 
     48 O          -0.7520    4.3590    0.6940 O.2       9 ALL1        0.0000 
     49 O           0.6120    5.6090   -1.3100 O.2       5 ALP1        0.0000 
     50 CA          1.9085    1.6415   -1.4330 C.3       4 GLC5        0.0000 
     51 CA          1.2010    1.7010    0.5140 C.3      12 GLL5        0.0000 
     52 CA          2.6160    1.5820   -3.3800 C.3       8 GLP5        0.0000 
     53 CA          4.3485    1.8000   -0.1060 C.3       4 GLC5        0.0000 
     54 CA          3.3840    0.6960    1.0240 C.3      12 GLL5        0.0000 
     55 CA          5.3130    2.9040   -1.2360 C.3       8 GLP5        0.0000 
     56 CA          4.9835    1.6445    0.9040 C.3       4 GLC5        0.0000 
     57 CA          4.2450   -0.2050    1.6660 C.3      12 GLL5        0.0000 
     58 O          -0.6800   -1.8125    2.8860 O.2       1 ALC1        0.0000 
     59 O           0.3890   -2.3920    3.6510 O.2       9 ALL1        0.0000 
     60 O          -1.7490   -1.2330    2.1210 O.2       5 ALP1        0.0000 
     61 O          -0.1960   -3.5020    4.4535 O.2       1 ALC1        0.0000 
     62 O          -0.7810   -4.6120    5.2560 O.2       5 ALP1        0.0000 
     63 CA         -0.8578    2.4718    2.9930 C.3       4 GLC5        0.0000 
     64 CA         -0.1100    2.0430    1.2340 C.3      12 GLL5        0.0000 
     65 CA         -1.6580    2.1680    4.5670 C.3       8 GLP5        0.0000 
     66 CA         -0.0992    0.5475   -0.5500 C.3       4 GLC5        0.0000 
     67 CA         -0.7440   -0.7770   -1.9740 C.3       8 GLP5        0.0000 
     68 CA          4.4806   -1.5839    0.5737 C.3       4 GLC5        0.0000 
     69 CA          5.2280   -2.7130   -0.7780 C.3       8 GLP5        0.0000 
@<TRIPOS>BOND
@<TRIPOS>SUBSTRUCTURE
     1 ALC1       11 GROUP        1 X    ALC  0     ROOT ALC X 1
     2 SEC2        1 GROUP        1 X    SEC  0     **** SEC X 2
     3 LYC4       20 GROUP        1 X    LYC  0     **** LYC X 4
     4 GLC5        4 GROUP        1 X    GLC  0     **** GLC X 6
     5 ALP1       13 GROUP        1 Y    ALP  0     ROOT ALP Y 8
     6 SEP2        3 GROUP        1 Y    SEP  0     **** SEP Y 9
     7 LYP4       22 GROUP        1 Y    LYP  0     **** LYP Y 11
     8 GLP5        6 GROUP        1 Y    GLP  0     **** GLP Y 13
     9 ALL1       12 GROUP        1 Z    ALL  0     ROOT ALL Z 15
    10 SEL2        2 GROUP        1 Z    SEL  0     **** SEL Z 16
    11 LYL4       21 GROUP        1 Z    LYL  0     **** LYL Z 18
    12 GLL5        5 GROUP        1 Z    GLL  0     **** GLL Z 20
@<TRIPOS>SET

