#    Name: 2o3u_NGD_1_ligand
#    Modification time : Tue Mar 25 21:58:08 2014

@<TRIPOS>MOLECULE
2o3u_NGD_1_ligand
   71    75     1     0     0
SMALL
NO_CHARGES


@<TRIPOS>ATOM
      1 O6A        11.5460   -0.1500    0.6910 O.2       1 NGD301      0.0000 
      2 C6A        10.7600    0.2370    1.5890 C.2       1 NGD301      0.0000 
      3 C5A        10.0760   -0.6750    2.3920 C.2       1 NGD301      0.0000 
      4 N7A        10.0420   -2.0150    2.4520 N.2       1 NGD301      0.0000 
      5 C8A         9.1950   -2.3690    3.4330 C.2       1 NGD301      0.0000 
      6 N9A         8.6890   -1.2540    3.9990 N.pl3     1 NGD301      0.0000 
      7 C4A         9.2220   -0.1950    3.3780 C.2       1 NGD301      0.0000 
      8 N3A         9.0680    1.1440    3.5450 N.2       1 NGD301      0.0000 
      9 C2A         9.7300    2.0170    2.7630 C.2       1 NGD301      0.0000 
     10 N2A         9.5580    3.3540    2.9560 N.pl3     1 NGD301      0.0000 
     11 N1A        10.5660    1.5620    1.7930 N.am      1 NGD301      0.0000 
     12 C1'         7.7040   -1.2440    5.1210 C.3       1 NGD301      0.0000 
     13 O4'         6.3860   -0.7970    4.7550 O.3       1 NGD301      0.0000 
     14 C2'         8.0830   -0.2840    6.2320 C.3       1 NGD301      0.0000 
     15 O2'         9.1800   -0.7850    7.0030 O.3       1 NGD301      0.0000 
     16 C3'         6.7880   -0.2360    7.0080 C.3       1 NGD301      0.0000 
     17 O3'         6.7890   -1.3260    7.9200 O.3       1 NGD301      0.0000 
     18 C4'         5.6910   -0.5110    5.9810 C.3       1 NGD301      0.0000 
     19 C5'         4.5710    0.5730    5.9430 C.3       1 NGD301      0.0000 
     20 O5'         4.9170    1.8770    5.4630 O.3       1 NGD301      0.0000 
     21 PA          4.7050    3.2940    6.2530 P.3       1 NGD301      0.0000 
     22 O1A         3.7140    3.2870    7.3640 O.co2     1 NGD301      0.0000 
     23 O2A         6.1040    3.8300    6.4710 O.co2     1 NGD301      0.0000 
     24 O3          3.9850    4.1890    5.1100 O.3       1 NGD301      0.0000 
     25 PB          4.4950    4.3020    3.5720 P.3       1 NGD301      0.0000 
     26 O1B         4.0690    5.6910    3.1470 O.co2     1 NGD301      0.0000 
     27 O2B         5.9310    3.8530    3.4630 O.co2     1 NGD301      0.0000 
     28 O5'R        3.5610    3.2520    2.7800 O.3       1 NGD301      0.0000 
     29 C5'R        2.1340    3.3700    2.8760 C.3       1 NGD301      0.0000 
     30 C4'R        1.4830    3.7860    1.5540 C.3       1 NGD301      0.0000 
     31 C3'R       -0.0050    3.5080    1.6040 C.3       1 NGD301      0.0000 
     32 O3'R       -0.7520    4.3590    0.6940 O.3       1 NGD301      0.0000 
     33 C2'R       -0.1100    2.0430    1.2340 C.3       1 NGD301      0.0000 
     34 O2'R       -1.2330    1.9080    0.3780 O.3       1 NGD301      0.0000 
     35 O4'R        1.9410    2.9320    0.5050 O.3       1 NGD301      0.0000 
     36 C1'R        1.2010    1.7010    0.5140 C.3       1 NGD301      0.0000 
     37 N1          2.0340    0.6960    1.2150 N.pl3     1 NGD301      0.0000 
     38 C6          3.3840    0.6960    1.0240 C.ar      1 NGD301      0.0000 
     39 C5          4.2450   -0.2050    1.6660 C.ar      1 NGD301      0.0000 
     40 C4          3.6520   -1.1550    2.5060 C.ar      1 NGD301      0.0000 
     41 C2          1.4590   -0.2200    2.0210 C.ar      1 NGD301      0.0000 
     42 C3          2.2530   -1.1630    2.6810 C.ar      1 NGD301      0.0000 
     43 C7          1.6340   -2.1720    3.5910 C.2       1 NGD301      0.0000 
     44 N7          0.3890   -2.3920    3.6510 N.am      1 NGD301      0.0000 
     45 O7          2.4390   -2.8460    4.3820 O.2       1 NGD301      0.0000 
     46 H           8.9800   -3.2785    3.6944 H         1 NGD301      0.0000 
     47 H          10.0355    3.9560    2.3160 H         1 NGD301      0.0000 
     48 H           8.9693    3.6160    3.7207 H         1 NGD301      0.0000 
     49 H          11.0725    2.2553    1.1885 H         1 NGD301      0.0000 
     50 H           7.6352   -2.2310    5.5745 H         1 NGD301      0.0000 
     51 H           8.2496    0.6666    5.7975 H         1 NGD301      0.0000 
     52 H           6.6495    0.6876    7.4382 H         1 NGD301      0.0000 
     53 H           5.2061   -1.4655    6.3347 H         1 NGD301      0.0000 
     54 H           4.1493    0.6247    6.9882 H         1 NGD301      0.0000 
     55 H           3.7266    0.1301    5.3399 H         1 NGD301      0.0000 
     56 H           1.8428    4.1177    3.6397 H         1 NGD301      0.0000 
     57 H           1.6714    2.4129    3.1876 H         1 NGD301      0.0000 
     58 H           1.6489    4.7940    1.3553 H         1 NGD301      0.0000 
     59 H          -0.3271    3.6157    2.6220 H         1 NGD301      0.0000 
     60 H          -0.1797    1.4753    2.1190 H         1 NGD301      0.0000 
     61 H           0.9803    1.3980   -0.4791 H         1 NGD301      0.0000 
     62 H           3.8143    1.3972    0.3687 H         1 NGD301      0.0000 
     63 H           5.2374   -0.1699    1.5295 H         1 NGD301      0.0000 
     64 H           4.2290   -1.8443    2.9941 H         1 NGD301      0.0000 
     65 H           0.4361   -0.2434    2.1651 H         1 NGD301      0.0000 
     66 H          -0.1828   -1.8575    3.0286 H         1 NGD301      0.0000 
     67 H           0.0951   -3.0794    4.3151 H         1 NGD301      0.0000 
     68 H           9.8209   -0.0202    7.0683 H         1 NGD301      0.0000 
     69 H           7.7199   -1.6897    7.8874 H         1 NGD301      0.0000 
     70 H          -0.0782    4.6806    0.0287 H         1 NGD301      0.0000 
     71 H          -1.4590    2.8412    0.0987 H         1 NGD301      0.0000 
@<TRIPOS>BOND
     1    2    1 2    
     2    3    2 1    
     3   11    2 am   
     4    4    3 1    
     5    7    3 2    
     6    5    4 2    
     7    6    5 1    
     8   46    5 1    
     9    7    6 1    
    10   12    6 1    
    11    8    7 1    
    12    9    8 2    
    13   10    9 1    
    14   11    9 1    
    15   47   10 1    
    16   48   10 1    
    17   49   11 1    
    18   13   12 1    
    19   14   12 1    
    20   50   12 1    
    21   18   13 1    
    22   15   14 1    
    23   16   14 1    
    24   51   14 1    
    25   68   15 1    
    26   17   16 1    
    27   18   16 1    
    28   52   16 1    
    29   69   17 1    
    30   19   18 1    
    31   53   18 1    
    32   20   19 1    
    33   54   19 1    
    34   55   19 1    
    35   21   20 1    
    36   22   21 ar   
    37   23   21 ar   
    38   24   21 1    
    39   25   24 1    
    40   26   25 ar   
    41   27   25 ar   
    42   28   25 1    
    43   29   28 1    
    44   30   29 1    
    45   56   29 1    
    46   57   29 1    
    47   31   30 1    
    48   35   30 1    
    49   58   30 1    
    50   32   31 1    
    51   33   31 1    
    52   59   31 1    
    53   70   32 1    
    54   34   33 1    
    55   36   33 1    
    56   60   33 1    
    57   71   34 1    
    58   36   35 1    
    59   37   36 1    
    60   61   36 1    
    61   38   37 ar   
    62   41   37 ar   
    63   39   38 ar   
    64   62   38 1    
    65   40   39 ar   
    66   63   39 1    
    67   42   40 ar   
    68   64   40 1    
    69   42   41 ar   
    70   65   41 1    
    71   43   42 1    
    72   44   43 am   
    73   45   43 2    
    74   66   44 1    
    75   67   44 1    
@<TRIPOS>SUBSTRUCTURE
     1 NGD301      1 GROUP   
@<TRIPOS>SET

