#    Name: 4nbj_D3Y_4_INTS_M
#    Modification time : Tue Mar 25 12:54:58 2014

@<TRIPOS>MOLECULE
4nbj_D3Y_4_INTS_M
   64     0     9     0     0
SMALL
NO_CHARGES


@<TRIPOS>ATOM
      1 CA         77.6315    8.7665    8.3440 C.3       3 GLC5        0.0000 
      2 CA         78.4880    6.9000    8.7330 C.3       9 GLL5        0.0000 
      3 CA         76.7750   10.6330    7.9550 C.3       6 GLP5        0.0000 
      4 CA         77.7705    2.5645   12.4280 C.3       3 GLC5        0.0000 
      5 CA         77.2780    4.0820   11.0560 C.3       9 GLL5        0.0000 
      6 CA         78.2630    1.0470   13.8000 C.3       6 GLP5        0.0000 
      7 O          75.3815    7.0875   11.3250 O.2       1 ALC1        0.0000 
      8 O          75.3070    5.6370   10.7680 O.2       7 ALL1        0.0000 
      9 O          75.4560    8.5380   11.8820 O.2       4 ALP1        0.0000 
     10 N          74.8165    2.7830   13.1400 N.am      2 SEC2        0.0000 
     11 N          74.8810    2.1760   11.7360 N.am      8 SEL2        0.0000 
     12 N          74.7520    3.3900   14.5440 N.am      5 SEP2        0.0000 
     13 N          74.3080    0.8775   12.1725 N.am      2 SEC2        0.0000 
     14 N          73.7350   -0.4210   12.6090 N.am      5 SEP2        0.0000 
     15 N          71.1890    4.0955    8.0410 N.am      2 SEC2        0.0000 
     16 N          71.6750    3.4260    9.4220 N.am      8 SEL2        0.0000 
     17 N          70.7030    4.7650    6.6600 N.am      5 SEP2        0.0000 
     18 CA         76.1225    1.2755    8.2990 C.3       3 GLC5        0.0000 
     19 CA         75.0720    1.9400    6.8390 C.3       9 GLL5        0.0000 
     20 CA         77.1730    0.6110    9.7590 C.3       6 GLP5        0.0000 
     21 CA         70.2480    0.6605    7.4330 C.3       3 GLC5        0.0000 
     22 CA         71.7140    1.3950    8.1260 C.3       9 GLL5        0.0000 
     23 CA         68.7820   -0.0740    6.7400 C.3       6 GLP5        0.0000 
     24 CA         70.0580    0.7800   10.2820 C.3       3 GLC5        0.0000 
     25 CA         71.2790   -0.8110    9.2930 C.3       9 GLL5        0.0000 
     26 CA         68.8370    2.3710   11.2710 C.3       6 GLP5        0.0000 
     27 CA         70.2390   -2.3655   13.1990 C.3       3 GLC5        0.0000 
     28 CA         70.2710   -1.4850   11.2970 C.3       9 GLL5        0.0000 
     29 CA         70.2070   -3.2460   15.1010 C.3       6 GLP5        0.0000 
     30 CA         68.5725   -2.8435   11.5795 C.3       3 GLC5        0.0000 
     31 CA         66.8740   -4.2020   11.8620 C.3       6 GLP5        0.0000 
     32 CA         69.5540    0.4430   11.2840 C.3       3 GLC5        0.0000 
     33 CA         71.3430   -0.1775   12.6200 C.3       3 GLC5        0.0000 
     34 CA         72.4150    1.1300   13.9430 C.3       6 GLP5        0.0000 
     35 CA         72.2945   -1.6130   11.8460 C.3       3 GLC5        0.0000 
     36 CA         74.3180   -1.7410   12.3950 C.3       6 GLP5        0.0000 
     37 N          69.9270   -3.7005   12.1820 N.am      2 SEC2        0.0000 
     38 N          70.5220   -2.7720   11.0590 N.am      8 SEL2        0.0000 
     39 N          69.3320   -4.6290   13.3050 N.am      5 SEP2        0.0000 
     40 CA         69.4755   -4.2515   10.7135 C.3       3 GLC5        0.0000 
     41 CA         71.1560   -3.1280    9.9140 C.3       9 GLL5        0.0000 
     42 CA         67.7950   -5.3750   11.5130 C.3       6 GLP5        0.0000 
     43 O          71.6520   -5.1480    8.3255 O.2       1 ALC1        0.0000 
     44 O          71.4140   -4.4080    9.6590 O.2       7 ALL1        0.0000 
     45 O          71.8900   -5.8880    6.9920 O.2       4 ALP1        0.0000 
     46 O          70.9735   -5.5365   10.5900 O.2       1 ALC1        0.0000 
     47 O          70.5330   -6.6650   11.5210 O.2       4 ALP1        0.0000 
     48 CA         79.9320    5.6490   12.6227 C.3       3 GLC5        0.0000 
     49 CA         79.4060    5.4190   10.9060 C.3       9 GLL5        0.0000 
     50 CA         80.0430    5.3890   14.6180 C.3       6 GLP5        0.0000 
     51 CA         76.8570    2.4240   10.4960 C.3       3 GLC5        0.0000 
     52 CA         70.4162    2.0640   10.0083 C.3       3 GLC5        0.0000 
     53 CA         72.2770    2.1190    9.3650 C.3       9 GLL5        0.0000 
     54 CA         71.9158    3.2135    7.2418 C.3       3 GLC5        0.0000 
     55 CA         71.8360    4.6700    5.7380 C.3       6 GLP5        0.0000 
     56 CA         74.7118    1.1379    9.3030 C.3       3 GLC5        0.0000 
     57 CA         73.8030    2.4090    7.5510 C.3       9 GLL5        0.0000 
     58 CA         76.0040    0.0120   10.2270 C.3       6 GLP5        0.0000 
     59 CA         73.1368    3.4223    6.4665 C.3       3 GLC5        0.0000 
     60 CA         69.9170   -3.3045    8.2680 C.3       3 GLC5        0.0000 
     61 CA         71.5440   -2.1340    8.9960 C.3       9 GLL5        0.0000 
     62 CA         68.4840   -3.9780    7.0810 C.3       6 GLP5        0.0000 
     63 CA         72.9599   -2.1476   10.2136 C.3       3 GLC5        0.0000 
     64 CA         74.6360   -1.9950   10.8980 C.3       6 GLP5        0.0000 
@<TRIPOS>BOND
@<TRIPOS>SUBSTRUCTURE
     1 ALC1        7 GROUP        1 X    ALC  0     ROOT ALC X 1
     2 SEC2       10 GROUP        1 X    SEC  0     **** SEC X 2
     3 GLC5        1 GROUP        1 X    GLC  0     **** GLC X 6
     4 ALP1        9 GROUP        1 Y    ALP  0     ROOT ALP Y 8
     5 SEP2       12 GROUP        1 Y    SEP  0     **** SEP Y 9
     6 GLP5        3 GROUP        1 Y    GLP  0     **** GLP Y 13
     7 ALL1        8 GROUP        1 Z    ALL  0     ROOT ALL Z 15
     8 SEL2       11 GROUP        1 Z    SEL  0     **** SEL Z 16
     9 GLL5        2 GROUP        1 Z    GLL  0     **** GLL Z 20
@<TRIPOS>SET

