#    Name: 4nbj_D3Y_4_ligand
#    Modification time : Tue Mar 25 12:54:58 2014

@<TRIPOS>MOLECULE
4nbj_D3Y_4_ligand
   55    58     1     0     0
SMALL
NO_CHARGES


@<TRIPOS>ATOM
      1 CD1        79.4060    5.4190   10.9060 C.ar      1 D3Y201      0.0000 
      2 CE1        80.2360    6.3990   10.3490 C.ar      1 D3Y201      0.0000 
      3 CZ         79.7710    7.1380    9.2580 C.ar      1 D3Y201      0.0000 
      4 OH         80.5730    8.0910    8.7050 O.3       1 D3Y201      0.0000 
      5 CE2        78.4880    6.9000    8.7330 C.ar      1 D3Y201      0.0000 
      6 CD2        77.6580    5.9210    9.2950 C.ar      1 D3Y201      0.0000 
      7 CG         78.1180    5.1840   10.3950 C.ar      1 D3Y201      0.0000 
      8 CB         77.2780    4.0820   11.0560 C.3       1 D3Y201      0.0000 
      9 CA         75.8040    4.3920   11.4100 C.3       1 D3Y201      0.0000 
     10 N          75.3070    5.6370   10.7680 N.4       1 D3Y201      0.0000 
     11 C          74.9960    3.1450   10.9760 C.2       1 D3Y201      0.0000 
     12 O          74.8810    2.1760   11.7360 O.2       1 D3Y201      0.0000 
     13 N8         74.5460    3.1830    9.7110 N.am      1 D3Y201      0.0000 
     14 C3'        73.7950    2.1180    9.0490 C.3       1 D3Y201      0.0000 
     15 C2'        72.2770    2.1190    9.3650 C.3       1 D3Y201      0.0000 
     16 O2'        71.6750    3.4260    9.4220 O.3       1 D3Y201      0.0000 
     17 C4'        73.8030    2.4090    7.5510 C.3       1 D3Y201      0.0000 
     18 C5'        75.0720    1.9400    6.8390 C.3       1 D3Y201      0.0000 
     19 O5'        74.7840    0.6530    6.2840 O.3       1 D3Y201      0.0000 
     20 O4'        72.6130    1.7100    7.0210 O.3       1 D3Y201      0.0000 
     21 C1'        71.7140    1.3950    8.1260 C.3       1 D3Y201      0.0000 
     22 N9         71.7690   -0.0860    8.2850 N.pl3     1 D3Y201      0.0000 
     23 C8         72.3220   -0.9140    7.3920 C.2       1 D3Y201      0.0000 
     24 N7         72.1860   -2.1550    7.8290 N.2       1 D3Y201      0.0000 
     25 C5         71.5440   -2.1340    8.9960 C.ar      1 D3Y201      0.0000 
     26 C4         71.2790   -0.8110    9.2930 C.ar      1 D3Y201      0.0000 
     27 N3         70.6450   -0.5200   10.4450 N.ar      1 D3Y201      0.0000 
     28 C2         70.2710   -1.4850   11.2970 C.ar      1 D3Y201      0.0000 
     29 N1         70.5220   -2.7720   11.0590 N.ar      1 D3Y201      0.0000 
     30 C6         71.1560   -3.1280    9.9140 C.ar      1 D3Y201      0.0000 
     31 N6         71.4140   -4.4080    9.6590 N.pl3     1 D3Y201      0.0000 
     32 H          79.7428    4.8590   11.7043 H         1 D3Y201      0.0000 
     33 H          81.1631    6.5697   10.7333 H         1 D3Y201      0.0000 
     34 H          78.1585    7.4505    7.9298 H         1 D3Y201      0.0000 
     35 H          76.7312    5.7467    8.9090 H         1 D3Y201      0.0000 
     36 H          77.7972    3.7533   11.9922 H         1 D3Y201      0.0000 
     37 H          77.2925    3.1791   10.3936 H         1 D3Y201      0.0000 
     38 H          75.7382    4.4558   12.4879 H         1 D3Y201      0.0000 
     39 H          74.7271    4.0371    9.1035 H         1 D3Y201      0.0000 
     40 H          74.1803    1.1604    9.2010 H         1 D3Y201      0.0000 
     41 H          72.0991    1.5100   10.1955 H         1 D3Y201      0.0000 
     42 H          73.6766    3.4691    7.4123 H         1 D3Y201      0.0000 
     43 H          75.8711    1.8980    7.5700 H         1 D3Y201      0.0000 
     44 H          75.3159    2.6676    6.0736 H         1 D3Y201      0.0000 
     45 H          70.7425    1.7256    7.9289 H         1 D3Y201      0.0000 
     46 H          72.7509   -0.6404    6.5615 H         1 D3Y201      0.0000 
     47 H          69.7610   -1.2130   12.1849 H         1 D3Y201      0.0000 
     48 H          71.0770   -5.0672   10.3312 H         1 D3Y201      0.0000 
     49 H          71.9217   -4.5955    8.8181 H         1 D3Y201      0.0000 
     50 H          75.8402    6.4362   11.0453 H         1 D3Y201      0.0000 
     51 H          75.3543    5.5849    9.7705 H         1 D3Y201      0.0000 
     52 H          74.3540    5.8232   11.0070 H         1 D3Y201      0.0000 
     53 H          81.1926    7.5892    8.1014 H         1 D3Y201      0.0000 
     54 H          72.2878    3.9682    9.9970 H         1 D3Y201      0.0000 
     55 H          73.8158    0.6888    6.0364 H         1 D3Y201      0.0000 
@<TRIPOS>BOND
     1    2    1 ar   
     2    7    1 ar   
     3   32    1 1    
     4    3    2 ar   
     5   33    2 1    
     6    4    3 1    
     7    5    3 ar   
     8   53    4 1    
     9    6    5 ar   
    10   34    5 1    
    11    7    6 ar   
    12   35    6 1    
    13    8    7 1    
    14    9    8 1    
    15   36    8 1    
    16   37    8 1    
    17   10    9 1    
    18   11    9 1    
    19   38    9 1    
    20   50   10 1    
    21   51   10 1    
    22   52   10 1    
    23   12   11 2    
    24   13   11 am   
    25   14   13 1    
    26   39   13 1    
    27   15   14 1    
    28   17   14 1    
    29   40   14 1    
    30   16   15 1    
    31   21   15 1    
    32   41   15 1    
    33   54   16 1    
    34   18   17 1    
    35   20   17 1    
    36   42   17 1    
    37   19   18 1    
    38   43   18 1    
    39   44   18 1    
    40   55   19 1    
    41   21   20 1    
    42   22   21 1    
    43   45   21 1    
    44   23   22 1    
    45   26   22 1    
    46   24   23 2    
    47   46   23 1    
    48   25   24 1    
    49   26   25 ar   
    50   30   25 ar   
    51   27   26 ar   
    52   28   27 ar   
    53   29   28 ar   
    54   47   28 1    
    55   30   29 ar   
    56   31   30 1    
    57   48   31 1    
    58   49   31 1    
@<TRIPOS>SUBSTRUCTURE
     1 D3Y201      1 GROUP   
@<TRIPOS>SET

