#    Name: 3KN0_2_CAVITY_N1_6.mol2
#    Modification time : Tue Mar 11 08:22:03 2014

@<TRIPOS>MOLECULE
3KN0_2_CAVITY_N1_6.mol2
  187     0     6     0     0
SMALL
NO_CHARGES


@<TRIPOS>ATOM
      1 CZ         26.7695   30.6370   58.7199 C.ar      4 PHE5        0.0000 
      2 O          23.6897   27.8251   59.4995 O.2       2 ALA2        0.0000 
      3 O          21.5325   30.6600   55.4301 O.2       2 ALA2        0.0000 
      4 CZ         21.7170   31.7893   54.4603 C.ar      4 PHE5        0.0000 
      5 CZ         21.9016   32.9187   53.4905 C.ar      4 PHE5        0.0000 
      6 OG         26.8939   32.8089   61.2728 O.2       1 SER1        0.0000 
      7 OG         27.0784   33.9382   60.3030 O.2       1 SER1        0.0000 
      8 CZ         27.2630   35.0676   59.3333 C.ar      4 PHE5        0.0000 
      9 OG         27.4475   36.1970   58.3635 O.2       1 SER1        0.0000 
     10 CA         25.1694   30.2736   62.6324 C.3       5 GLY6        0.0000 
     11 DU         25.3540   31.4029   61.6626 H         6 CUB7        0.0000 
     12 CZ         25.5385   32.5323   60.6928 C.ar      4 PHE5        0.0000 
     13 CZ         25.7230   33.6616   59.7230 C.ar      4 PHE5        0.0000 
     14 CA         23.6295   28.8676   63.0222 C.3       5 GLY6        0.0000 
     15 CA         23.8140   29.9970   62.0524 C.3       5 GLY6        0.0000 
     16 DU         23.9986   31.1263   61.0826 H         6 CUB7        0.0000 
     17 CZ         24.1831   32.2557   60.1128 C.ar      4 PHE5        0.0000 
     18 CZ         24.3676   33.3851   59.1430 C.ar      4 PHE5        0.0000 
     19 OG         22.2741   28.5910   62.4422 O.2       1 SER1        0.0000 
     20 DU         22.4586   29.7204   61.4724 H         6 CUB7        0.0000 
     21 DU         22.6432   30.8498   60.5026 H         6 CUB7        0.0000 
     22 CZ         22.8277   31.9791   59.5328 C.ar      4 PHE5        0.0000 
     23 CZ         23.0122   33.1085   58.5630 C.ar      4 PHE5        0.0000 
     24 CZ         23.1968   34.2378   57.5932 C.ar      4 PHE5        0.0000 
     25 CZ         23.3813   35.3672   56.6234 C.ar      4 PHE5        0.0000 
     26 OG         23.5658   36.4965   55.6536 O.2       1 SER1        0.0000 
     27 O          20.7342   27.1851   62.8320 O.2       2 ALA2        0.0000 
     28 DU         20.9187   28.3144   61.8622 H         6 CUB7        0.0000 
     29 O          21.1032   29.4438   60.8924 O.2       2 ALA2        0.0000 
     30 O          21.2878   30.5732   59.9226 O.2       2 ALA2        0.0000 
     31 O          21.4723   31.7025   58.9528 O.2       2 ALA2        0.0000 
     32 CZ         21.6568   32.8319   57.9830 C.ar      4 PHE5        0.0000 
     33 CZ         21.8414   33.9612   57.0132 C.ar      4 PHE5        0.0000 
     34 CZ         22.0259   35.0906   56.0434 C.ar      4 PHE5        0.0000 
     35 CA         22.2105   36.2200   55.0736 C.3       5 GLY6        0.0000 
     36 O          19.5633   28.0379   61.2822 O.2       2 ALA2        0.0000 
     37 O          19.7479   29.1672   60.3124 O.2       2 ALA2        0.0000 
     38 O          20.3015   32.5553   57.4030 O.2       2 ALA2        0.0000 
     39 DU         20.4860   33.6846   56.4332 H         6 CUB7        0.0000 
     40 CA         20.6705   34.8140   55.4634 C.3       5 GLY6        0.0000 
     41 O          18.2079   27.7613   60.7022 O.2       2 ALA2        0.0000 
     42 N          19.1306   33.4081   55.8532 N.2       2 ALA2        0.0000 
     43 N          19.3151   34.5374   54.8834 N.2       2 ALA2        0.0000 
     44 CA         19.4997   35.6668   53.9136 C.3       5 GLY6        0.0000 
     45 O          17.5907   32.0021   56.2430 O.2       2 ALA2        0.0000 
     46 N          17.7752   33.1315   55.2732 N.2       2 ALA2        0.0000 
     47 DU         17.9597   34.2608   54.3034 H         6 CUB7        0.0000 
     48 CA         18.1443   35.3902   53.3336 C.3       5 GLY6        0.0000 
     49 N          16.2353   31.7255   55.6630 N.2       2 ALA2        0.0000 
     50 DU         16.4198   32.8549   54.6932 H         6 CUB7        0.0000 
     51 CZ         16.6043   33.9842   53.7234 C.ar      4 PHE5        0.0000 
     52 N          14.8799   31.4489   55.0830 N.2       2 ALA2        0.0000 
     53 DU         15.0644   32.5783   54.1132 H         6 CUB7        0.0000 
     54 CZ         15.2490   33.7076   53.1434 C.ar      4 PHE5        0.0000 
     55 N          13.3400   30.0430   55.4728 N.2       2 ALA2        0.0000 
     56 N          13.5245   31.1723   54.5030 N.2       2 ALA2        0.0000 
     57 N          13.7090   32.3017   53.5332 N.2       2 ALA2        0.0000 
     58 N          11.9846   29.7664   54.8928 N.2       2 ALA2        0.0000 
     59 N          12.1691   30.8957   53.9230 N.2       2 ALA2        0.0000 
     60 CA         12.3536   32.0251   52.9532 C.3       5 GLY6        0.0000 
     61 N          26.6474   36.0153   60.3197 N.2       2 ALA2        0.0000 
     62 OG         24.5539   31.2212   63.6189 O.2       1 SER1        0.0000 
     63 OG         24.7384   32.3506   62.6491 O.2       1 SER1        0.0000 
     64 OG         24.9230   33.4799   61.6793 O.2       1 SER1        0.0000 
     65 N          25.1075   34.6093   60.7095 N.2       2 ALA2        0.0000 
     66 N          25.2920   35.7387   59.7397 N.2       2 ALA2        0.0000 
     67 OG         23.1985   30.9446   63.0389 O.2       1 SER1        0.0000 
     68 DU         23.3831   32.0740   62.0691 H         6 CUB7        0.0000 
     69 DU         23.5676   33.2034   61.0993 H         6 CUB7        0.0000 
     70 N          23.7521   34.3327   60.1295 N.2       2 ALA2        0.0000 
     71 N          23.9367   35.4621   59.1597 N.2       2 ALA2        0.0000 
     72 OG         21.6586   29.5387   63.4286 O.2       1 SER1        0.0000 
     73 OG         21.8431   30.6680   62.4589 O.2       1 SER1        0.0000 
     74 DU         22.0277   31.7974   61.4891 H         6 CUB7        0.0000 
     75 DU         22.2122   32.9268   60.5193 H         6 CUB7        0.0000 
     76 DU         22.3967   34.0561   59.5495 H         6 CUB7        0.0000 
     77 NZ         22.5813   35.1855   58.5797 N.2       3 LYS4        0.0000 
     78 NZ         22.7658   36.3148   57.6099 N.2       3 LYS4        0.0000 
     79 O          20.1187   28.1327   63.8184 O.2       2 ALA2        0.0000 
     80 O          20.3032   29.2621   62.8486 O.2       2 ALA2        0.0000 
     81 DU         20.4877   30.3915   61.8788 H         6 CUB7        0.0000 
     82 O          20.6723   31.5208   60.9091 O.2       2 ALA2        0.0000 
     83 O          20.8568   32.6502   59.9393 O.2       2 ALA2        0.0000 
     84 DU         21.0413   33.7795   58.9695 H         6 CUB7        0.0000 
     85 NZ         21.2259   34.9089   57.9997 N.2       3 LYS4        0.0000 
     86 NZ         21.4104   36.0382   57.0299 N.2       3 LYS4        0.0000 
     87 O          18.9478   28.9855   62.2686 O.2       2 ALA2        0.0000 
     88 O          19.1323   30.1149   61.2988 O.2       2 ALA2        0.0000 
     89 N          19.6859   33.5029   58.3895 N.2       2 ALA2        0.0000 
     90 N          19.8705   34.6323   57.4197 N.2       2 ALA2        0.0000 
     91 NZ         20.0550   35.7617   56.4499 N.2       3 LYS4        0.0000 
     92 N          18.6996   35.4851   55.8699 N.2       2 ALA2        0.0000 
     93 N          17.3442   35.2085   55.2899 N.2       2 ALA2        0.0000 
     94 N          15.6198   32.6732   56.6494 N.2       2 ALA2        0.0000 
     95 N          15.8043   33.8025   55.6797 N.2       2 ALA2        0.0000 
     96 N          15.9888   34.9319   54.7099 N.2       2 ALA2        0.0000 
     97 N          14.0798   31.2672   57.0392 N.2       2 ALA2        0.0000 
     98 N          14.2644   32.3966   56.0694 N.2       2 ALA2        0.0000 
     99 N          14.4489   33.5259   55.0996 N.2       2 ALA2        0.0000 
    100 N          14.6334   34.6553   54.1299 N.2       2 ALA2        0.0000 
    101 N          12.7244   30.9906   56.4592 N.2       2 ALA2        0.0000 
    102 N          12.9090   32.1200   55.4894 N.2       2 ALA2        0.0000 
    103 N          13.0935   33.2493   54.5196 N.2       2 ALA2        0.0000 
    104 CZ         27.6939   32.9906   59.3166 C.ar      4 PHE5        0.0000 
    105 CZ         27.8785   34.1199   58.3468 C.ar      4 PHE5        0.0000 
    106 CZ         26.1540   31.5846   59.7064 C.ar      4 PHE5        0.0000 
    107 DU         24.4295   29.0493   61.0659 H         6 CUB7        0.0000 
    108 CZ         24.6141   30.1787   60.0962 C.ar      4 PHE5        0.0000 
    109 CA         22.8896   27.6434   61.4557 C.3       5 GLY6        0.0000 
    110 DU         23.0742   28.7727   60.4859 H         6 CUB7        0.0000 
    111 CA         23.2587   29.9021   59.5162 C.3       5 GLY6        0.0000 
    112 CZ         23.4432   31.0315   58.5464 C.ar      4 PHE5        0.0000 
    113 O          24.3659   36.6783   53.6974 O.2       2 ALA2        0.0000 
    114 CA         21.5342   27.3668   60.8757 C.3       5 GLY6        0.0000 
    115 O          21.7188   28.4961   59.9059 O.2       2 ALA2        0.0000 
    116 CA         21.9033   29.6255   58.9361 C.3       5 GLY6        0.0000 
    117 CA         22.0878   30.7549   57.9664 C.3       5 GLY6        0.0000 
    118 CZ         22.2724   31.8842   56.9966 C.ar      4 PHE5        0.0000 
    119 CZ         22.4569   33.0136   56.0268 C.ar      4 PHE5        0.0000 
    120 CZ         22.6414   34.1429   55.0570 C.ar      4 PHE5        0.0000 
    121 CZ         22.8260   35.2723   54.0872 C.ar      4 PHE5        0.0000 
    122 CA         20.1788   27.0902   60.2957 C.3       5 GLY6        0.0000 
    123 CA         20.3634   28.2196   59.3259 C.3       5 GLY6        0.0000 
    124 CA         20.9170   31.6076   56.4166 C.3       5 GLY6        0.0000 
    125 CZ         21.1015   32.7370   55.4468 C.ar      4 PHE5        0.0000 
    126 CZ         21.2860   33.8664   54.4770 C.ar      4 PHE5        0.0000 
    127 CA         19.5616   31.3310   55.8365 C.3       5 GLY6        0.0000 
    128 N          19.7461   32.4604   54.8668 N.2       2 ALA2        0.0000 
    129 CZ         19.9306   33.5898   53.8970 C.ar      4 PHE5        0.0000 
    130 CA         18.2062   31.0545   55.2565 C.3       5 GLY6        0.0000 
    131 N          18.3907   32.1838   54.2867 N.2       2 ALA2        0.0000 
    132 CZ         18.5753   33.3132   53.3170 C.ar      4 PHE5        0.0000 
    133 CZ         18.7598   34.4425   52.3472 C.ar      4 PHE5        0.0000 
    134 CA         16.8508   30.7779   54.6765 C.3       5 GLY6        0.0000 
    135 N          17.0353   31.9072   53.7067 N.2       2 ALA2        0.0000 
    136 N          17.2199   33.0366   52.7369 N.2       2 ALA2        0.0000 
    137 N          15.3109   29.3719   55.0663 N.2       2 ALA2        0.0000 
    138 N          15.4954   30.5013   54.0965 N.2       2 ALA2        0.0000 
    139 DU         15.6799   31.6306   53.1267 H         6 CUB7        0.0000 
    140 N          15.8645   32.7600   52.1569 N.2       2 ALA2        0.0000 
    141 DU         13.9555   29.0953   54.4863 H         6 CUB7        0.0000 
    142 DU         14.1400   30.2247   53.5165 H         6 CUB7        0.0000 
    143 CA         14.3245   31.3540   52.5467 C.3       5 GLY6        0.0000 
    144 CA         14.5091   32.4834   51.5769 C.3       5 GLY6        0.0000 
    145 CA         12.7846   29.9481   52.9365 C.3       5 GLY6        0.0000 
    146 N          20.3616   31.5127   53.8803 N.2       2 ALA2        0.0000 
    147 CZ         19.1908   32.3655   52.3305 C.ar      4 PHE5        0.0000 
    148 N          17.6508   30.9596   52.7203 N.2       2 ALA2        0.0000 
    149 N          15.9264   28.4243   54.0799 N.2       2 ALA2        0.0000 
    150 N          16.1109   29.5536   53.1101 N.2       2 ALA2        0.0000 
    151 N          16.2954   30.6830   52.1403 N.2       2 ALA2        0.0000 
    152 CA         14.7555   29.2770   52.5301 C.3       5 GLY6        0.0000 
    153 CA         14.9401   30.4064   51.5603 C.3       5 GLY6        0.0000 
    154 N          14.5733   35.6978   57.6526 N.2       2 ALA2        0.0000 
    155 O          13.2179   35.4212   57.0726 O.2       2 ALA2        0.0000 
    156 OG         23.9384   32.1689   64.6053 O.2       1 SER1        0.0000 
    157 CZ         24.1229   33.2982   63.6355 C.ar      4 PHE5        0.0000 
    158 CZ         24.3075   34.4276   62.6657 C.ar      4 PHE5        0.0000 
    159 OG         22.5830   31.8923   64.0253 O.2       1 SER1        0.0000 
    160 NZ         22.7675   33.0216   63.0555 N.2       3 LYS4        0.0000 
    161 NZ         22.9521   34.1510   62.0857 N.2       3 LYS4        0.0000 
    162 N          23.1366   35.2804   61.1159 N.2       2 ALA2        0.0000 
    163 OG         21.0431   30.4863   64.4151 O.2       1 SER1        0.0000 
    164 OG         21.2276   31.6157   63.4453 O.2       1 SER1        0.0000 
    165 NZ         21.4121   32.7451   62.4755 N.2       3 LYS4        0.0000 
    166 NZ         21.5967   33.8744   61.5057 N.2       3 LYS4        0.0000 
    167 NZ         21.7812   35.0038   60.5359 N.2       3 LYS4        0.0000 
    168 N          21.9657   36.1331   59.5661 N.2       2 ALA2        0.0000 
    169 O          19.6877   30.2097   63.8351 O.2       2 ALA2        0.0000 
    170 CA         19.8722   31.3391   62.8653 C.3       5 GLY6        0.0000 
    171 NZ         20.0568   32.4685   61.8955 N.2       3 LYS4        0.0000 
    172 NZ         20.2413   33.5978   60.9257 N.2       3 LYS4        0.0000 
    173 NZ         20.4258   34.7272   59.9559 N.2       3 LYS4        0.0000 
    174 NZ         20.6104   35.8565   58.9861 N.2       3 LYS4        0.0000 
    175 OG         18.5168   31.0625   62.2853 O.2       1 SER1        0.0000 
    176 N          15.0042   33.6208   57.6359 N.2       2 ALA2        0.0000 
    177 N          15.3733   35.8795   55.6963 N.2       2 ALA2        0.0000 
    178 OG         13.6489   33.3442   57.0559 O.2       1 SER1        0.0000 
    179 N          13.8334   34.4736   56.0861 N.2       2 ALA2        0.0000 
    180 N          14.0179   35.6029   55.1163 N.2       2 ALA2        0.0000 
    181 N          12.4780   34.1970   55.5061 N.2       2 ALA2        0.0000 
    182 CA         23.3229   33.1165   65.5918 C.3       5 GLY6        0.0000 
    183 CA         23.5074   34.2459   64.6220 C.3       5 GLY6        0.0000 
    184 CZ         23.6919   35.3752   63.6522 C.ar      4 PHE5        0.0000 
    185 CA         21.9675   32.8399   65.0118 C.3       5 GLY6        0.0000 
    186 CA         22.1520   33.9693   64.0420 C.3       5 GLY6        0.0000 
    187 NZ         22.3366   35.0987   63.0722 N.2       3 LYS4        0.0000 
@<TRIPOS>BOND
@<TRIPOS>SUBSTRUCTURE
     1 SER1        6 GROUP   
     2 ALA2        2 GROUP   
     3 LYS4       77 GROUP   
     4 PHE5        1 GROUP   
     5 GLY6       10 GROUP   
     6 CUB7       11 GROUP   
@<TRIPOS>SET

