#    Name: 3kn0_3TO_2_INTS_M
#    Modification time : Mon Mar 24 19:50:56 2014

@<TRIPOS>MOLECULE
3kn0_3TO_2_INTS_M
   61     0     6     0     0
SMALL
NO_CHARGES


@<TRIPOS>ATOM
      1 CA         18.5680   33.2140   60.8390 C.3       2 GLC5        0.0000 
      2 CA         20.4090   32.9890   60.5560 C.3       6 GLL5        0.0000 
      3 CA         16.7270   33.4390   61.1220 C.3       4 GLP5        0.0000 
      4 O          21.1420   37.4310   58.4730 O.2       1 ALC1        0.0000 
      5 O          20.8910   36.3710   59.3660 O.2       5 ALL1        0.0000 
      6 O          21.3930   38.4910   57.5800 O.2       3 ALP1        0.0000 
      7 O          20.0595   36.9150   60.4865 O.2       1 ALC1        0.0000 
      8 O          19.2280   37.4590   61.6070 O.2       3 ALP1        0.0000 
      9 O          20.3020   35.9545   60.9280 O.2       1 ALC1        0.0000 
     10 O          19.7130   35.5380   62.4900 O.2       3 ALP1        0.0000 
     11 CA         19.1690   36.2735   59.1855 C.3       2 GLC5        0.0000 
     12 CA         20.9870   35.0430   59.4190 C.3       6 GLL5        0.0000 
     13 CA         17.3510   37.5040   58.9520 C.3       4 GLP5        0.0000 
     14 O          16.7000   34.7160   56.7240 O.2       1 ALC1        0.0000 
     15 O          16.3010   34.1570   55.3310 O.2       5 ALL1        0.0000 
     16 O          17.0990   35.2750   58.1170 O.2       3 ALP1        0.0000 
     17 CA         22.9750   31.5545   57.2015 C.3       2 GLC5        0.0000 
     18 CA         21.7930   32.9010   58.5560 C.3       6 GLL5        0.0000 
     19 CA         24.1570   30.2080   55.8470 C.3       4 GLP5        0.0000 
     20 CA         23.4940   36.8390   57.5030 C.3       2 GLC5        0.0000 
     21 CA         22.4530   35.0120   57.2910 C.3       6 GLL5        0.0000 
     22 CA         24.5350   38.6660   57.7150 C.3       4 GLP5        0.0000 
     23 CA         24.0810   34.6015   56.6130 C.3       2 GLC5        0.0000 
     24 CA         25.7090   34.1910   55.9350 C.3       4 GLP5        0.0000 
     25 CA         23.2890   34.6695   55.5245 C.3       2 GLC5        0.0000 
     26 CA         21.4700   35.6330   56.2470 C.3       6 GLL5        0.0000 
     27 CA         25.1080   33.7060   54.8020 C.3       4 GLP5        0.0000 
     28 CA         18.3340   36.5170   54.5995 C.3       2 GLC5        0.0000 
     29 CA         19.3290   34.7980   55.1610 C.3       6 GLL5        0.0000 
     30 CA         17.3390   38.2360   54.0380 C.3       4 GLP5        0.0000 
     31 CA         17.2330   36.1480   54.0765 C.3       2 GLC5        0.0000 
     32 CA         17.1270   34.0600   54.1150 C.3       6 GLL5        0.0000 
     33 CA         16.3510   35.0160   52.6370 C.3       2 GLC5        0.0000 
     34 CA         15.5750   35.9720   51.1590 C.3       4 GLP5        0.0000 
     35 CA         16.1610   36.4715   54.5040 C.3       2 GLC5        0.0000 
     36 CA         14.9830   34.7070   54.9700 C.3       6 GLL5        0.0000 
     37 CA         15.2790   35.3395   53.0645 C.3       2 GLC5        0.0000 
     38 CA         12.4220   37.0540   59.6670 C.3       2 GLC5        0.0000 
     39 CA         13.6830   36.5600   57.8880 C.3       6 GLL5        0.0000 
     40 CA         11.1610   37.5480   61.4460 C.3       4 GLP5        0.0000 
     41 CA         12.5505   34.4380   59.4275 C.3       2 GLC5        0.0000 
     42 CA         12.9450   35.4440   57.8690 C.3       6 GLL5        0.0000 
     43 CA         12.1560   33.4320   60.9860 C.3       4 GLP5        0.0000 
     44 CA         17.0900   30.8630   56.3340 C.3       2 GLC5        0.0000 
     45 CA         16.1430   32.8310   55.9580 C.3       6 GLL5        0.0000 
     46 CA         18.0370   28.8950   56.7100 C.3       4 GLP5        0.0000 
     47 CA         20.6844   36.6686   54.8268 C.3       2 GLC5        0.0000 
     48 CA         20.7030   34.5800   55.4530 C.3       6 GLL5        0.0000 
     49 CA         21.1610   38.3850   54.1480 C.3       4 GLP5        0.0000 
     50 CA         20.7470   30.8377   53.3102 C.3       2 GLC5        0.0000 
     51 CA         20.6040   32.4130   54.2720 C.3       6 GLL5        0.0000 
     52 CA         21.5780   29.1520   52.4940 C.3       4 GLP5        0.0000 
     53 CA         22.5652   31.5532   55.2430 C.3       2 GLC5        0.0000 
     54 CA         14.7265   37.5110   55.3865 C.3       2 GLC5        0.0000 
     55 CA         14.5820   36.4420   56.7670 C.3       6 GLL5        0.0000 
     56 CA         15.0160   39.1670   54.2930 C.3       4 GLP5        0.0000 
     57 CA         15.7417   37.0025   58.1397 C.3       2 GLC5        0.0000 
     58 CA         12.8453   36.9553   56.2341 C.3       2 GLC5        0.0000 
     59 CA         11.8150   37.9820   55.2890 C.3       4 GLP5        0.0000 
     60 CA         14.8298   35.1313   58.7311 C.3       2 GLC5        0.0000 
     61 CA         15.7840   34.3340   60.2830 C.3       4 GLP5        0.0000 
@<TRIPOS>BOND
@<TRIPOS>SUBSTRUCTURE
     1 ALC1        4 GROUP        1 X    ALC  0     ROOT ALC X 1
     2 GLC5        1 GROUP        1 X    GLC  0     **** GLC X 6
     3 ALP1        6 GROUP        1 Y    ALP  0     ROOT ALP Y 8
     4 GLP5        3 GROUP        1 Y    GLP  0     **** GLP Y 13
     5 ALL1        5 GROUP        1 Z    ALL  0     ROOT ALL Z 15
     6 GLL5        2 GROUP        1 Z    GLL  0     **** GLL Z 20
@<TRIPOS>SET

