#    Name: 3kn0_3TO_2_ligand
#    Modification time : Mon Mar 24 19:50:56 2014

@<TRIPOS>MOLECULE
3kn0_3TO_2_ligand
   48    50     1     0     0
SMALL
NO_CHARGES


@<TRIPOS>ATOM
      1 C1         21.1340   32.2240   59.6110 C.ar      1 3TO501      0.0000 
      2 N1         20.3530   34.3360   60.4440 N.ar      1 3TO501      0.0000 
      3 O1         13.2880   34.6070   56.8310 O.3       1 3TO501      0.0000 
      4 C2         20.4090   32.9890   60.5560 C.ar      1 3TO501      0.0000 
      5 N2         20.8910   36.3710   59.3660 N.pl3     1 3TO501      0.0000 
      6 C3         20.9870   35.0430   59.4190 C.ar      1 3TO501      0.0000 
      7 N3         16.3010   34.1570   55.3310 N.4       1 3TO501      0.0000 
      8 C4         21.7310   34.3160   58.4410 C.ar      1 3TO501      0.0000 
      9 C5         21.7930   32.9010   58.5560 C.ar      1 3TO501      0.0000 
     10 C6         22.4530   35.0120   57.2910 C.3       1 3TO501      0.0000 
     11 C7         21.4700   35.6330   56.2470 C.3       1 3TO501      0.0000 
     12 C8         20.7030   34.5800   55.4530 C.ar      1 3TO501      0.0000 
     13 C9         19.3290   34.7980   55.1610 C.ar      1 3TO501      0.0000 
     14 C10        18.5900   33.8270   54.4260 C.ar      1 3TO501      0.0000 
     15 C11        19.2280   32.6340   53.9810 C.ar      1 3TO501      0.0000 
     16 C12        20.6040   32.4130   54.2720 C.ar      1 3TO501      0.0000 
     17 C13        21.3430   33.3840   55.0060 C.ar      1 3TO501      0.0000 
     18 C14        17.1270   34.0600   54.1150 C.3       1 3TO501      0.0000 
     19 C15        14.2920   35.2680   56.1930 C.2       1 3TO501      0.0000 
     20 C16        14.9830   34.7070   54.9700 C.3       1 3TO501      0.0000 
     21 C17        14.5820   36.4420   56.7670 C.2       1 3TO501      0.0000 
     22 C18        13.6830   36.5600   57.8880 C.2       1 3TO501      0.0000 
     23 C19        12.9450   35.4440   57.8690 C.2       1 3TO501      0.0000 
     24 C20        16.1430   32.8310   55.9580 C.3       1 3TO501      0.0000 
     25 H          21.1804   31.2187   59.6871 H         1 3TO501      0.0000 
     26 H          19.9306   32.4908   61.3236 H         1 3TO501      0.0000 
     27 H          21.3953   36.8195   58.6281 H         1 3TO501      0.0000 
     28 H          20.3233   36.7995   60.0689 H         1 3TO501      0.0000 
     29 H          16.7826   34.8302   56.0329 H         1 3TO501      0.0000 
     30 H          22.3246   32.3627   57.8621 H         1 3TO501      0.0000 
     31 H          23.0947   34.2947   56.7715 H         1 3TO501      0.0000 
     32 H          23.0847   35.8135   57.6844 H         1 3TO501      0.0000 
     33 H          22.0499   36.2598   55.5626 H         1 3TO501      0.0000 
     34 H          20.7647   36.2762   56.7824 H         1 3TO501      0.0000 
     35 H          18.8702   35.6508   55.4777 H         1 3TO501      0.0000 
     36 H          18.7011   31.9409   53.4560 H         1 3TO501      0.0000 
     37 H          21.0601   31.5602   53.9552 H         1 3TO501      0.0000 
     38 H          22.3257   33.2277   55.2127 H         1 3TO501      0.0000 
     39 H          17.0379   34.9852   53.5201 H         1 3TO501      0.0000 
     40 H          16.7683   33.2344   53.4767 H         1 3TO501      0.0000 
     41 H          14.3505   33.9265   54.5346 H         1 3TO501      0.0000 
     42 H          15.0932   35.5061   54.2296 H         1 3TO501      0.0000 
     43 H          15.2159   37.0881   56.5396 H         1 3TO501      0.0000 
     44 H          13.6686   37.2881   58.4684 H         1 3TO501      0.0000 
     45 H          12.2308   35.2262   58.5164 H         1 3TO501      0.0000 
     46 H          17.0242   32.4349   56.2163 H         1 3TO501      0.0000 
     47 H          15.5875   32.8766   56.7883 H         1 3TO501      0.0000 
     48 H          15.6980   32.1800   55.3430 H         1 3TO501      0.0000 
@<TRIPOS>BOND
     1    4    1 ar   
     2    9    1 ar   
     3   25    1 1    
     4    4    2 ar   
     5    6    2 ar   
     6   19    3 1    
     7   23    3 1    
     8   26    4 1    
     9    6    5 1    
    10   27    5 1    
    11   28    5 1    
    12    8    6 ar   
    13   18    7 1    
    14   20    7 1    
    15   24    7 1    
    16   29    7 1    
    17    9    8 ar   
    18   10    8 1    
    19   30    9 1    
    20   11   10 1    
    21   31   10 1    
    22   32   10 1    
    23   12   11 1    
    24   33   11 1    
    25   34   11 1    
    26   13   12 ar   
    27   17   12 ar   
    28   14   13 ar   
    29   35   13 1    
    30   15   14 ar   
    31   18   14 1    
    32   16   15 ar   
    33   36   15 1    
    34   17   16 ar   
    35   37   16 1    
    36   38   17 1    
    37   39   18 1    
    38   40   18 1    
    39   20   19 1    
    40   21   19 2    
    41   41   20 1    
    42   42   20 1    
    43   22   21 1    
    44   43   21 1    
    45   23   22 2    
    46   44   22 1    
    47   45   23 1    
    48   46   24 1    
    49   47   24 1    
    50   48   24 1    
@<TRIPOS>SUBSTRUCTURE
     1 3TO501      1 GROUP   
@<TRIPOS>SET

