#    Name: 2xyr_SFG_1_INTS_M
#    Modification time : Tue Mar 25 07:10:02 2014

@<TRIPOS>MOLECULE
2xyr_SFG_1_INTS_M
   70     0    12     0     0
SMALL
NO_CHARGES


@<TRIPOS>ATOM
      1 OD1        40.3075   62.3050   -3.4655 O.co2     3 ASC3        0.0000 
      2 OD1        40.7110   61.3490   -4.3110 O.co2    11 ASL3        0.0000 
      3 OD1        39.9040   63.2610   -2.6200 O.co2     7 ASP3        0.0000 
      4 O          42.0015   61.8040   -4.7155 O.2       1 ALC1        0.0000 
      5 O          40.7110   61.3490   -4.3110 O.2       9 ALL1        0.0000 
      6 O          43.2920   62.2590   -5.1200 O.2       5 ALP1        0.0000 
      7 O          40.3075   62.3050   -3.4655 O.2       1 ALC1        0.0000 
      8 O          39.9040   63.2610   -2.6200 O.2       5 ALP1        0.0000 
      9 CA         42.3095   60.3065   -5.4825 C.3       4 GLC5        0.0000 
     10 CA         41.1200   60.0970   -3.6060 C.3      12 GLL5        0.0000 
     11 CA         43.4990   60.5160   -7.3590 C.3       8 GLP5        0.0000 
     12 N          38.3520   58.6530   -5.7520 N.am      2 SEC2        0.0000 
     13 N          39.1880   59.1470   -4.6060 N.am     10 SEL2        0.0000 
     14 N          37.5160   58.1590   -6.8980 N.am      6 SEP2        0.0000 
     15 N          39.0255   58.7815   -1.8165 N.am      2 SEC2        0.0000 
     16 N          39.7500   58.3140   -2.7670 N.am     10 SEL2        0.0000 
     17 N          38.3010   59.2490   -0.8660 N.am      6 SEP2        0.0000 
     18 CA         42.2195   58.4235   -1.8890 C.3       4 GLC5        0.0000 
     19 CA         41.5570   60.3950   -2.1710 C.3      12 GLL5        0.0000 
     20 CA         42.8820   56.4520   -1.6070 C.3       8 GLP5        0.0000 
     21 CA         41.7165   63.1405   -3.1755 C.3       4 GLC5        0.0000 
     22 CA         42.6310   61.4820   -2.1190 C.3      12 GLL5        0.0000 
     23 CA         40.8020   64.7990   -4.2320 C.3       8 GLP5        0.0000 
     24 CA         44.3105   64.3965    0.2730 C.3       4 GLC5        0.0000 
     25 CA         44.4560   62.6150   -0.8400 C.3      12 GLL5        0.0000 
     26 CA         44.1650   66.1780    1.3860 C.3       8 GLP5        0.0000 
     27 CA         45.4190   62.9315   -3.7605 C.3       4 GLC5        0.0000 
     28 CA         45.6380   62.3420   -1.7650 C.3      12 GLL5        0.0000 
     29 CA         45.2000   63.5210   -5.7560 C.3       8 GLP5        0.0000 
     30 N          45.9675   65.0370   -1.3070 N.am      2 SEC2        0.0000 
     31 N          46.3810   63.5440   -2.0120 N.am     10 SEL2        0.0000 
     32 N          45.5540   66.5300   -0.6020 N.am      6 SEP2        0.0000 
     33 O          46.8075   60.3865   -3.2260 O.2       1 ALC1        0.0000 
     34 O          46.6020   60.1750   -2.0270 O.2       9 ALL1        0.0000 
     35 O          47.0130   60.5980   -4.4250 O.2       5 ALP1        0.0000 
     36 O          48.9865   60.4090   -3.0070 O.2       1 ALC1        0.0000 
     37 O          48.9750   61.1290   -1.8450 O.2       9 ALL1        0.0000 
     38 O          48.9980   59.6890   -4.1690 O.2       5 ALP1        0.0000 
     39 O          47.9940   60.8635   -3.1350 O.2       1 ALC1        0.0000 
     40 CA         46.4590   63.3325   -4.0325 C.3       4 GLC5        0.0000 
     41 CA         47.7180   63.1440   -2.3090 C.3      12 GLL5        0.0000 
     42 CA         47.2530   64.8600   -3.5280 C.3       4 GLC5        0.0000 
     43 CA         46.7880   66.5760   -4.7470 C.3       8 GLP5        0.0000 
     44 CA         51.2135   67.4795   -5.3145 C.3       4 GLC5        0.0000 
     45 CA         51.3120   66.1980   -3.5640 C.3      12 GLL5        0.0000 
     46 CA         51.1150   68.7610   -7.0650 C.3       8 GLP5        0.0000 
     47 CA         50.5300   68.2170   -3.8185 C.3       4 GLC5        0.0000 
     48 CA         49.7480   70.2360   -4.0730 C.3       8 GLP5        0.0000 
     49 N          52.2525   65.9145   -6.1770 N.am      2 SEC2        0.0000 
     50 N          51.4260   65.7430   -4.8370 N.am     10 SEL2        0.0000 
     51 N          53.0790   66.0860   -7.5170 N.am      6 SEP2        0.0000 
     52 CA         49.8595   62.8800   -6.1590 C.3       4 GLC5        0.0000 
     53 CA         50.6250   64.7460   -5.2640 C.3      12 GLL5        0.0000 
     54 CA         49.0940   61.0140   -7.0540 C.3       8 GLP5        0.0000 
     55 CA         51.4725   63.3025   -4.4320 C.3       4 GLC5        0.0000 
     56 CA         52.3200   61.8590   -3.6000 C.3       8 GLP5        0.0000 
     57 CA         52.7040   64.7170   -5.8830 C.3       4 GLC5        0.0000 
     58 CA         54.7830   64.6880   -6.5020 C.3       8 GLP5        0.0000 
     59 CA         50.8515   66.0600   -6.7460 C.3       4 GLC5        0.0000 
     60 CA         51.0780   67.3740   -8.2280 C.3       8 GLP5        0.0000 
     61 CA         49.3860   66.0265   -5.4565 C.3       4 GLC5        0.0000 
     62 CA         48.1470   67.3070   -5.6490 C.3       8 GLP5        0.0000 
     63 N          50.3005   62.7105   -4.9735 N.am      2 SEC2        0.0000 
     64 N          49.6970   64.1800   -4.4650 N.am     10 SEL2        0.0000 
     65 N          50.9040   61.2410   -5.4820 N.am      6 SEP2        0.0000 
     66 CA         48.1695   65.5900   -3.9685 C.3       4 GLC5        0.0000 
     67 CA         49.5510   64.6040   -3.1900 C.3      12 GLL5        0.0000 
     68 CA         49.4920   66.6090   -4.3945 C.3       4 GLC5        0.0000 
     69 CA         50.3620   65.6240   -2.7160 C.3      12 GLL5        0.0000 
     70 CA         51.2570   63.5583   -3.3825 C.3       4 GLC5        0.0000 
@<TRIPOS>BOND
@<TRIPOS>SUBSTRUCTURE
     1 ALC1        4 GROUP        1 X    ALC  0     ROOT ALC X 1
     2 SEC2       12 GROUP        1 X    SEC  0     **** SEC X 2
     3 ASC3        1 GROUP        1 X    ASC  0     **** ASC X 3
     4 GLC5        9 GROUP        1 X    GLC  0     **** GLC X 6
     5 ALP1        6 GROUP        1 Y    ALP  0     ROOT ALP Y 8
     6 SEP2       14 GROUP        1 Y    SEP  0     **** SEP Y 9
     7 ASP3        3 GROUP        1 Y    ASP  0     **** ASP Y 10
     8 GLP5       11 GROUP        1 Y    GLP  0     **** GLP Y 13
     9 ALL1        5 GROUP        1 Z    ALL  0     ROOT ALL Z 15
    10 SEL2       13 GROUP        1 Z    SEL  0     **** SEL Z 16
    11 ASL3        2 GROUP        1 Z    ASL  0     **** ASL Z 17
    12 GLL5       10 GROUP        1 Z    GLL  0     **** GLL Z 20
@<TRIPOS>SET

