#    Name: 2xyr_SFG_1_ligand
#    Modification time : Tue Mar 25 07:10:02 2014

@<TRIPOS>MOLECULE
2xyr_SFG_1_ligand
   48    50     1     0     0
SMALL
NO_CHARGES


@<TRIPOS>ATOM
      1 N          40.7110   61.3490   -4.3110 N.4       1 SFG1298     0.0000 
      2 CA         41.1200   60.0970   -3.6060 C.3       1 SFG1298     0.0000 
      3 C          39.9600   59.1410   -3.6520 C.2       1 SFG1298     0.0000 
      4 O          39.1880   59.1470   -4.6060 O.co2     1 SFG1298     0.0000 
      5 OXT        39.7500   58.3140   -2.7670 O.co2     1 SFG1298     0.0000 
      6 CB         41.5570   60.3950   -2.1710 C.3       1 SFG1298     0.0000 
      7 CG         42.6310   61.4820   -2.1190 C.3       1 SFG1298     0.0000 
      8 CD         43.4550   61.4620   -0.8310 C.3       1 SFG1298     0.0000 
      9 NE         42.5750   61.5870    0.3250 N.3       1 SFG1298     0.0000 
     10 C5'        44.4560   62.6150   -0.8400 C.3       1 SFG1298     0.0000 
     11 C4'        45.6380   62.3420   -1.7650 C.3       1 SFG1298     0.0000 
     12 O4'        46.3810   63.5440   -2.0120 O.3       1 SFG1298     0.0000 
     13 C3'        46.6370   61.3350   -1.2050 C.3       1 SFG1298     0.0000 
     14 O3'        46.6020   60.1750   -2.0270 O.3       1 SFG1298     0.0000 
     15 C2'        47.9820   62.0130   -1.3270 C.3       1 SFG1298     0.0000 
     16 O2'        48.9750   61.1290   -1.8450 O.3       1 SFG1298     0.0000 
     17 C1'        47.7180   63.1440   -2.3090 C.3       1 SFG1298     0.0000 
     18 N9         48.7340   64.2290   -2.2040 N.pl3     1 SFG1298     0.0000 
     19 C8         49.0130   64.9800   -1.1320 C.2       1 SFG1298     0.0000 
     20 N7         50.0160   65.8400   -1.4350 N.2       1 SFG1298     0.0000 
     21 C5         50.3620   65.6240   -2.7160 C.ar      1 SFG1298     0.0000 
     22 C6         51.3120   66.1980   -3.5640 C.ar      1 SFG1298     0.0000 
     23 N6         52.1180   67.2000   -3.1270 N.pl3     1 SFG1298     0.0000 
     24 N1         51.4260   65.7430   -4.8370 N.ar      1 SFG1298     0.0000 
     25 C2         50.6250   64.7460   -5.2640 C.ar      1 SFG1298     0.0000 
     26 N3         49.6970   64.1800   -4.4650 N.ar      1 SFG1298     0.0000 
     27 C4         49.5510   64.6040   -3.1900 C.ar      1 SFG1298     0.0000 
     28 H          41.9544   59.6552   -4.1385 H         1 SFG1298     0.0000 
     29 H          41.9495   59.4811   -1.7189 H         1 SFG1298     0.0000 
     30 H          40.6892   60.7203   -1.5924 H         1 SFG1298     0.0000 
     31 H          42.1495   62.4656   -2.2200 H         1 SFG1298     0.0000 
     32 H          43.3069   61.3583   -2.9777 H         1 SFG1298     0.0000 
     33 H          44.0033   60.5365   -0.7924 H         1 SFG1298     0.0000 
     34 H          44.8257   62.7766    0.1775 H         1 SFG1298     0.0000 
     35 H          43.9480   63.5282   -1.1659 H         1 SFG1298     0.0000 
     36 H          45.2633   61.9451   -2.7057 H         1 SFG1298     0.0000 
     37 H          46.4155   61.1555   -0.2004 H         1 SFG1298     0.0000 
     38 H          48.2358   62.4406   -0.3912 H         1 SFG1298     0.0000 
     39 H          47.7536   62.6953   -3.3050 H         1 SFG1298     0.0000 
     40 H          48.5713   64.9250   -0.2672 H         1 SFG1298     0.0000 
     41 H          52.0118   67.4638   -2.1683 H         1 SFG1298     0.0000 
     42 H          52.7465   67.5855   -3.8026 H         1 SFG1298     0.0000 
     43 H          50.7271   64.3967   -6.2559 H         1 SFG1298     0.0000 
     44 H          41.4905   61.8050   -4.7405 H         1 SFG1298     0.0000 
     45 H          40.0434   61.1675   -5.0331 H         1 SFG1298     0.0000 
     46 H          40.2941   62.0082   -3.6853 H         1 SFG1298     0.0000 
     47 H          46.2886   60.4997   -2.9194 H         1 SFG1298     0.0000 
     48 H          48.6190   60.8305   -2.7305 H         1 SFG1298     0.0000 
@<TRIPOS>BOND
     1    2    1 1    
     2   44    1 1    
     3   45    1 1    
     4   46    1 1    
     5    3    2 1    
     6    6    2 1    
     7   28    2 1    
     8    4    3 ar   
     9    5    3 ar   
    10    7    6 1    
    11   29    6 1    
    12   30    6 1    
    13    8    7 1    
    14   31    7 1    
    15   32    7 1    
    16    9    8 1    
    17   10    8 1    
    18   33    8 1    
    19   11   10 1    
    20   34   10 1    
    21   35   10 1    
    22   12   11 1    
    23   13   11 1    
    24   36   11 1    
    25   17   12 1    
    26   14   13 1    
    27   15   13 1    
    28   37   13 1    
    29   47   14 1    
    30   16   15 1    
    31   17   15 1    
    32   38   15 1    
    33   48   16 1    
    34   18   17 1    
    35   39   17 1    
    36   19   18 1    
    37   27   18 1    
    38   20   19 2    
    39   40   19 1    
    40   21   20 1    
    41   22   21 ar   
    42   27   21 ar   
    43   23   22 1    
    44   24   22 ar   
    45   41   23 1    
    46   42   23 1    
    47   25   24 ar   
    48   26   25 ar   
    49   43   25 1    
    50   27   26 ar   
@<TRIPOS>SUBSTRUCTURE
     1 SFG1298     1 GROUP   
@<TRIPOS>SET

