#    Name: 2wou_ZZF_1_INTS_M
#    Modification time : Tue Mar 25 04:34:11 2014

@<TRIPOS>MOLECULE
2wou_ZZF_1_INTS_M
   73     0     9     0     0
SMALL
NO_CHARGES


@<TRIPOS>ATOM
      1 CA         10.7725   10.8200    6.1390 C.3       3 GLC5        0.0000 
      2 CA          9.2100   11.7400    5.1300 C.3       9 GLL5        0.0000 
      3 CA         12.3350    9.9000    7.1480 C.3       6 GLP5        0.0000 
      4 CA          9.4695   13.5740    5.0870 C.3       3 GLC5        0.0000 
      5 CA          9.7290   15.4080    5.0440 C.3       6 GLP5        0.0000 
      6 CA          3.3260   10.8330    4.6650 C.3       3 GLC5        0.0000 
      7 CA          5.3730   10.1170    4.6500 C.3       9 GLL5        0.0000 
      8 CA          1.2790   11.5490    4.6800 C.3       6 GLP5        0.0000 
      9 CA          5.9185    6.5095    5.3715 C.3       3 GLC5        0.0000 
     10 CA          5.8940    8.4420    6.4340 C.3       9 GLL5        0.0000 
     11 CA          5.9430    4.5770    4.3090 C.3       6 GLP5        0.0000 
     12 CA          7.0680    6.9160    6.7960 C.3       3 GLC5        0.0000 
     13 CA          8.2420    5.3900    7.1580 C.3       6 GLP5        0.0000 
     14 CA          7.0185    7.7940    3.4235 C.3       3 GLC5        0.0000 
     15 CA          5.0920    8.0310    2.9060 C.3       9 GLL5        0.0000 
     16 CA          8.9450    7.5570    3.9410 C.3       6 GLP5        0.0000 
     17 CA          6.7095    6.4765    2.0390 C.3       3 GLC5        0.0000 
     18 CA          4.8660    6.9980    2.0250 C.3       9 GLL5        0.0000 
     19 CA          8.5530    5.9550    2.0530 C.3       6 GLP5        0.0000 
     20 CA          4.6365    7.0740   -0.0005 C.3       3 GLC5        0.0000 
     21 CA          4.4070    7.1500   -2.0260 C.3       6 GLP5        0.0000 
     22 CA          5.7070    5.2190    1.1595 C.3       3 GLC5        0.0000 
     23 CA          6.5480    3.4400    0.2940 C.3       6 GLP5        0.0000 
     24 N           3.6060    5.7945    0.4015 N.am      2 SEC2        0.0000 
     25 N           3.6690    6.4400    1.8090 N.am      8 SEL2        0.0000 
     26 N           3.5430    5.1490   -1.0060 N.am      5 SEP2        0.0000 
     27 O           1.2855    5.1475    1.3545 O.2       1 ALC1        0.0000 
     28 O           1.4210    6.3170    2.2640 O.2       7 ALL1        0.0000 
     29 O           1.1500    3.9780    0.4450 O.2       4 ALP1        0.0000 
     30 O          -2.8225    3.8105    6.8730 O.2       1 ALC1        0.0000 
     31 O          -3.2930    4.9990    6.7100 O.2       7 ALL1        0.0000 
     32 O          -2.3520    2.6220    7.0360 O.2       4 ALP1        0.0000 
     33 CA          7.5217   12.3175    6.5693 C.3       3 GLC5        0.0000 
     34 CA          7.8490   11.1780    4.9490 C.3       9 GLL5        0.0000 
     35 CA          6.5140   13.1760    8.0990 C.3       6 GLP5        0.0000 
     36 CA          8.7372    9.5080    4.4902 C.3       3 GLC5        0.0000 
     37 CA          8.7222   10.7605    3.1492 C.3       3 GLC5        0.0000 
     38 CA          8.9150   10.0620    1.2590 C.3       6 GLP5        0.0000 
     39 CA          5.5285   13.1232    2.8175 C.3       3 GLC5        0.0000 
     40 CA          6.9910   11.7310    4.0230 C.3       9 GLL5        0.0000 
     41 CA          4.6960   14.7860    1.6890 C.3       6 GLP5        0.0000 
     42 CA          6.1635   13.1242    5.1330 C.3       3 GLC5        0.0000 
     43 CA          5.7310   11.1900    3.8690 C.3       9 GLL5        0.0000 
     44 CA          5.9660   14.7880    6.3200 C.3       6 GLP5        0.0000 
     45 CA          7.6380   10.7613    2.6025 C.3       3 GLC5        0.0000 
     46 CA          4.8940   10.4588    2.4743 C.3       3 GLC5        0.0000 
     47 CA          4.2360   10.2640    0.6890 C.3       6 GLP5        0.0000 
     48 CA          6.0740   10.4763    7.4080 C.3       3 GLC5        0.0000 
     49 CA          6.2680    9.6090    5.5680 C.3       9 GLL5        0.0000 
     50 CA          6.0670   11.9270    8.8150 C.3       6 GLP5        0.0000 
     51 CA          7.4011    8.3548    4.8563 C.3       3 GLC5        0.0000 
     52 CA          2.3347    9.8952    4.0940 C.3       3 GLC5        0.0000 
     53 CA          4.0120    8.5190    3.6060 C.3       9 GLL5        0.0000 
     54 CA          4.4725    8.9503    1.6648 C.3       3 GLC5        0.0000 
     55 CA          5.3260    6.1067    3.4747 C.3       3 GLC5        0.0000 
     56 CA          3.4700    8.8545    1.8243 C.3       3 GLC5        0.0000 
     57 CA          2.6390    6.9260    2.5090 C.3       9 GLL5        0.0000 
     58 CA          3.1295    5.7915    3.9022 C.3       3 GLC5        0.0000 
     59 CA          2.7690    7.9640    3.4100 C.3       9 GLL5        0.0000 
     60 CA          3.5550    4.1380    4.8450 C.3       6 GLP5        0.0000 
     61 CA         -1.2417    7.7828    3.8450 C.3       3 GLC5        0.0000 
     62 CA          0.2840    6.2280    3.0980 C.3       9 GLL5        0.0000 
     63 CA         -2.1530    9.4210    4.8920 C.3       6 GLP5        0.0000 
     64 CA         -0.3002    4.4303    3.2730 C.3       3 GLC5        0.0000 
     65 CA         -0.9450    6.0610    2.4980 C.3       9 GLL5        0.0000 
     66 CA         -0.2700    2.7160    3.7480 C.3       6 GLP5        0.0000 
     67 CA          1.9360    5.1985    4.3172 C.3       3 GLC5        0.0000 
     68 CA         -2.0987    7.7073    4.4213 C.3       3 GLC5        0.0000 
     69 CA         -2.0030    6.0270    4.6380 C.3       9 GLL5        0.0000 
     70 CA         -1.1572    4.3548    3.8492 C.3       3 GLC5        0.0000 
     71 CA         -1.1860    7.8320    4.8800 C.3       3 GLC5        0.0000 
     72 CA         -0.7880    6.1960    5.2550 C.3       9 GLL5        0.0000 
     73 CA         -0.2445    4.4795    4.3080 C.3       3 GLC5        0.0000 
@<TRIPOS>BOND
@<TRIPOS>SUBSTRUCTURE
     1 ALC1       27 GROUP        1 X    ALC  0     ROOT ALC X 1
     2 SEC2       24 GROUP        1 X    SEC  0     **** SEC X 2
     3 GLC5        1 GROUP        1 X    GLC  0     **** GLC X 6
     4 ALP1       29 GROUP        1 Y    ALP  0     ROOT ALP Y 8
     5 SEP2       26 GROUP        1 Y    SEP  0     **** SEP Y 9
     6 GLP5        3 GROUP        1 Y    GLP  0     **** GLP Y 13
     7 ALL1       28 GROUP        1 Z    ALL  0     ROOT ALL Z 15
     8 SEL2       25 GROUP        1 Z    SEL  0     **** SEL Z 16
     9 GLL5        2 GROUP        1 Z    GLL  0     **** GLL Z 20
@<TRIPOS>SET

