#    Name: 2wou_ZZF_1_ligand
#    Modification time : Tue Mar 25 04:34:11 2014

@<TRIPOS>MOLECULE
2wou_ZZF_1_ligand
   44    46     1     0     0
SMALL
NO_CHARGES


@<TRIPOS>ATOM
      1 C1          9.2100   11.7400    5.1300 C.3       1 ZZF1500     0.0000 
      2 C2          7.8490   11.1780    4.9490 C.ar      1 ZZF1500     0.0000 
      3 C3          6.9910   11.7310    4.0230 C.ar      1 ZZF1500     0.0000 
      4 C4          5.7310   11.1900    3.8690 C.ar      1 ZZF1500     0.0000 
      5 C5          5.3730   10.1170    4.6500 C.ar      1 ZZF1500     0.0000 
      6 C6          6.2680    9.6090    5.5680 C.ar      1 ZZF1500     0.0000 
      7 N7          7.4920   10.1350    5.7060 N.ar      1 ZZF1500     0.0000 
      8 C8          5.8940    8.4420    6.4340 C.3       1 ZZF1500     0.0000 
      9 O9          4.1140    9.5600    4.5180 O.3       1 ZZF1500     0.0000 
     10 C10         4.0120    8.5190    3.6060 C.ar      1 ZZF1500     0.0000 
     11 C11         5.0920    8.0310    2.9060 C.ar      1 ZZF1500     0.0000 
     12 C12         4.8660    6.9980    2.0250 C.ar      1 ZZF1500     0.0000 
     13 N13         3.6690    6.4400    1.8090 N.ar      1 ZZF1500     0.0000 
     14 C14         2.6390    6.9260    2.5090 C.ar      1 ZZF1500     0.0000 
     15 C15         2.7690    7.9640    3.4100 C.ar      1 ZZF1500     0.0000 
     16 N16         1.4210    6.3170    2.2640 N.pl3     1 ZZF1500     0.0000 
     17 C17         0.2840    6.2280    3.0980 C.ar      1 ZZF1500     0.0000 
     18 C18        -0.9450    6.0610    2.4980 C.ar      1 ZZF1500     0.0000 
     19 C19        -2.0860    5.9600    3.2630 C.ar      1 ZZF1500     0.0000 
     20 C20        -2.0030    6.0270    4.6380 C.ar      1 ZZF1500     0.0000 
     21 C21        -0.7880    6.1960    5.2550 C.ar      1 ZZF1500     0.0000 
     22 C22         0.3500    6.2900    4.4810 C.ar      1 ZZF1500     0.0000 
     23 S23        -3.5140    5.8900    5.5870 S.o2      1 ZZF1500     0.0000 
     24 O24        -3.8080    7.2010    6.1360 O.2       1 ZZF1500     0.0000 
     25 O25        -4.3650    5.1960    4.6410 O.2       1 ZZF1500     0.0000 
     26 N26        -3.2930    4.9990    6.7100 N.pl3     1 ZZF1500     0.0000 
     27 H           7.2843   12.5337    3.4557 H         1 ZZF1500     0.0000 
     28 H           5.0771   11.5820    3.1856 H         1 ZZF1500     0.0000 
     29 H           6.0223    8.4193    3.0350 H         1 ZZF1500     0.0000 
     30 H           5.7116    6.6282    1.4856 H         1 ZZF1500     0.0000 
     31 H           1.9533    8.3125    3.9218 H         1 ZZF1500     0.0000 
     32 H           1.3129    5.8337    1.2910 H         1 ZZF1500     0.0000 
     33 H          -1.0111    6.0111    1.4660 H         1 ZZF1500     0.0000 
     34 H          -3.0041    5.8341    2.8076 H         1 ZZF1500     0.0000 
     35 H          -0.7243    6.2520    6.2782 H         1 ZZF1500     0.0000 
     36 H           1.2743    6.4094    4.9403 H         1 ZZF1500     0.0000 
     37 H          -3.8155    5.1981    7.5391 H         1 ZZF1500     0.0000 
     38 H          -2.6365    4.2593    6.5623 H         1 ZZF1500     0.0000 
     39 H           9.7246   11.2480    5.8322 H         1 ZZF1500     0.0000 
     40 H           9.7461   11.6935    4.2871 H         1 ZZF1500     0.0000 
     41 H           9.1814   12.7006    5.4066 H         1 ZZF1500     0.0000 
     42 H           6.6367    8.1854    7.0525 H         1 ZZF1500     0.0000 
     43 H           5.0955    8.6418    7.0019 H         1 ZZF1500     0.0000 
     44 H           5.6720    7.6324    5.8906 H         1 ZZF1500     0.0000 
@<TRIPOS>BOND
     1    2    1 1    
     2   39    1 1    
     3   40    1 1    
     4   41    1 1    
     5    3    2 ar   
     6    7    2 ar   
     7    4    3 ar   
     8   27    3 1    
     9    5    4 ar   
    10   28    4 1    
    11    6    5 ar   
    12    9    5 1    
    13    7    6 ar   
    14    8    6 1    
    15   42    8 1    
    16   43    8 1    
    17   44    8 1    
    18   10    9 1    
    19   11   10 ar   
    20   15   10 ar   
    21   12   11 ar   
    22   29   11 1    
    23   13   12 ar   
    24   30   12 1    
    25   14   13 ar   
    26   15   14 ar   
    27   16   14 1    
    28   31   15 1    
    29   17   16 1    
    30   32   16 1    
    31   18   17 ar   
    32   22   17 ar   
    33   19   18 ar   
    34   33   18 1    
    35   20   19 ar   
    36   34   19 1    
    37   21   20 ar   
    38   23   20 1    
    39   22   21 ar   
    40   35   21 1    
    41   36   22 1    
    42   24   23 2    
    43   25   23 2    
    44   26   23 1    
    45   37   26 1    
    46   38   26 1    
@<TRIPOS>SUBSTRUCTURE
     1 ZZF1500     1 GROUP   
@<TRIPOS>SET

