#    Name: 3qp4_HL0_1_INTS_M
#    Modification time : Tue Mar 25 09:59:45 2014

@<TRIPOS>MOLECULE
3qp4_HL0_1_INTS_M
   61     0     9     0     0
SMALL
NO_CHARGES


@<TRIPOS>ATOM
      1 O          21.9705   13.9200   49.2285 O.2       1 ALC1        0.0000 
      2 O          21.0950   13.7740   48.1690 O.2       7 ALL1        0.0000 
      3 O          22.8460   14.0660   50.2880 O.2       4 ALP1        0.0000 
      4 CA         17.2930   13.5135   56.9190 C.3       3 GLC5        0.0000 
      5 CA         17.1190   11.5370   57.2370 C.3       9 GLL5        0.0000 
      6 CA         17.4670   15.4900   56.6010 C.3       6 GLP5        0.0000 
      7 N          18.3380   13.2445   46.5295 N.am      2 SEC2        0.0000 
      8 N          19.0440   14.1290   47.3230 N.am      8 SEL2        0.0000 
      9 N          17.6320   12.3600   45.7360 N.am      5 SEP2        0.0000 
     10 N          18.2090   15.1625   46.7355 N.am      2 SEC2        0.0000 
     11 N          17.3740   16.1960   46.1480 N.am      5 SEP2        0.0000 
     12 CA         16.8220    9.5900   53.0970 C.3       3 GLC5        0.0000 
     13 CA         17.0340   10.8760   54.8030 C.3       9 GLL5        0.0000 
     14 CA         16.6100    8.3040   51.3910 C.3       6 GLP5        0.0000 
     15 N          20.6880    9.4040   48.4180 N.am      2 SEC2        0.0000 
     16 N          20.6360   10.8940   48.2370 N.am      8 SEL2        0.0000 
     17 N          20.7400    7.9140   48.5990 N.am      5 SEP2        0.0000 
     18 CA         17.3245   13.8480   55.3395 C.3       3 GLC5        0.0000 
     19 CA         17.1820   12.2060   54.0780 C.3       9 GLL5        0.0000 
     20 CA         15.3210   12.9350   54.6785 C.3       3 GLC5        0.0000 
     21 CA         13.4600   13.6640   55.2790 C.3       6 GLP5        0.0000 
     22 CA         17.2695   10.1820   52.0765 C.3       3 GLC5        0.0000 
     23 CA         17.9290   12.0600   52.7620 C.3       9 GLL5        0.0000 
     24 CA         16.0975   13.5635   50.9355 C.3       3 GLC5        0.0000 
     25 CA         17.8210   13.3720   52.0130 C.3       9 GLL5        0.0000 
     26 CA         14.3740   13.7550   49.8580 C.3       6 GLP5        0.0000 
     27 CA         16.4430   14.2780   50.0170 C.3       3 GLC5        0.0000 
     28 CA         18.5120   14.8010   50.1760 C.3       9 GLL5        0.0000 
     29 CA         20.4875   16.5420   48.3140 C.3       3 GLC5        0.0000 
     30 CA         19.6640   15.2850   49.3240 C.3       9 GLL5        0.0000 
     31 CA         21.3110   17.7990   47.3040 C.3       6 GLP5        0.0000 
     32 CA         20.8095   12.7855   45.3790 C.3       3 GLC5        0.0000 
     33 CA         21.4680   12.8770   47.1070 C.3       9 GLL5        0.0000 
     34 CA         20.1510   12.6940   43.6510 C.3       6 GLP5        0.0000 
     35 CA         24.7410   10.2565   46.2930 C.3       3 GLC5        0.0000 
     36 CA         23.4140   11.7080   46.2470 C.3       9 GLL5        0.0000 
     37 CA         26.0680    8.8050   46.3390 C.3       6 GLP5        0.0000 
     38 CA         22.9880    9.9855   45.3215 C.3       3 GLC5        0.0000 
     39 CA         22.5620    8.2630   44.3960 C.3       6 GLP5        0.0000 
     40 CA         19.2315   10.6148   54.8850 C.3       3 GLC5        0.0000 
     41 CA         17.8520   10.8730   56.0890 C.3       9 GLL5        0.0000 
     42 CA         21.0200   10.3550   54.3240 C.3       6 GLP5        0.0000 
     43 CA         17.5899    9.3447   56.6800 C.3       3 GLC5        0.0000 
     44 CA         17.9200    7.6490   57.6270 C.3       6 GLP5        0.0000 
     45 CA         19.4157   11.9225   53.7625 C.3       3 GLC5        0.0000 
     46 CA         21.2760   11.7120   54.1050 C.3       6 GLP5        0.0000 
     47 CA         20.0190   12.7708   52.1445 C.3       3 GLC5        0.0000 
     48 CA         21.7400   12.1270   52.8670 C.3       6 GLP5        0.0000 
     49 CA         18.0545   16.5940   49.9305 C.3       3 GLC5        0.0000 
     50 CA         17.0210   18.1450   50.1110 C.3       6 GLP5        0.0000 
     51 CA         19.5269   16.0550   51.1999 C.3       3 GLC5        0.0000 
     52 CA         19.9000   17.4030   52.4860 C.3       6 GLP5        0.0000 
     53 CA         22.8300   14.8410   46.6612 C.3       3 GLC5        0.0000 
     54 CA         23.4780   16.6910   46.4500 C.3       6 GLP5        0.0000 
     55 CA         22.2500   12.2873   44.7668 C.3       3 GLC5        0.0000 
     56 CA         22.8960   13.1050   46.6380 C.3       9 GLL5        0.0000 
     57 CA         21.3450   12.1680   43.0910 C.3       6 GLP5        0.0000 
     58 CA         24.6920   13.0958   45.7028 C.3       3 GLC5        0.0000 
     59 CA         26.2290   13.7850   44.9630 C.3       6 GLP5        0.0000 
     60 CA         24.2405   11.9288   47.9603 C.3       3 GLC5        0.0000 
     61 CA         25.3260   11.4510   49.4780 C.3       6 GLP5        0.0000 
@<TRIPOS>BOND
@<TRIPOS>SUBSTRUCTURE
     1 ALC1        1 GROUP        1 X    ALC  0     ROOT ALC X 1
     2 SEC2        7 GROUP        1 X    SEC  0     **** SEC X 2
     3 GLC5        4 GROUP        1 X    GLC  0     **** GLC X 6
     4 ALP1        3 GROUP        1 Y    ALP  0     ROOT ALP Y 8
     5 SEP2        9 GROUP        1 Y    SEP  0     **** SEP Y 9
     6 GLP5        6 GROUP        1 Y    GLP  0     **** GLP Y 13
     7 ALL1        2 GROUP        1 Z    ALL  0     ROOT ALL Z 15
     8 SEL2        8 GROUP        1 Z    SEL  0     **** SEL Z 16
     9 GLL5        5 GROUP        1 Z    GLL  0     **** GLL Z 20
@<TRIPOS>SET

