#    Name: 3qp4_HL0_1_ligand
#    Modification time : Tue Mar 25 09:59:45 2014

@<TRIPOS>MOLECULE
3qp4_HL0_1_ligand
   43    43     1     0     0
SMALL
NO_CHARGES


@<TRIPOS>ATOM
      1 N          21.0950   13.7740   48.1690 N.am      1 HL01        0.0000 
      2 C1         17.1190   11.5370   57.2370 C.3       1 HL01        0.0000 
      3 O1         19.0440   14.1290   47.3230 O.2       1 HL01        0.0000 
      4 C2         17.8520   10.8730   56.0890 C.3       1 HL01        0.0000 
      5 O2         22.6020   10.7890   46.9970 O.3       1 HL01        0.0000 
      6 C3         17.0340   10.8760   54.8030 C.3       1 HL01        0.0000 
      7 O3         20.6360   10.8940   48.2370 O.2       1 HL01        0.0000 
      8 C4         17.1820   12.2060   54.0780 C.3       1 HL01        0.0000 
      9 C5         17.9290   12.0600   52.7620 C.3       1 HL01        0.0000 
     10 C6         17.8210   13.3720   52.0130 C.3       1 HL01        0.0000 
     11 C7         18.7750   13.4570   50.8310 C.3       1 HL01        0.0000 
     12 C8         18.5120   14.8010   50.1760 C.3       1 HL01        0.0000 
     13 C9         19.6640   15.2850   49.3240 C.3       1 HL01        0.0000 
     14 C10        19.8950   14.3470   48.1740 C.2       1 HL01        0.0000 
     15 C11        21.4680   12.8770   47.1070 C.3       1 HL01        0.0000 
     16 C12        22.8960   13.1050   46.6380 C.3       1 HL01        0.0000 
     17 C13        23.4140   11.7080   46.2470 C.3       1 HL01        0.0000 
     18 C14        21.4660   11.4510   47.5450 C.2       1 HL01        0.0000 
     19 H          21.7974   13.9421   48.9087 H         1 HL01        0.0000 
     20 H          18.0881    9.8368   56.3595 H         1 HL01        0.0000 
     21 H          18.7989   11.3968   55.9110 H         1 HL01        0.0000 
     22 H          15.9851   10.7107   55.0437 H         1 HL01        0.0000 
     23 H          17.3790   10.0715   54.1556 H         1 HL01        0.0000 
     24 H          17.7214   12.9087   54.7228 H         1 HL01        0.0000 
     25 H          16.1872   12.6220   53.8837 H         1 HL01        0.0000 
     26 H          17.4807   11.2698   52.1790 H         1 HL01        0.0000 
     27 H          18.9667   11.8377   52.9596 H         1 HL01        0.0000 
     28 H          18.0314   14.2018   52.7029 H         1 HL01        0.0000 
     29 H          16.7906   13.4991   51.6510 H         1 HL01        0.0000 
     30 H          18.5627   12.6681   50.1387 H         1 HL01        0.0000 
     31 H          19.7864   13.4151   51.1801 H         1 HL01        0.0000 
     32 H          18.3024   15.5467   50.9596 H         1 HL01        0.0000 
     33 H          17.6069   14.7248   49.5523 H         1 HL01        0.0000 
     34 H          20.5652   15.3440   49.9370 H         1 HL01        0.0000 
     35 H          19.4368   16.2829   48.9445 H         1 HL01        0.0000 
     36 H          20.8281   12.9675   46.2472 H         1 HL01        0.0000 
     37 H          23.4867   13.4887   47.4358 H         1 HL01        0.0000 
     38 H          22.9037   13.7358   45.7808 H         1 HL01        0.0000 
     39 H          23.2861   11.5912   45.1867 H         1 HL01        0.0000 
     40 H          24.4514   11.6500   46.5203 H         1 HL01        0.0000 
     41 H          17.6598   11.5274   58.0781 H         1 HL01        0.0000 
     42 H          16.9046   12.4931   57.0373 H         1 HL01        0.0000 
     43 H          16.2536   11.0787   57.4397 H         1 HL01        0.0000 
@<TRIPOS>BOND
     1   14    1 am   
     2   15    1 1    
     3   19    1 1    
     4    4    2 1    
     5   41    2 1    
     6   42    2 1    
     7   43    2 1    
     8   14    3 2    
     9    6    4 1    
    10   20    4 1    
    11   21    4 1    
    12   17    5 1    
    13   18    5 1    
    14    8    6 1    
    15   22    6 1    
    16   23    6 1    
    17   18    7 2    
    18    9    8 1    
    19   24    8 1    
    20   25    8 1    
    21   10    9 1    
    22   26    9 1    
    23   27    9 1    
    24   11   10 1    
    25   28   10 1    
    26   29   10 1    
    27   12   11 1    
    28   30   11 1    
    29   31   11 1    
    30   13   12 1    
    31   32   12 1    
    32   33   12 1    
    33   14   13 1    
    34   34   13 1    
    35   35   13 1    
    36   16   15 1    
    37   18   15 1    
    38   36   15 1    
    39   17   16 1    
    40   37   16 1    
    41   38   16 1    
    42   39   17 1    
    43   40   17 1    
@<TRIPOS>SUBSTRUCTURE
     1 HL01        1 GROUP   
@<TRIPOS>SET

