#    Name: 3ijo_B4D_2_INTS_M
#    Modification time : Tue Mar 25 16:38:56 2014

@<TRIPOS>MOLECULE
3ijo_B4D_2_INTS_M
   54     0     9     0     0
SMALL
NO_CHARGES


@<TRIPOS>ATOM
      1 CA          1.1850   45.2030  -21.4985 C.3       3 GLC5        0.0000 
      2 CA          0.6050   46.8120  -22.0610 C.3       9 GLL5        0.0000 
      3 CA          1.7650   43.5940  -20.9360 C.3       6 GLP5        0.0000 
      4 CA         -2.3620   47.2935  -22.4000 C.3       3 GLC5        0.0000 
      5 CA         -0.2090   47.8480  -22.1660 C.3       9 GLL5        0.0000 
      6 CA         -4.5150   46.7390  -22.6340 C.3       6 GLP5        0.0000 
      7 CA          1.6970   50.1985  -23.3930 C.3       3 GLC5        0.0000 
      8 CA         -0.0030   48.9590  -23.2000 C.3       9 GLL5        0.0000 
      9 CA          3.3970   51.4380  -23.5860 C.3       6 GLP5        0.0000 
     10 CA          0.5230   51.2940  -23.0365 C.3       3 GLC5        0.0000 
     11 CA         -1.3940   50.1360  -23.1130 C.3       9 GLL5        0.0000 
     12 CA          2.4400   52.4520  -22.9600 C.3       6 GLP5        0.0000 
     13 CA         -1.3940   52.1405  -24.0530 C.3       3 GLC5        0.0000 
     14 CA         -1.3940   54.1450  -24.9930 C.3       6 GLP5        0.0000 
     15 CA         -2.1220   50.0730  -19.2685 C.3       3 GLC5        0.0000 
     16 CA         -2.0410   50.1910  -21.4100 C.3       9 GLL5        0.0000 
     17 CA         -2.2030   49.9550  -17.1270 C.3       6 GLP5        0.0000 
     18 CA         -4.2400   49.5290  -22.2875 C.3       3 GLC5        0.0000 
     19 CA         -3.3100   51.0610  -21.3680 C.3       9 GLL5        0.0000 
     20 CA         -5.1700   47.9970  -23.2070 C.3       6 GLP5        0.0000 
     21 O          -3.5920   50.6055  -19.0085 O.2       1 ALC1        0.0000 
     22 O          -3.8650   51.5170  -20.0640 O.2       7 ALL1        0.0000 
     23 O          -3.3190   49.6940  -17.9530 O.2       4 ALP1        0.0000 
     24 CA         -8.6085   52.9275  -15.5415 C.3       3 GLC5        0.0000 
     25 CA         -7.9710   53.0540  -17.0860 C.3       9 GLL5        0.0000 
     26 CA         -9.2460   52.8010  -13.9970 C.3       6 GLP5        0.0000 
     27 O         -10.0720   51.8665  -20.3230 O.2       1 ALC1        0.0000 
     28 O         -10.0400   53.5090  -19.8060 O.2       7 ALL1        0.0000 
     29 O         -10.1040   50.2240  -20.8400 O.2       4 ALP1        0.0000 
     30 N          -8.0845   56.1405  -21.8760 N.am      2 SEC2        0.0000 
     31 N          -8.9990   55.4080  -20.6940 N.am      8 SEL2        0.0000 
     32 N          -7.1700   56.8730  -23.0580 N.am      5 SEP2        0.0000 
     33 N          -5.9590   54.3760  -23.9735 N.am      2 SEC2        0.0000 
     34 N          -4.4660   54.1860  -23.1540 N.am      8 SEL2        0.0000 
     35 N          -7.4520   54.5660  -24.7930 N.am      5 SEP2        0.0000 
     36 CA          1.0757   47.5953  -23.2409 C.3       3 GLC5        0.0000 
     37 CA          2.0540   47.0460  -23.8250 C.3       6 GLP5        0.0000 
     38 CA          1.2708   48.7952  -21.4694 C.3       3 GLC5        0.0000 
     39 CA          2.4440   49.4460  -20.2820 C.3       6 GLP5        0.0000 
     40 CA         -3.4438   49.0803  -22.7343 C.3       3 GLC5        0.0000 
     41 CA         -7.1152   51.1430  -20.1535 C.3       3 GLC5        0.0000 
     42 CA         -5.2070   52.1760  -20.0000 C.3       9 GLL5        0.0000 
     43 CA         -8.6930   50.0510  -20.9400 C.3       6 GLP5        0.0000 
     44 CA         -4.2722   52.9245  -18.0320 C.3       3 GLC5        0.0000 
     45 CA         -3.0070   53.6140  -16.6970 C.3       6 GLP5        0.0000 
     46 CA         -8.0155   51.7007  -20.0700 C.3       3 GLC5        0.0000 
     47 CA         -7.0800   53.0150  -18.6340 C.3       9 GLL5        0.0000 
     48 CA         -6.2598   53.3432  -16.5240 C.3       3 GLC5        0.0000 
     49 CA         -4.9940   53.6520  -15.1880 C.3       6 GLP5        0.0000 
     50 CA         -7.4947   51.6505  -20.9952 C.3       3 GLC5        0.0000 
     51 CA         -6.9070   53.6220  -21.0000 C.3       9 GLL5        0.0000 
     52 CA         -6.0829   55.2440  -20.9520 C.3       3 GLC5        0.0000 
     53 CA         -5.6860   52.8780  -21.1010 C.3       9 GLL5        0.0000 
     54 CA         -5.6970   57.2220  -21.1620 C.3       6 GLP5        0.0000 
@<TRIPOS>BOND
@<TRIPOS>SUBSTRUCTURE
     1 ALC1       21 GROUP        1 X    ALC  0     ROOT ALC X 1
     2 SEC2       30 GROUP        1 X    SEC  0     **** SEC X 2
     3 GLC5        1 GROUP        1 X    GLC  0     **** GLC X 6
     4 ALP1       23 GROUP        1 Y    ALP  0     ROOT ALP Y 8
     5 SEP2       32 GROUP        1 Y    SEP  0     **** SEP Y 9
     6 GLP5        3 GROUP        1 Y    GLP  0     **** GLP Y 13
     7 ALL1       22 GROUP        1 Z    ALL  0     ROOT ALL Z 15
     8 SEL2       31 GROUP        1 Z    SEL  0     **** SEL Z 16
     9 GLL5        2 GROUP        1 Z    GLL  0     **** GLL Z 20
@<TRIPOS>SET

