#    Name: 3ijo_B4D_2_ligand
#    Modification time : Tue Mar 25 16:38:57 2014

@<TRIPOS>MOLECULE
3ijo_B4D_2_ligand
   34    35     1     0     0
SMALL
NO_CHARGES


@<TRIPOS>ATOM
      1 C01         0.6050   46.8120  -22.0610 C.2       1 B4D401      0.0000 
      2 C02        -0.2090   47.8480  -22.1660 C.2       1 B4D401      0.0000 
      3 C03        -0.0030   48.9590  -23.2000 C.3       1 B4D401      0.0000 
      4 S04        -1.3940   50.1360  -23.1130 S.3       1 B4D401      0.0000 
      5 C05        -2.0410   50.1910  -21.4100 C.3       1 B4D401      0.0000 
      6 C06        -3.3100   51.0610  -21.3680 C.3       1 B4D401      0.0000 
      7 N07        -3.8650   51.5170  -20.0640 N.pl3     1 B4D401      0.0000 
      8 C08        -5.2070   52.1760  -20.0000 C.ar      1 B4D401      0.0000 
      9 C09        -5.8680   52.2940  -18.7340 C.ar      1 B4D401      0.0000 
     10 C10        -7.0800   53.0150  -18.6340 C.ar      1 B4D401      0.0000 
     11 CL11       -7.9710   53.0540  -17.0860 Cl        1 B4D401      0.0000 
     12 C12        -7.5960   53.6860  -19.7660 C.ar      1 B4D401      0.0000 
     13 S13        -8.9300   54.4500  -19.6690 S.o2      1 B4D401      0.0000 
     14 N14       -10.0400   53.5090  -19.8060 N.pl3     1 B4D401      0.0000 
     15 O15        -8.9990   55.4080  -20.6940 O.2       1 B4D401      0.0000 
     16 O16        -9.0120   55.0930  -18.4180 O.2       1 B4D401      0.0000 
     17 C17        -6.9070   53.6220  -21.0000 C.ar      1 B4D401      0.0000 
     18 C18        -5.6860   52.8780  -21.1010 C.ar      1 B4D401      0.0000 
     19 S19        -4.7320   52.8220  -22.6890 S.o2      1 B4D401      0.0000 
     20 O20        -5.5080   52.1060  -23.6980 O.2       1 B4D401      0.0000 
     21 O21        -4.4660   54.1860  -23.1540 O.2       1 B4D401      0.0000 
     22 N22        -3.4010   52.0910  -22.4410 N.pl3     1 B4D401      0.0000 
     23 H          -1.0446   47.9941  -21.5653 H         1 B4D401      0.0000 
     24 H          -0.0542   48.6245  -24.2021 H         1 B4D401      0.0000 
     25 H           0.8294   49.5800  -22.9995 H         1 B4D401      0.0000 
     26 H          -1.2288   50.6009  -20.8715 H         1 B4D401      0.0000 
     27 H          -2.2207   49.1702  -21.2021 H         1 B4D401      0.0000 
     28 H          -4.1588   50.2636  -21.7424 H         1 B4D401      0.0000 
     29 H          -3.3413   51.3838  -19.2254 H         1 B4D401      0.0000 
     30 H          -5.4583   51.8559  -17.9123 H         1 B4D401      0.0000 
     31 H         -10.9580   53.9049  -19.7825 H         1 B4D401      0.0000 
     32 H          -9.7903   52.5465  -19.9120 H         1 B4D401      0.0000 
     33 H          -7.2712   54.1009  -21.8200 H         1 B4D401      0.0000 
     34 H          -2.6227   52.3185  -23.0017 H         1 B4D401      0.0000 
@<TRIPOS>BOND
     1    2    1 2    
     2    3    2 1    
     3   23    2 1    
     4    4    3 1    
     5   24    3 1    
     6   25    3 1    
     7    5    4 1    
     8    6    5 1    
     9   26    5 1    
    10   27    5 1    
    11    7    6 1    
    12   22    6 1    
    13   28    6 1    
    14    8    7 1    
    15   29    7 1    
    16    9    8 ar   
    17   18    8 ar   
    18   10    9 ar   
    19   30    9 1    
    20   11   10 1    
    21   12   10 ar   
    22   13   12 1    
    23   17   12 ar   
    24   14   13 1    
    25   15   13 2    
    26   16   13 2    
    27   31   14 1    
    28   32   14 1    
    29   18   17 ar   
    30   33   17 1    
    31   19   18 1    
    32   20   19 2    
    33   21   19 2    
    34   22   19 1    
    35   34   22 1    
@<TRIPOS>SUBSTRUCTURE
     1 B4D401      1 GROUP   
@<TRIPOS>SET

