#    Name: 2x4f_16X_1_INTS_M
#    Modification time : Tue Mar 25 05:04:46 2014

@<TRIPOS>MOLECULE
2x4f_16X_1_INTS_M
   63     0     9     0     0
SMALL
NO_CHARGES


@<TRIPOS>ATOM
      1 CA         84.6485   49.5240   32.0495 C.3       3 GLC5        0.0000 
      2 CA         86.5030   48.7710   31.4040 C.3       9 GLL5        0.0000 
      3 CA         82.7940   50.2770   32.6950 C.3       6 GLP5        0.0000 
      4 CA         86.0285   46.5505   29.5045 C.3       3 GLC5        0.0000 
      5 CA         85.9630   47.8680   30.5060 C.3       9 GLL5        0.0000 
      6 CA         86.0940   45.2330   28.5030 C.3       6 GLP5        0.0000 
      7 CA         84.3895   49.1880   30.3285 C.3       3 GLC5        0.0000 
      8 CA         82.8160   50.5080   30.1510 C.3       6 GLP5        0.0000 
      9 CA         89.7630   50.3540   32.0205 C.3       3 GLC5        0.0000 
     10 CA         87.7510   50.7480   32.3130 C.3       9 GLL5        0.0000 
     11 CA         91.7750   49.9600   31.7280 C.3       6 GLP5        0.0000 
     12 CA         88.6470   48.3120   31.0205 C.3       3 GLC5        0.0000 
     13 CA         87.2580   49.8770   30.9620 C.3       9 GLL5        0.0000 
     14 CA         90.0360   46.7470   31.0790 C.3       6 GLP5        0.0000 
     15 CA         89.6955   49.8925   29.4510 C.3       3 GLC5        0.0000 
     16 CA         87.6000   50.2660   29.6590 C.3       9 GLL5        0.0000 
     17 CA         91.7910   49.5190   29.2430 C.3       6 GLP5        0.0000 
     18 CA         86.8610   52.3340   29.2830 C.3       3 GLC5        0.0000 
     19 CA         86.1220   54.4020   28.9070 C.3       6 GLP5        0.0000 
     20 CA         86.6235   47.4195   28.5100 C.3       3 GLC5        0.0000 
     21 CA         87.1530   49.6060   28.5170 C.3       9 GLL5        0.0000 
     22 CA         85.2015   50.5235   28.7530 C.3       3 GLC5        0.0000 
     23 CA         83.2500   51.4410   28.9890 C.3       6 GLP5        0.0000 
     24 CA         88.4510   50.1690   25.5860 C.3       3 GLC5        0.0000 
     25 CA         87.5540   50.0730   27.2780 C.3       9 GLL5        0.0000 
     26 CA         89.3480   50.2650   23.8940 C.3       6 GLP5        0.0000 
     27 CA         86.8900   51.8805   26.2035 C.3       3 GLC5        0.0000 
     28 CA         86.2260   53.6880   25.1290 C.3       6 GLP5        0.0000 
     29 N          88.5930   51.8215   25.9280 N.am      2 SEC2        0.0000 
     30 N          88.3440   51.1230   27.2000 N.am      8 SEL2        0.0000 
     31 N          88.8420   52.5200   24.6560 N.am      5 SEP2        0.0000 
     32 CA         90.2895   50.6375   28.7710 C.3       3 GLC5        0.0000 
     33 CA         88.7880   51.7560   28.2990 C.3       9 GLL5        0.0000 
     34 CA         88.1340   53.1005   26.8655 C.3       3 GLC5        0.0000 
     35 CA         87.4800   54.4450   25.4320 C.3       6 GLP5        0.0000 
     36 CA         87.4550   53.0790   28.6030 C.3       3 GLC5        0.0000 
     37 O          89.9080   53.7095   27.1915 O.2       1 ALC1        0.0000 
     38 O          89.5850   52.8230   28.1410 O.2       7 ALL1        0.0000 
     39 O          90.2310   54.5960   26.2420 O.2       4 ALP1        0.0000 
     40 CA         91.1150   51.4565   29.1220 C.3       3 GLC5        0.0000 
     41 CA         90.4390   53.3940   29.0010 C.3       9 GLL5        0.0000 
     42 CA         88.2805   53.8980   28.9540 C.3       3 GLC5        0.0000 
     43 CA         90.9495   51.8000   31.0295 C.3       3 GLC5        0.0000 
     44 CA         90.1240   53.6400   30.3310 C.3       9 GLL5        0.0000 
     45 CA         88.2110   54.4575   30.8050 C.3       3 GLC5        0.0000 
     46 CA         86.2980   55.2750   31.2790 C.3       6 GLP5        0.0000 
     47 CA         92.3250   56.4420   28.4370 C.3       3 GLC5        0.0000 
     48 CA         92.6250   54.4290   29.3620 C.3       9 GLL5        0.0000 
     49 CA         92.0250   58.4550   27.5120 C.3       6 GLP5        0.0000 
     50 CA         87.4065   47.0973   31.9295 C.3       3 GLC5        0.0000 
     51 CA         88.5800   45.8750   32.9040 C.3       6 GLP5        0.0000 
     52 CA         88.6668   48.4488   27.3792 C.3       3 GLC5        0.0000 
     53 CA         89.9800   47.0580   26.8610 C.3       6 GLP5        0.0000 
     54 CA         85.7368   50.0403   26.6647 C.3       3 GLC5        0.0000 
     55 CA         84.1200   50.2410   25.4320 C.3       6 GLP5        0.0000 
     56 CA         92.8822   52.5150   29.5945 C.3       3 GLC5        0.0000 
     57 CA         91.6880   53.8070   28.5300 C.3       9 GLL5        0.0000 
     58 CA         93.6080   50.9120   30.2430 C.3       6 GLP5        0.0000 
     59 CA         92.6418   52.6852   30.5850 C.3       3 GLC5        0.0000 
     60 CA         92.2990   54.6570   30.6920 C.3       9 GLL5        0.0000 
     61 CA         89.7514   55.5932   29.8310 C.3       3 GLC5        0.0000 
     62 CA         91.0520   54.2600   31.1620 C.3       9 GLL5        0.0000 
     63 CA         88.8360   57.2980   29.2480 C.3       6 GLP5        0.0000 
@<TRIPOS>BOND
@<TRIPOS>SUBSTRUCTURE
     1 ALC1       37 GROUP        1 X    ALC  0     ROOT ALC X 1
     2 SEC2       29 GROUP        1 X    SEC  0     **** SEC X 2
     3 GLC5        1 GROUP        1 X    GLC  0     **** GLC X 6
     4 ALP1       39 GROUP        1 Y    ALP  0     ROOT ALP Y 8
     5 SEP2       31 GROUP        1 Y    SEP  0     **** SEP Y 9
     6 GLP5        3 GROUP        1 Y    GLP  0     **** GLP Y 13
     7 ALL1       38 GROUP        1 Z    ALL  0     ROOT ALL Z 15
     8 SEL2       30 GROUP        1 Z    SEL  0     **** SEL Z 16
     9 GLL5        2 GROUP        1 Z    GLL  0     **** GLL Z 20
@<TRIPOS>SET

