#    Name: 2x4f_16X_1_ligand
#    Modification time : Tue Mar 25 05:04:46 2014

@<TRIPOS>MOLECULE
2x4f_16X_1_ligand
   35    38     1     0     0
SMALL
NO_CHARGES


@<TRIPOS>ATOM
      1 N7A        87.0450   49.8870   34.7010 N.pl3     1 16X1374     0.0000 
      2 C3A        87.0210   49.7290   33.3880 C.2       1 16X1374     0.0000 
      3 N2A        86.4040   48.7390   32.7420 N.2       1 16X1374     0.0000 
      4 C1A        86.5030   48.7710   31.4040 C.2       1 16X1374     0.0000 
      5 C6A        85.9630   47.8680   30.5060 C.3       1 16X1374     0.0000 
      6 S4A        87.7510   50.7480   32.3130 S.3       1 16X1374     0.0000 
      7 C5A        87.2580   49.8770   30.9620 C.2       1 16X1374     0.0000 
      8 C4         87.6000   50.2660   29.6590 C.ar      1 16X1374     0.0000 
      9 N3         88.4070   51.3300   29.5100 N.ar      1 16X1374     0.0000 
     10 C5         87.1530   49.6060   28.5170 C.ar      1 16X1374     0.0000 
     11 C6         87.5540   50.0730   27.2780 C.ar      1 16X1374     0.0000 
     12 N1         88.3440   51.1230   27.2000 N.ar      1 16X1374     0.0000 
     13 C2         88.7880   51.7560   28.2990 C.ar      1 16X1374     0.0000 
     14 N7         89.5850   52.8230   28.1410 N.pl3     1 16X1374     0.0000 
     15 C1B        90.4390   53.3940   29.0010 C.ar      1 16X1374     0.0000 
     16 C6B        91.6880   53.8070   28.5300 C.ar      1 16X1374     0.0000 
     17 C2B        90.1240   53.6400   30.3310 C.ar      1 16X1374     0.0000 
     18 C3B        91.0520   54.2600   31.1620 C.ar      1 16X1374     0.0000 
     19 N7B        90.7460   54.4730   32.4270 N.pl3     1 16X1374     0.0000 
     20 O8B        91.1030   54.3660   33.7370 O.3       1 16X1374     0.0000 
     21 O9B        89.8650   54.9440   33.3580 O.3       1 16X1374     0.0000 
     22 C4B        92.2990   54.6570   30.6920 C.ar      1 16X1374     0.0000 
     23 C5B        92.6250   54.4290   29.3620 C.ar      1 16X1374     0.0000 
     24 H          87.5903   50.6527   35.0422 H         1 16X1374     0.0000 
     25 H          86.5157   49.2265   35.2334 H         1 16X1374     0.0000 
     26 H          86.5410   48.7932   28.5971 H         1 16X1374     0.0000 
     27 H          87.2158   49.5750   26.4292 H         1 16X1374     0.0000 
     28 H          89.5278   53.3090   27.1404 H         1 16X1374     0.0000 
     29 H          91.9290   53.6476   27.5312 H         1 16X1374     0.0000 
     30 H          89.2057   53.3646   30.7027 H         1 16X1374     0.0000 
     31 H          92.9672   55.1114   31.3193 H         1 16X1374     0.0000 
     32 H          93.5339   54.7093   28.9918 H         1 16X1374     0.0000 
     33 H          86.1744   48.1135   29.5599 H         1 16X1374     0.0000 
     34 H          86.3127   46.9429   30.6539 H         1 16X1374     0.0000 
     35 H          84.9670   47.8202   30.5809 H         1 16X1374     0.0000 
@<TRIPOS>BOND
     1    2    1 1    
     2   24    1 1    
     3   25    1 1    
     4    3    2 2    
     5    6    2 1    
     6    4    3 1    
     7    5    4 1    
     8    7    4 2    
     9   33    5 1    
    10   34    5 1    
    11   35    5 1    
    12    7    6 1    
    13    8    7 1    
    14    9    8 ar   
    15   10    8 ar   
    16   13    9 ar   
    17   11   10 ar   
    18   26   10 1    
    19   12   11 ar   
    20   27   11 1    
    21   13   12 ar   
    22   14   13 1    
    23   15   14 1    
    24   28   14 1    
    25   16   15 ar   
    26   17   15 ar   
    27   23   16 ar   
    28   29   16 1    
    29   18   17 ar   
    30   30   17 1    
    31   19   18 1    
    32   22   18 ar   
    33   20   19 1    
    34   21   19 1    
    35   21   20 1    
    36   23   22 ar   
    37   31   22 1    
    38   32   23 1    
@<TRIPOS>SUBSTRUCTURE
     1 16X1374     1 GROUP   
@<TRIPOS>SET

