#    Name: 3peh_IBD_2_INTS_M
#    Modification time : Tue Mar 25 06:27:58 2014

@<TRIPOS>MOLECULE
3peh_IBD_2_INTS_M
   69     0     9     0     0
SMALL
NO_CHARGES


@<TRIPOS>ATOM
      1 CA         47.0715   71.3815   53.0795 C.3       3 GLC5        0.0000 
      2 CA         45.5510   72.0440   51.6260 C.3       9 GLL5        0.0000 
      3 CA         48.5920   70.7190   54.5330 C.3       6 GLP5        0.0000 
      4 CA         43.9565   70.9505   52.4550 C.3       3 GLC5        0.0000 
      5 CA         42.3620   69.8570   53.2840 C.3       6 GLP5        0.0000 
      6 CA         44.9155   72.1735   49.7095 C.3       3 GLC5        0.0000 
      7 CA         44.2800   72.3030   47.7930 C.3       6 GLP5        0.0000 
      8 CA         37.0280   74.1430   53.4055 C.3       3 GLC5        0.0000 
      9 CA         37.6620   75.7640   53.8080 C.3       9 GLL5        0.0000 
     10 CA         36.3940   72.5220   53.0030 C.3       6 GLP5        0.0000 
     11 CA         46.0650   80.8795   57.2220 C.3       3 GLC5        0.0000 
     12 CA         47.2750   79.7080   58.2420 C.3       9 GLL5        0.0000 
     13 CA         44.8550   82.0510   56.2020 C.3       6 GLP5        0.0000 
     14 CA         48.5825   80.3955   57.3695 C.3       3 GLC5        0.0000 
     15 CA         49.8900   81.0830   56.4970 C.3       6 GLP5        0.0000 
     16 O          45.5150   70.0110   50.0760 O.2       1 ALC1        0.0000 
     17 O          46.0450   71.0500   50.9000 O.2       7 ALL1        0.0000 
     18 O          44.9850   68.9720   49.2520 O.2       4 ALP1        0.0000 
     19 N          42.6975   77.7065   54.9145 N.am      2 SEC2        0.0000 
     20 N          41.6970   76.5940   55.1440 N.am      8 SEL2        0.0000 
     21 N          43.6980   78.8190   54.6850 N.am      5 SEP2        0.0000 
     22 CA         49.7510   79.5455   55.8515 C.3       3 GLC5        0.0000 
     23 CA         49.6120   78.0080   55.2060 C.3       9 GLL5        0.0000 
     24 CA         51.5040   79.0755   55.3915 C.3       3 GLC5        0.0000 
     25 CA         53.3960   80.1430   55.5770 C.3       6 GLP5        0.0000 
     26 CA         49.6695   75.5335   51.1845 C.3       3 GLC5        0.0000 
     27 CA         47.6380   75.4480   50.9530 C.3       9 GLL5        0.0000 
     28 CA         51.7010   75.6190   51.4160 C.3       6 GLP5        0.0000 
     29 CA         47.5200   75.9265   48.9270 C.3       3 GLC5        0.0000 
     30 CA         47.4020   76.4050   46.9010 C.3       6 GLP5        0.0000 
     31 CA         48.4080   77.3550   50.5615 C.3       3 GLC5        0.0000 
     32 CA         49.1780   79.2620   50.1700 C.3       6 GLP5        0.0000 
     33 CA         46.4410   74.4510   49.3305 C.3       3 GLC5        0.0000 
     34 CA         45.2440   73.4540   47.7080 C.3       6 GLP5        0.0000 
     35 CA         48.4380   74.3290   49.7770 C.3       3 GLC5        0.0000 
     36 CA         49.2380   73.2100   48.6010 C.3       6 GLP5        0.0000 
     37 CA         38.9015   74.0795   54.0200 C.3       3 GLC5        0.0000 
     38 CA         38.9250   76.0900   54.6180 C.3       9 GLL5        0.0000 
     39 CA         38.8780   72.0690   53.4220 C.3       6 GLP5        0.0000 
     40 CA         48.5040   76.2360   60.0185 C.3       3 GLC5        0.0000 
     41 CA         46.8820   76.6120   58.9330 C.3       9 GLL5        0.0000 
     42 CA         50.1260   75.8600   61.1040 C.3       6 GLP5        0.0000 
     43 O          39.5835   75.1605   52.5455 O.2       1 ALC1        0.0000 
     44 O          40.1010   75.4540   53.9940 O.2       7 ALL1        0.0000 
     45 O          39.0660   74.8670   51.0970 O.2       4 ALP1        0.0000 
     46 CA         40.4715   72.8520   53.0180 C.3       3 GLC5        0.0000 
     47 CA         42.0650   73.6350   52.6140 C.3       9 GLL5        0.0000 
     48 CA         40.9360   73.5245   50.9755 C.3       3 GLC5        0.0000 
     49 CA         39.8070   73.4140   49.3370 C.3       6 GLP5        0.0000 
     50 CA         42.6160   71.6407   52.8817 C.3       3 GLC5        0.0000 
     51 CA         43.6750   73.2140   52.3450 C.3       9 GLL5        0.0000 
     52 CA         45.3593   75.6728   51.8850 C.3       3 GLC5        0.0000 
     53 CA         45.8790   73.9800   52.9430 C.3       9 GLL5        0.0000 
     54 CA         44.3970   76.8970   50.5450 C.3       6 GLP5        0.0000 
     55 CA         38.7677   77.8805   53.6190 C.3       3 GLC5        0.0000 
     56 CA         39.2420   79.8340   53.0250 C.3       6 GLP5        0.0000 
     57 CA         46.4967   80.8182   60.0415 C.3       3 GLC5        0.0000 
     58 CA         46.3560   78.9650   59.2060 C.3       9 GLL5        0.0000 
     59 CA         46.1780   82.3000   61.3590 C.3       6 GLP5        0.0000 
     60 CA         46.0120   76.2262   51.1783 C.3       3 GLC5        0.0000 
     61 CA         47.6160   75.6630   52.6700 C.3       9 GLL5        0.0000 
     62 CA         50.5261   76.3506   53.9564 C.3       3 GLC5        0.0000 
     63 CA         48.5050   76.5950   53.2040 C.3       9 GLL5        0.0000 
     64 CA         52.2690   75.6900   53.8670 C.3       6 GLP5        0.0000 
     65 CA         44.1532   75.6339   51.8701 C.3       3 GLC5        0.0000 
     66 CA         43.7410   75.0610   53.7040 C.3       9 GLL5        0.0000 
     67 CA         42.0232   75.9220   52.2310 C.3       3 GLC5        0.0000 
     68 CA         42.4160   74.9510   53.5580 C.3       9 GLL5        0.0000 
     69 CA         41.8060   77.5510   51.3760 C.3       6 GLP5        0.0000 
@<TRIPOS>BOND
@<TRIPOS>SUBSTRUCTURE
     1 ALC1       16 GROUP        1 X    ALC  0     ROOT ALC X 1
     2 SEC2       19 GROUP        1 X    SEC  0     **** SEC X 2
     3 GLC5        1 GROUP        1 X    GLC  0     **** GLC X 6
     4 ALP1       18 GROUP        1 Y    ALP  0     ROOT ALP Y 8
     5 SEP2       21 GROUP        1 Y    SEP  0     **** SEP Y 9
     6 GLP5        3 GROUP        1 Y    GLP  0     **** GLP Y 13
     7 ALL1       17 GROUP        1 Z    ALL  0     ROOT ALL Z 15
     8 SEL2       20 GROUP        1 Z    SEL  0     **** SEL Z 16
     9 GLL5        2 GROUP        1 Z    GLL  0     **** GLL Z 20
@<TRIPOS>SET

