#    Name: 3peh_IBD_2_ligand
#    Modification time : Tue Mar 25 06:27:58 2014

@<TRIPOS>MOLECULE
3peh_IBD_2_ligand
   57    59     1     0     0
SMALL
NO_CHARGES


@<TRIPOS>ATOM
      1 N1         46.3720   72.9410   52.2250 N.ar      1 IBD1001     0.0000 
      2 C2         45.5510   72.0440   51.6260 C.ar      1 IBD1001     0.0000 
      3 N3         44.2190   72.1890   51.6710 N.ar      1 IBD1001     0.0000 
      4 C4         43.6750   73.2140   52.3450 C.ar      1 IBD1001     0.0000 
      5 C5         44.4810   74.1470   53.0280 C.ar      1 IBD1001     0.0000 
      6 C6         45.8790   73.9800   52.9430 C.ar      1 IBD1001     0.0000 
      7 CAA        37.6620   75.7640   53.8080 C.3       1 IBD1001     0.0000 
      8 CAB        47.2750   79.7080   58.2420 C.3       1 IBD1001     0.0000 
      9 CAC        44.3220   76.9720   60.2680 C.3       1 IBD1001     0.0000 
     10 NAD        46.0450   71.0500   50.9000 N.pl3     1 IBD1001     0.0000 
     11 OAE        41.6970   76.5940   55.1440 O.2       1 IBD1001     0.0000 
     12 CLAF       49.6120   78.0080   55.2060 Cl        1 IBD1001     0.0000 
     13 CLAG       47.6380   75.4480   50.9530 Cl        1 IBD1001     0.0000 
     14 CAH        48.5050   76.5950   53.2040 C.ar      1 IBD1001     0.0000 
     15 CAI        46.7990   75.1660   54.8940 C.ar      1 IBD1001     0.0000 
     16 CAJ        43.7410   75.0610   53.7040 C.2       1 IBD1001     0.0000 
     17 CAK        38.9250   76.0900   54.6180 C.3       1 IBD1001     0.0000 
     18 CAL        46.3560   78.9650   59.2060 C.3       1 IBD1001     0.0000 
     19 CAM        44.5530   77.3810   58.8080 C.3       1 IBD1001     0.0000 
     20 CAN        47.0170   75.6780   57.7220 C.3       1 IBD1001     0.0000 
     21 CAO        46.8820   76.6120   58.9330 C.3       1 IBD1001     0.0000 
     22 NAR        40.1010   75.4540   53.9940 N.am      1 IBD1001     0.0000 
     23 OAS        47.7790   76.4240   56.7530 O.3       1 IBD1001     0.0000 
     24 SAT        42.0650   73.6350   52.6140 S.3       1 IBD1001     0.0000 
     25 CAU        41.3620   75.7680   54.2950 C.2       1 IBD1001     0.0000 
     26 CAW        48.5110   76.8470   54.5690 C.ar      1 IBD1001     0.0000 
     27 CAX        47.6160   75.6630   52.6700 C.ar      1 IBD1001     0.0000 
     28 CAY        47.6770   76.1280   55.4240 C.ar      1 IBD1001     0.0000 
     29 CAZ        42.4160   74.9510   53.5580 C.2       1 IBD1001     0.0000 
     30 CBA        46.7640   74.9170   53.5070 C.ar      1 IBD1001     0.0000 
     31 NBE        45.9670   77.7100   58.5660 N.4       1 IBD1001     0.0000 
     32 H          47.0402   71.0271   50.8046 H         1 IBD1001     0.0000 
     33 H          45.3776   70.4134   50.5137 H         1 IBD1001     0.0000 
     34 H          49.1556   77.0946   52.5838 H         1 IBD1001     0.0000 
     35 H          46.1788   74.6407   55.5200 H         1 IBD1001     0.0000 
     36 H          44.1719   75.7752   54.2783 H         1 IBD1001     0.0000 
     37 H          38.7833   75.7251   55.6355 H         1 IBD1001     0.0000 
     38 H          39.0427   77.1735   54.6482 H         1 IBD1001     0.0000 
     39 H          45.4913   79.5861   59.4061 H         1 IBD1001     0.0000 
     40 H          46.8967   78.7829   60.1269 H         1 IBD1001     0.0000 
     41 H          43.9125   78.2429   58.5888 H         1 IBD1001     0.0000 
     42 H          44.2335   76.5522   58.1660 H         1 IBD1001     0.0000 
     43 H          46.0291   75.4454   57.3660 H         1 IBD1001     0.0000 
     44 H          47.5302   74.7881   58.0404 H         1 IBD1001     0.0000 
     45 H          47.8637   76.9943   59.1831 H         1 IBD1001     0.0000 
     46 H          46.4873   76.0416   59.7644 H         1 IBD1001     0.0000 
     47 H          39.8715   74.7176   53.2776 H         1 IBD1001     0.0000 
     48 H          46.0804   77.8641   57.4523 H         1 IBD1001     0.0000 
     49 H          37.7278   76.0969   52.8674 H         1 IBD1001     0.0000 
     50 H          37.4959   74.7791   53.7594 H         1 IBD1001     0.0000 
     51 H          36.8458   76.1794   54.2095 H         1 IBD1001     0.0000 
     52 H          47.5801   80.5824   58.6193 H         1 IBD1001     0.0000 
     53 H          48.0959   79.1783   58.0288 H         1 IBD1001     0.0000 
     54 H          46.8203   79.9061   57.3737 H         1 IBD1001     0.0000 
     55 H          44.8644   76.1704   60.5194 H         1 IBD1001     0.0000 
     56 H          44.5697   77.7042   60.9024 H         1 IBD1001     0.0000 
     57 H          43.3641   76.7443   60.4428 H         1 IBD1001     0.0000 
@<TRIPOS>BOND
     1    2    1 ar   
     2    6    1 ar   
     3    3    2 ar   
     4   10    2 1    
     5    4    3 ar   
     6    5    4 ar   
     7   24    4 1    
     8    6    5 ar   
     9   16    5 1    
    10   30    6 1    
    11   17    7 1    
    12   49    7 1    
    13   50    7 1    
    14   51    7 1    
    15   18    8 1    
    16   52    8 1    
    17   53    8 1    
    18   54    8 1    
    19   19    9 1    
    20   55    9 1    
    21   56    9 1    
    22   57    9 1    
    23   32   10 1    
    24   33   10 1    
    25   25   11 2    
    26   26   12 1    
    27   27   13 1    
    28   26   14 ar   
    29   27   14 ar   
    30   34   14 1    
    31   28   15 ar   
    32   30   15 ar   
    33   35   15 1    
    34   29   16 2    
    35   36   16 1    
    36   22   17 1    
    37   37   17 1    
    38   38   17 1    
    39   31   18 1    
    40   39   18 1    
    41   40   18 1    
    42   31   19 1    
    43   41   19 1    
    44   42   19 1    
    45   21   20 1    
    46   23   20 1    
    47   43   20 1    
    48   44   20 1    
    49   31   21 1    
    50   45   21 1    
    51   46   21 1    
    52   25   22 am   
    53   47   22 1    
    54   28   23 1    
    55   29   24 1    
    56   29   25 1    
    57   28   26 ar   
    58   30   27 ar   
    59   48   31 1    
@<TRIPOS>SUBSTRUCTURE
     1 IBD1001     1 GROUP   
@<TRIPOS>SET

