#    Name: 4hvi_19S_1_INTS_M
#    Modification time : Tue Mar 25 01:49:46 2014

@<TRIPOS>MOLECULE
4hvi_19S_1_INTS_M
   67     0     9     0     0
SMALL
NO_CHARGES


@<TRIPOS>ATOM
      1 CA          5.7665  -14.1815   -8.2375 C.3       3 GLC5        0.0000 
      2 CA          6.1610  -15.2020   -6.4320 C.3       9 GLL5        0.0000 
      3 CA          5.3720  -13.1610  -10.0430 C.3       6 GLP5        0.0000 
      4 CA          7.9655  -16.3465   -2.1665 C.3       3 GLC5        0.0000 
      5 CA          7.2170  -16.6180   -4.0670 C.3       9 GLL5        0.0000 
      6 CA          8.7140  -16.0750   -0.2660 C.3       6 GLP5        0.0000 
      7 N          -3.9755  -13.7495   -2.8190 N.am      2 SEC2        0.0000 
      8 N          -2.5350  -14.2800   -3.0510 N.am      8 SEL2        0.0000 
      9 N          -5.4160  -13.2190   -2.5870 N.am      5 SEP2        0.0000 
     10 CA         -4.4215  -14.7245   -3.3185 C.3       3 GLC5        0.0000 
     11 CA         -2.4230  -15.6060   -3.1920 C.3       9 GLL5        0.0000 
     12 CA         -6.4200  -13.8430   -3.4450 C.3       6 GLP5        0.0000 
     13 CA         -3.0595  -12.6750   -2.1035 C.3       3 GLC5        0.0000 
     14 CA         -1.5310  -13.4810   -3.4500 C.3       9 GLL5        0.0000 
     15 CA         -4.5880  -11.8690   -0.7570 C.3       6 GLP5        0.0000 
     16 O          -2.1340  -11.1250   -2.8355 O.2       1 ALC1        0.0000 
     17 O          -1.3390  -12.1110   -3.4490 O.2       7 ALL1        0.0000 
     18 O          -2.9290  -10.1390   -2.2220 O.2       4 ALP1        0.0000 
     19 CA         -0.9430  -10.5410   -5.1130 C.3       3 GLC5        0.0000 
     20 CA         -0.1230  -11.8150   -3.9890 C.3       9 GLL5        0.0000 
     21 CA         -1.7630   -9.2670   -6.2370 C.3       6 GLP5        0.0000 
     22 CA          1.0755  -10.3070   -3.8800 C.3       3 GLC5        0.0000 
     23 CA          2.2740   -8.7990   -3.7710 C.3       6 GLP5        0.0000 
     24 CA          1.7445  -11.3935   -3.3955 C.3       3 GLC5        0.0000 
     25 CA          0.5350  -12.9630   -4.3340 C.3       9 GLL5        0.0000 
     26 CA          2.9540   -9.8240   -2.4570 C.3       6 GLP5        0.0000 
     27 CA          4.1435  -14.3650   -4.2810 C.3       3 GLC5        0.0000 
     28 CA          3.3400  -14.7410   -6.1370 C.3       9 GLL5        0.0000 
     29 CA          4.9470  -13.9890   -2.4250 C.3       6 GLP5        0.0000 
     30 CA         -0.8745  -18.8070   -7.2715 C.3       3 GLC5        0.0000 
     31 CA         -0.4850  -18.1880   -5.1630 C.3       9 GLL5        0.0000 
     32 CA         -1.2640  -19.4260   -9.3800 C.3       6 GLP5        0.0000 
     33 CA          0.7450  -15.3210   -7.6115 C.3       3 GLC5        0.0000 
     34 CA          2.8670  -15.2650   -7.5040 C.3       9 GLL5        0.0000 
     35 CA         -1.3770  -15.3770   -7.7190 C.3       6 GLP5        0.0000 
     36 CA          1.8925  -13.6145   -8.3540 C.3       3 GLC5        0.0000 
     37 CA          0.9180  -11.9640   -9.2040 C.3       6 GLP5        0.0000 
     38 CA          4.1195  -14.2130   -8.7735 C.3       3 GLC5        0.0000 
     39 CA          5.8037  -14.4203   -4.1978 C.3       3 GLC5        0.0000 
     40 CA          8.2220  -13.1645   -4.6415 C.3       3 GLC5        0.0000 
     41 CA          7.1600  -14.5010   -5.5090 C.3       9 GLL5        0.0000 
     42 CA          8.8460  -11.3020   -4.1210 C.3       6 GLP5        0.0000 
     43 CA          9.2072  -17.4518   -4.9590 C.3       3 GLC5        0.0000 
     44 CA          8.0360  -15.5530   -4.8150 C.3       9 GLL5        0.0000 
     45 CA         10.7880  -18.8180   -5.4770 C.3       6 GLP5        0.0000 
     46 CA          5.7602  -18.2845   -3.4240 C.3       3 GLC5        0.0000 
     47 CA          4.8740  -19.6640   -2.3470 C.3       6 GLP5        0.0000 
     48 CA          7.6482  -18.4755   -3.5555 C.3       3 GLC5        0.0000 
     49 CA          6.0760  -17.1920   -4.9350 C.3       9 GLL5        0.0000 
     50 CA          8.6500  -20.0460   -2.6100 C.3       6 GLP5        0.0000 
     51 CA          5.8991  -15.3139   -3.5565 C.3       3 GLC5        0.0000 
     52 CA         -1.0537  -15.9803   -1.5823 C.3       3 GLC5        0.0000 
     53 CA         -1.2720  -16.1750   -3.7370 C.3       9 GLL5        0.0000 
     54 CA         -0.2600  -16.0700    0.3000 C.3       6 GLP5        0.0000 
     55 CA          1.4790  -13.8395   -2.6095 C.3       3 GLC5        0.0000 
     56 CA         -0.3650  -14.0710   -4.0040 C.3       9 GLL5        0.0000 
     57 CA          2.8730  -14.1620   -1.0500 C.3       6 GLP5        0.0000 
     58 CA          0.3305  -18.0305   -2.1037 C.3       3 GLC5        0.0000 
     59 CA         -1.1870  -17.6730   -3.8990 C.3       9 GLL5        0.0000 
     60 CA          1.1730  -18.0280   -0.3660 C.3       6 GLP5        0.0000 
     61 CA         -2.5830  -18.4593   -5.1405 C.3       3 GLC5        0.0000 
     62 CA         -4.3300  -18.9880   -5.7500 C.3       6 GLP5        0.0000 
     63 CA         -1.1171  -16.4665   -6.1048 C.3       3 GLC5        0.0000 
     64 CA         -0.3825  -12.5617   -2.0846 C.3       3 GLC5        0.0000 
     65 CA         -0.3940  -12.0410   -0.2250 C.3       6 GLP5        0.0000 
     66 CA         -1.1245  -13.0532   -5.4481 C.3       3 GLC5        0.0000 
     67 CA         -1.8780  -13.0240   -6.9520 C.3       6 GLP5        0.0000 
@<TRIPOS>BOND
@<TRIPOS>SUBSTRUCTURE
     1 ALC1       16 GROUP        1 X    ALC  0     ROOT ALC X 1
     2 SEC2        7 GROUP        1 X    SEC  0     **** SEC X 2
     3 GLC5        1 GROUP        1 X    GLC  0     **** GLC X 6
     4 ALP1       18 GROUP        1 Y    ALP  0     ROOT ALP Y 8
     5 SEP2        9 GROUP        1 Y    SEP  0     **** SEP Y 9
     6 GLP5        3 GROUP        1 Y    GLP  0     **** GLP Y 13
     7 ALL1       17 GROUP        1 Z    ALL  0     ROOT ALL Z 15
     8 SEL2        8 GROUP        1 Z    SEL  0     **** SEL Z 16
     9 GLL5        2 GROUP        1 Z    GLL  0     **** GLL Z 20
@<TRIPOS>SET

