#    Name: 4hvi_19S_1_ligand
#    Modification time : Tue Mar 25 01:49:46 2014

@<TRIPOS>MOLECULE
4hvi_19S_1_ligand
   48    51     1     0     0
SMALL
NO_CHARGES


@<TRIPOS>ATOM
      1 N1          5.3540  -16.0890   -5.5840 N.am      1 19S1201     0.0000 
      2 C2          6.1610  -15.2020   -6.4320 C.3       1 19S1201     0.0000 
      3 C3          7.1600  -14.5010   -5.5090 C.3       1 19S1201     0.0000 
      4 C4          8.0360  -15.5530   -4.8150 C.3       1 19S1201     0.0000 
      5 C5          7.2170  -16.6180   -4.0670 C.3       1 19S1201     0.0000 
      6 C6          6.0760  -17.1920   -4.9350 C.3       1 19S1201     0.0000 
      7 N7         -2.5350  -14.2800   -3.0510 N.ar      1 19S1201     0.0000 
      8 C8         -1.2720  -16.1750   -3.7370 C.ar      1 19S1201     0.0000 
      9 C9         -2.4230  -15.6060   -3.1920 C.ar      1 19S1201     0.0000 
     10 N10        -0.2630  -15.3960   -4.1300 N.ar      1 19S1201     0.0000 
     11 C11        -0.3650  -14.0710   -4.0040 C.ar      1 19S1201     0.0000 
     12 C12        -1.5310  -13.4810   -3.4500 C.ar      1 19S1201     0.0000 
     13 N13        -1.3390  -12.1110   -3.4490 N.pl3     1 19S1201     0.0000 
     14 C14        -0.1230  -11.8150   -3.9890 C.2       1 19S1201     0.0000 
     15 C15         0.5350  -12.9630   -4.3340 C.2       1 19S1201     0.0000 
     16 C16         1.8490  -13.1240   -4.9750 C.2       1 19S1201     0.0000 
     17 N17         2.1250  -14.3530   -5.4270 N.am      1 19S1201     0.0000 
     18 O18         2.6350  -12.2040   -5.1260 O.2       1 19S1201     0.0000 
     19 C19         3.3400  -14.7410   -6.1370 C.3       1 19S1201     0.0000 
     20 C20        -1.1870  -17.6730   -3.8990 C.3       1 19S1201     0.0000 
     21 C21        -0.4850  -18.1880   -5.1630 C.3       1 19S1201     0.0000 
     22 C22         0.1630  -18.3930   -3.7840 C.3       1 19S1201     0.0000 
     23 C23         4.0160  -15.8860   -5.4180 C.2       1 19S1201     0.0000 
     24 C24         2.8670  -15.2650   -7.5040 C.3       1 19S1201     0.0000 
     25 O25         3.3230  -16.6190   -4.7190 O.2       1 19S1201     0.0000 
     26 H           5.5469  -14.4535   -6.9068 H         1 19S1201     0.0000 
     27 H           6.7101  -15.7640   -7.1706 H         1 19S1201     0.0000 
     28 H           6.6228  -13.9341   -4.7609 H         1 19S1201     0.0000 
     29 H           7.7884  -13.8419   -6.0924 H         1 19S1201     0.0000 
     30 H           8.7008  -15.0508   -4.1025 H         1 19S1201     0.0000 
     31 H           8.6618  -16.0489   -5.5662 H         1 19S1201     0.0000 
     32 H           6.7872  -16.1729   -3.1676 H         1 19S1201     0.0000 
     33 H           7.8782  -17.4336   -3.7680 H         1 19S1201     0.0000 
     34 H           6.5165  -17.8591   -5.6729 H         1 19S1201     0.0000 
     35 H           5.4153  -17.7648   -4.2878 H         1 19S1201     0.0000 
     36 H          -3.1937  -16.2446   -2.8977 H         1 19S1201     0.0000 
     37 H          -1.9779  -11.4698   -3.1134 H         1 19S1201     0.0000 
     38 H           0.2283  -10.9174   -4.1122 H         1 19S1201     0.0000 
     39 H           1.4301  -15.1475   -5.2799 H         1 19S1201     0.0000 
     40 H           3.9918  -13.9442   -6.2815 H         1 19S1201     0.0000 
     41 H          -1.8639  -18.3301   -3.6944 H         1 19S1201     0.0000 
     42 H          -0.0564  -17.4510   -5.5667 H         1 19S1201     0.0000 
     43 H          -0.8975  -19.0019   -5.4019 H         1 19S1201     0.0000 
     44 H          -0.0134  -19.2818   -3.5214 H         1 19S1201     0.0000 
     45 H           0.8278  -17.7309   -3.6861 H         1 19S1201     0.0000 
     46 H           3.6336  -15.5619   -8.0734 H         1 19S1201     0.0000 
     47 H           2.2519  -16.0477   -7.4091 H         1 19S1201     0.0000 
     48 H           2.3730  -14.5648   -8.0194 H         1 19S1201     0.0000 
@<TRIPOS>BOND
     1    2    1 1    
     2    6    1 1    
     3   23    1 am   
     4    3    2 1    
     5   26    2 1    
     6   27    2 1    
     7    4    3 1    
     8   28    3 1    
     9   29    3 1    
    10    5    4 1    
    11   30    4 1    
    12   31    4 1    
    13    6    5 1    
    14   32    5 1    
    15   33    5 1    
    16   34    6 1    
    17   35    6 1    
    18    9    7 ar   
    19   12    7 ar   
    20    9    8 ar   
    21   10    8 ar   
    22   20    8 1    
    23   36    9 1    
    24   11   10 ar   
    25   12   11 ar   
    26   15   11 1    
    27   13   12 1    
    28   14   13 1    
    29   37   13 1    
    30   15   14 2    
    31   38   14 1    
    32   16   15 1    
    33   17   16 am   
    34   18   16 2    
    35   19   17 1    
    36   39   17 1    
    37   23   19 1    
    38   24   19 1    
    39   40   19 1    
    40   21   20 1    
    41   22   20 1    
    42   41   20 1    
    43   22   21 1    
    44   42   21 1    
    45   43   21 1    
    46   44   22 1    
    47   45   22 1    
    48   25   23 2    
    49   46   24 1    
    50   47   24 1    
    51   48   24 1    
@<TRIPOS>SUBSTRUCTURE
     1 19S1201     1 GROUP   
@<TRIPOS>SET

