#    Name: 3zsr_O3N_1_INTS_M
#    Modification time : Tue Mar 25 03:56:02 2014

@<TRIPOS>MOLECULE
3zsr_O3N_1_INTS_M
   81     0     9     0     0
SMALL
NO_CHARGES


@<TRIPOS>ATOM
      1 CA         34.9655   -5.0760    4.3870 C.3       3 GLC5        0.0000 
      2 CA         36.4750   -6.5250    4.4800 C.3       9 GLL5        0.0000 
      3 CA         33.4560   -3.6270    4.2940 C.3       6 GLP5        0.0000 
      4 CA         35.5515   -4.7200    3.2240 C.3       3 GLC5        0.0000 
      5 CA         36.6770   -6.5030    3.1140 C.3       9 GLL5        0.0000 
      6 CA         34.4260   -2.9370    3.3340 C.3       6 GLP5        0.0000 
      7 CA         34.5620   -7.2900   -3.7865 C.3       3 GLC5        0.0000 
      8 CA         33.3980   -8.1250   -2.1770 C.3       9 GLL5        0.0000 
      9 CA         35.7260   -6.4550   -5.3960 C.3       6 GLP5        0.0000 
     10 CA         34.6325   -9.2900   -3.3710 C.3       3 GLC5        0.0000 
     11 CA         35.8670  -10.4550   -4.5650 C.3       6 GLP5        0.0000 
     12 CA         30.4115   -6.5480   -0.2355 C.3       3 GLC5        0.0000 
     13 CA         31.8630   -5.8950   -1.6530 C.3       9 GLL5        0.0000 
     14 CA         28.9600   -7.2010    1.1820 C.3       6 GLP5        0.0000 
     15 CA         29.6315  -11.8045   -0.7500 C.3       3 GLC5        0.0000 
     16 CA         31.8170  -12.1430   -0.8660 C.3       9 GLL5        0.0000 
     17 CA         27.4460  -11.4660   -0.6340 C.3       6 GLP5        0.0000 
     18 CA         31.1870   -9.8065    0.1220 C.3       3 GLC5        0.0000 
     19 CA         32.8120  -11.0500   -0.5550 C.3       9 GLL5        0.0000 
     20 CA         29.5620   -8.5630    0.7990 C.3       6 GLP5        0.0000 
     21 CA         31.4415  -14.9630    0.6770 C.3       3 GLC5        0.0000 
     22 CA         31.7570  -13.1110    0.3020 C.3       9 GLL5        0.0000 
     23 CA         31.1260  -16.8150    1.0520 C.3       6 GLP5        0.0000 
     24 CA         31.9890  -14.2690    2.4235 C.3       3 GLC5        0.0000 
     25 CA         32.6900  -12.6440    1.4090 C.3       9 GLL5        0.0000 
     26 CA         31.2880  -15.8940    3.4380 C.3       6 GLP5        0.0000 
     27 CA         31.1260   -3.2635   -1.1565 C.3       3 GLC5        0.0000 
     28 CA         30.0820   -4.5020   -2.2970 C.3       9 GLL5        0.0000 
     29 CA         32.1700   -2.0250   -0.0160 C.3       6 GLP5        0.0000 
     30 CA         28.3560   -3.9295   -1.4870 C.3       3 GLC5        0.0000 
     31 CA         26.6300   -3.3570   -0.6770 C.3       6 GLP5        0.0000 
     32 CA         28.6770   -6.0635   -2.7450 C.3       3 GLC5        0.0000 
     33 CA         27.2720   -7.6250   -3.1930 C.3       6 GLP5        0.0000 
     34 CA         29.6080   -6.4550   -4.4750 C.3       3 GLC5        0.0000 
     35 CA         30.5800   -4.7540   -3.6940 C.3       9 GLL5        0.0000 
     36 CA         28.6360   -8.1560   -5.2560 C.3       6 GLP5        0.0000 
     37 CA         30.4760   -5.8770   -7.5965 C.3       3 GLC5        0.0000 
     38 CA         29.8710   -4.6850   -6.0930 C.3       9 GLL5        0.0000 
     39 CA         31.0810   -7.0690   -9.1000 C.3       6 GLP5        0.0000 
     40 CA         29.2535   -6.4205   -5.6745 C.3       3 GLC5        0.0000 
     41 CA         27.8070   -3.6040   -3.8750 C.3       3 GLC5        0.0000 
     42 CA         29.4980   -4.3150   -4.6750 C.3       9 GLL5        0.0000 
     43 CA         26.1160   -2.8930   -3.0750 C.3       6 GLP5        0.0000 
     44 CA         28.4635   -5.9300   -4.6240 C.3       3 GLC5        0.0000 
     45 CA         27.4290   -7.5450   -4.5730 C.3       6 GLP5        0.0000 
     46 O          34.1480  -10.4720    3.4040 O.2       1 ALC1        0.0000 
     47 O          35.1400  -10.9060    2.4720 O.2       7 ALL1        0.0000 
     48 O          33.1560  -10.0380    4.3360 O.2       4 ALP1        0.0000 
     49 N          31.5145   -4.3120    2.1580 N.am      2 SEC2        0.0000 
     50 N          31.7020   -5.3160    1.1310 N.am      8 SEL2        0.0000 
     51 N          31.3270   -3.3080    3.1850 N.am      5 SEP2        0.0000 
     52 N          30.5165   -5.7580    0.6775 N.am      2 SEC2        0.0000 
     53 N          29.3310   -6.2000    0.2240 N.am      5 SEP2        0.0000 
     54 N          33.6270   -5.2970    2.6250 N.am      2 SEC2        0.0000 
     55 N          33.9300   -5.5500    1.2570 N.am      8 SEL2        0.0000 
     56 N          33.3240   -5.0440    3.9930 N.am      5 SEP2        0.0000 
     57 CA         34.6983   -9.3227    5.7177 C.3       3 GLC5        0.0000 
     58 CA         36.1980   -7.7290    5.0930 C.3       9 GLL5        0.0000 
     59 CA         33.2310  -10.3310    6.7090 C.3       6 GLP5        0.0000 
     60 CA         34.4250   -8.0993    4.0598 C.3       3 GLC5        0.0000 
     61 CA         36.1330   -8.9000    4.3600 C.3       9 GLL5        0.0000 
     62 CA         32.6130   -7.3130    4.4430 C.3       6 GLP5        0.0000 
     63 CA         34.5599   -7.0640    4.1966 C.3       3 GLC5        0.0000 
     64 CA         33.3390   -6.7500   -4.6653 C.3       3 GLC5        0.0000 
     65 CA         31.7610   -6.5430   -2.8740 C.3       9 GLL5        0.0000 
     66 CA         34.5420   -6.3970   -6.3280 C.3       6 GLP5        0.0000 
     67 CA         30.3860   -7.6295   -4.1293 C.3       3 GLC5        0.0000 
     68 CA         32.5110   -7.6630   -3.1310 C.3       9 GLL5        0.0000 
     69 CA         32.2398   -4.0753   -0.5927 C.3       3 GLC5        0.0000 
     70 CA         31.3502   -7.7408   -0.0115 C.3       3 GLC5        0.0000 
     71 CA         32.7560   -6.3560   -0.6860 C.3       9 GLL5        0.0000 
     72 CA         36.6863   -8.9992   -3.3898 C.3       3 GLC5        0.0000 
     73 CA         36.8460   -7.4990   -2.1220 C.3       9 GLL5        0.0000 
     74 CA         32.0045  -14.1335   -1.6450 C.3       3 GLC5        0.0000 
     75 CA         32.2220  -15.6400   -3.0080 C.3       6 GLP5        0.0000 
     76 CA         31.2107  -12.5018    2.0972 C.3       3 GLC5        0.0000 
     77 CA         30.1980  -12.1260    3.3390 C.3       6 GLP5        0.0000 
     78 CA         35.3083  -13.5252   -0.6378 C.3       3 GLC5        0.0000 
     79 CA         34.1150  -12.5680    0.9210 C.3       9 GLL5        0.0000 
     80 CA         36.4610  -14.9660   -1.6130 C.3       6 GLP5        0.0000 
     81 CA         36.2969   -6.7384   -3.5524 C.3       3 GLC5        0.0000 
@<TRIPOS>BOND
@<TRIPOS>SUBSTRUCTURE
     1 ALC1       46 GROUP        1 X    ALC  0     ROOT ALC X 1
     2 SEC2       49 GROUP        1 X    SEC  0     **** SEC X 2
     3 GLC5        1 GROUP        1 X    GLC  0     **** GLC X 6
     4 ALP1       48 GROUP        1 Y    ALP  0     ROOT ALP Y 8
     5 SEP2       51 GROUP        1 Y    SEP  0     **** SEP Y 9
     6 GLP5        3 GROUP        1 Y    GLP  0     **** GLP Y 13
     7 ALL1       47 GROUP        1 Z    ALL  0     ROOT ALL Z 15
     8 SEL2       50 GROUP        1 Z    SEL  0     **** SEL Z 16
     9 GLL5        2 GROUP        1 Z    GLL  0     **** GLL Z 20
@<TRIPOS>SET

