#    Name: 3zsr_O3N_1_ligand
#    Modification time : Tue Mar 25 03:56:03 2014

@<TRIPOS>MOLECULE
3zsr_O3N_1_ligand
   75    78     1     0     0
SMALL
NO_CHARGES


@<TRIPOS>ATOM
      1 C1         36.1980   -7.7290    5.0930 C.ar      1 O3N1215     0.0000 
      2 C2         36.4750   -6.5250    4.4800 C.ar      1 O3N1215     0.0000 
      3 C3         36.1330   -8.9000    4.3600 C.ar      1 O3N1215     0.0000 
      4 C4         36.6770   -6.5030    3.1140 C.ar      1 O3N1215     0.0000 
      5 C5         33.3980   -8.1250   -2.1770 C.ar      1 O3N1215     0.0000 
      6 C6         32.5110   -7.6630   -3.1310 C.ar      1 O3N1215     0.0000 
      7 C7         36.3410   -8.8710    2.9930 C.ar      1 O3N1215     0.0000 
      8 C8         32.7560   -6.3560   -0.6860 C.ar      1 O3N1215     0.0000 
      9 C9         36.6120   -7.6640    2.3700 C.ar      1 O3N1215     0.0000 
     10 C10        33.5210   -7.4810   -0.9580 C.ar      1 O3N1215     0.0000 
     11 C11        31.7610   -6.5430   -2.8740 C.ar      1 O3N1215     0.0000 
     12 C12        31.8630   -5.8950   -1.6530 C.ar      1 O3N1215     0.0000 
     13 C13        38.1650   -7.5880   -2.3070 C.2       1 O3N1215     0.0000 
     14 C14        36.8460   -7.4990   -2.1220 C.2       1 O3N1215     0.0000 
     15 C15        36.2620  -10.1430    2.2390 C.2       1 O3N1215     0.0000 
     16 C16        32.8340   -5.6590    0.6420 C.2       1 O3N1215     0.0000 
     17 C17        30.9070   -3.6670   -6.5230 C.2       1 O3N1215     0.0000 
     18 C18        31.8170  -12.1430   -0.8660 C.3       1 O3N1215     0.0000 
     19 C19        32.8120  -11.0500   -0.5550 C.3       1 O3N1215     0.0000 
     20 C20        31.7570  -13.1110    0.3020 C.3       1 O3N1215     0.0000 
     21 C21        34.1960  -11.6010   -0.2460 C.3       1 O3N1215     0.0000 
     22 C22        32.6900  -12.6440    1.4090 C.3       1 O3N1215     0.0000 
     23 C23        30.0820   -4.5020   -2.2970 C.3       1 O3N1215     0.0000 
     24 C24        34.1150  -12.5680    0.9210 C.3       1 O3N1215     0.0000 
     25 C25        30.5800   -4.7540   -3.6940 C.3       1 O3N1215     0.0000 
     26 C26        36.8570   -7.5530    0.9040 C.3       1 O3N1215     0.0000 
     27 C27        34.5240   -8.0280    0.0190 C.3       1 O3N1215     0.0000 
     28 C28        36.2300   -6.5000   -1.2030 C.3       1 O3N1215     0.0000 
     29 C29        29.8710   -4.6850   -6.0930 C.3       1 O3N1215     0.0000 
     30 C30        35.1050  -12.2810    2.0430 C.3       1 O3N1215     0.0000 
     31 C31        29.4980   -4.3150   -4.6750 C.3       1 O3N1215     0.0000 
     32 N32        35.1400  -10.9060    2.4720 N.am      1 O3N1215     0.0000 
     33 N33        35.7060   -7.0610    0.0890 N.4       1 O3N1215     0.0000 
     34 O34        31.7020   -5.3160    1.1310 O.co2     1 O3N1215     0.0000 
     35 O35        31.9070   -4.1590   -7.1270 O.co2     1 O3N1215     0.0000 
     36 O36        37.1360  -10.4670    1.4480 O.2       1 O3N1215     0.0000 
     37 O37        33.9300   -5.5500    1.2570 O.co2     1 O3N1215     0.0000 
     38 O38        30.6510   -2.4590   -6.2590 O.co2     1 O3N1215     0.0000 
     39 O39        31.1280   -4.7430   -1.3570 O.3       1 O3N1215     0.0000 
     40 O40        30.9050   -6.1300   -3.8800 O.3       1 O3N1215     0.0000 
     41 H          36.0360   -7.7585    6.1173 H         1 O3N1215     0.0000 
     42 H          36.5301   -5.6615    5.0277 H         1 O3N1215     0.0000 
     43 H          35.9298   -9.7931    4.8318 H         1 O3N1215     0.0000 
     44 H          36.8802   -5.6022    2.6411 H         1 O3N1215     0.0000 
     45 H          33.9762   -8.9604   -2.3752 H         1 O3N1215     0.0000 
     46 H          32.4167   -8.1598   -4.0285 H         1 O3N1215     0.0000 
     47 H          36.1668   -8.1215   -2.6079 H         1 O3N1215     0.0000 
     48 H          32.1263  -12.6755   -1.7592 H         1 O3N1215     0.0000 
     49 H          30.8353  -11.7092   -1.0247 H         1 O3N1215     0.0000 
     50 H          32.4585  -10.4691    0.3065 H         1 O3N1215     0.0000 
     51 H          32.8827  -10.3666   -1.4109 H         1 O3N1215     0.0000 
     52 H          32.0598  -14.0999   -0.0310 H         1 O3N1215     0.0000 
     53 H          30.7405  -13.1566    0.6830 H         1 O3N1215     0.0000 
     54 H          34.8615  -10.7811    0.0080 H         1 O3N1215     0.0000 
     55 H          34.5808  -12.1187   -1.1199 H         1 O3N1215     0.0000 
     56 H          32.6265  -13.3415    2.2477 H         1 O3N1215     0.0000 
     57 H          32.3682  -11.6590    1.7555 H         1 O3N1215     0.0000 
     58 H          29.2194   -5.1587   -2.1146 H         1 O3N1215     0.0000 
     59 H          29.7230   -3.4644   -2.2407 H         1 O3N1215     0.0000 
     60 H          34.3624  -13.5809    0.5123 H         1 O3N1215     0.0000 
     61 H          31.4459   -4.1191   -3.8616 H         1 O3N1215     0.0000 
     62 H          37.1774   -8.5500    0.5122 H         1 O3N1215     0.0000 
     63 H          37.7348   -6.8823    0.7316 H         1 O3N1215     0.0000 
     64 H          34.8773   -8.9945   -0.3130 H         1 O3N1215     0.0000 
     65 H          34.0785   -8.1131    1.0005 H         1 O3N1215     0.0000 
     66 H          35.3982   -5.9798   -1.7309 H         1 O3N1215     0.0000 
     67 H          36.9758   -5.7053   -0.9719 H         1 O3N1215     0.0000 
     68 H          30.2978   -5.6670   -6.1129 H         1 O3N1215     0.0000 
     69 H          29.0100   -4.6154   -6.7260 H         1 O3N1215     0.0000 
     70 H          36.1115  -12.6132    1.6959 H         1 O3N1215     0.0000 
     71 H          34.8520  -12.9551    2.8947 H         1 O3N1215     0.0000 
     72 H          29.3674   -3.2340   -4.6014 H         1 O3N1215     0.0000 
     73 H          28.5566   -4.7975   -4.4068 H         1 O3N1215     0.0000 
     74 H          34.3191  -10.5244    2.9459 H         1 O3N1215     0.0000 
     75 H          35.3174   -6.1412    0.6739 H         1 O3N1215     0.0000 
@<TRIPOS>BOND
     1    2    1 ar   
     2    3    1 ar   
     3   41    1 1    
     4    4    2 ar   
     5   42    2 1    
     6    7    3 ar   
     7   43    3 1    
     8    9    4 ar   
     9   44    4 1    
    10    6    5 ar   
    11   10    5 ar   
    12   45    5 1    
    13   11    6 ar   
    14   46    6 1    
    15    9    7 ar   
    16   15    7 1    
    17   10    8 ar   
    18   12    8 ar   
    19   16    8 1    
    20   26    9 1    
    21   27   10 1    
    22   12   11 ar   
    23   40   11 1    
    24   39   12 1    
    25   14   13 2    
    26   28   14 1    
    27   47   14 1    
    28   32   15 am   
    29   36   15 2    
    30   34   16 ar   
    31   37   16 ar   
    32   29   17 1    
    33   35   17 ar   
    34   38   17 ar   
    35   19   18 1    
    36   20   18 1    
    37   48   18 1    
    38   49   18 1    
    39   21   19 1    
    40   50   19 1    
    41   51   19 1    
    42   22   20 1    
    43   52   20 1    
    44   53   20 1    
    45   24   21 1    
    46   54   21 1    
    47   55   21 1    
    48   24   22 1    
    49   56   22 1    
    50   57   22 1    
    51   25   23 1    
    52   39   23 1    
    53   58   23 1    
    54   59   23 1    
    55   30   24 1    
    56   60   24 1    
    57   31   25 1    
    58   40   25 1    
    59   61   25 1    
    60   33   26 1    
    61   62   26 1    
    62   63   26 1    
    63   33   27 1    
    64   64   27 1    
    65   65   27 1    
    66   33   28 1    
    67   66   28 1    
    68   67   28 1    
    69   31   29 1    
    70   68   29 1    
    71   69   29 1    
    72   32   30 1    
    73   70   30 1    
    74   71   30 1    
    75   72   31 1    
    76   73   31 1    
    77   74   32 1    
    78   75   33 1    
@<TRIPOS>SUBSTRUCTURE
     1 O3N1215     1 GROUP   
@<TRIPOS>SET

