#    Name: 2avv_MK1_1_INTS_M
#    Modification time : Mon Mar 24 19:40:29 2014

@<TRIPOS>MOLECULE
2avv_MK1_1_INTS_M
  113     0     9     0     0
SMALL
NO_CHARGES


@<TRIPOS>ATOM
      1 CA         41.5165   -3.6455   24.0540 C.3       3 GLC5        0.0000 
      2 CA         40.9760   -5.4150   24.5630 C.3       9 GLL5        0.0000 
      3 CA         42.0570   -1.8760   23.5450 C.3       6 GLP5        0.0000 
      4 CA         47.9115   -8.1860   23.8290 C.3       3 GLC5        0.0000 
      5 CA         46.3540   -6.8210   24.4960 C.3       9 GLL5        0.0000 
      6 CA         49.4690   -9.5510   23.1620 C.3       6 GLP5        0.0000 
      7 CA         48.2670   -6.1525   25.0235 C.3       3 GLC5        0.0000 
      8 CA         50.1800   -5.4840   25.5510 C.3       6 GLP5        0.0000 
      9 CA         47.7415   -5.3235   23.5700 C.3       3 GLC5        0.0000 
     10 CA         49.1290   -3.8260   22.6440 C.3       6 GLP5        0.0000 
     11 CA         46.0540   -3.4730   27.1640 C.3       3 GLC5        0.0000 
     12 CA         46.1630   -5.4220   26.4200 C.3       9 GLL5        0.0000 
     13 CA         45.9450   -1.5240   27.9080 C.3       6 GLP5        0.0000 
     14 CA         48.1715   -5.4530   25.9855 C.3       3 GLC5        0.0000 
     15 CA         46.7335   -4.7830   27.9465 C.3       3 GLC5        0.0000 
     16 CA         47.3040   -4.1440   29.4730 C.3       6 GLP5        0.0000 
     17 CA         45.5795   -2.3830   24.3255 C.3       3 GLC5        0.0000 
     18 CA         45.7340   -4.5100   24.3370 C.3       9 GLL5        0.0000 
     19 CA         45.4250   -0.2560   24.3140 C.3       6 GLP5        0.0000 
     20 CA         47.4315   -4.1680   23.4905 C.3       3 GLC5        0.0000 
     21 CA         38.8070   -8.2795   26.6520 C.3       3 GLC5        0.0000 
     22 CA         39.7030   -6.3150   26.8070 C.3       9 GLL5        0.0000 
     23 CA         37.9110  -10.2440   26.4970 C.3       6 GLP5        0.0000 
     24 CA         37.3165   -6.4470   24.8935 C.3       3 GLC5        0.0000 
     25 CA         38.9520   -5.7420   25.6140 C.3       9 GLL5        0.0000 
     26 CA         35.6810   -7.1520   24.1730 C.3       6 GLP5        0.0000 
     27 CA         38.4675   -3.8880   26.1750 C.3       3 GLC5        0.0000 
     28 CA         37.9830   -2.0340   26.7360 C.3       6 GLP5        0.0000 
     29 CA         41.3650   -8.5045   28.3505 C.3       3 GLC5        0.0000 
     30 CA         41.7210   -6.5100   28.0610 C.3       9 GLL5        0.0000 
     31 CA         41.0090  -10.4990   28.6400 C.3       6 GLP5        0.0000 
     32 CA         43.0420   -8.0930   27.5305 C.3       3 GLC5        0.0000 
     33 CA         44.3630   -9.6760   27.0000 C.3       6 GLP5        0.0000 
     34 N          43.1275   -6.8500   30.5490 N.am      2 SEC2        0.0000 
     35 N          41.8170   -6.5890   30.2700 N.am      8 SEL2        0.0000 
     36 N          44.4380   -7.1110   30.8280 N.am      5 SEP2        0.0000 
     37 O          41.1195   -7.6970   30.8570 O.2       1 ALC1        0.0000 
     38 O          41.8170   -6.5890   30.2700 O.2       7 ALL1        0.0000 
     39 O          40.4220   -8.8050   31.4440 O.2       4 ALP1        0.0000 
     40 O          40.5020   -7.0530   30.1840 O.2       1 ALC1        0.0000 
     41 O          39.1870   -7.5170   30.0980 O.2       4 ALP1        0.0000 
     42 CA         45.0975   -4.3825   29.4990 C.3       3 GLC5        0.0000 
     43 CA         42.8910   -4.6210   29.5250 C.3       9 GLL5        0.0000 
     44 CA         45.0240   -2.2020   29.4040 C.3       3 GLC5        0.0000 
     45 CA         44.1030   -2.8800   30.9000 C.3       9 GLL5        0.0000 
     46 CA         45.7035   -3.5120   30.1865 C.3       3 GLC5        0.0000 
     47 CA         45.1000   -1.0510   29.7705 C.3       3 GLC5        0.0000 
     48 CA         44.2550   -0.5780   31.6330 C.3       9 GLL5        0.0000 
     49 O          41.3020   -3.7185   32.8320 O.2       1 ALC1        0.0000 
     50 O          40.9300   -2.5240   31.7220 O.2       7 ALL1        0.0000 
     51 O          41.6740   -4.9130   33.9420 O.2       4 ALP1        0.0000 
     52 CA         40.9040   -0.1060   30.4105 C.3       3 GLC5        0.0000 
     53 CA         40.0520   -1.3660   31.8590 C.3       9 GLL5        0.0000 
     54 CA         41.7560    1.1540   28.9620 C.3       6 GLP5        0.0000 
     55 N          39.3330   -2.7845   34.9490 N.am      2 SEC2        0.0000 
     56 N          40.2370   -1.8410   34.2520 N.am      8 SEL2        0.0000 
     57 N          38.4290   -3.7280   35.6460 N.am      5 SEP2        0.0000 
     58 O          40.2340   -1.2060   35.7840 O.2       1 ALC1        0.0000 
     59 O          40.2370   -1.8410   34.2520 O.2       7 ALL1        0.0000 
     60 O          40.2310   -0.5710   37.3160 O.2       4 ALP1        0.0000 
     61 CA         38.5320   -1.0425   35.3975 C.3       3 GLC5        0.0000 
     62 CA         38.7490   -0.1210   33.4260 C.3       9 GLL5        0.0000 
     63 CA         38.3150   -1.9640   37.3690 C.3       6 GLP5        0.0000 
     64 CA         36.6040    0.9465   32.3065 C.3       3 GLC5        0.0000 
     65 CA         37.6870   -0.9520   32.7550 C.3       9 GLL5        0.0000 
     66 CA         35.5210    2.8450   31.8580 C.3       6 GLP5        0.0000 
     67 CA         36.2290   -3.9030   29.3190 C.3       3 GLC5        0.0000 
     68 CA         36.4870   -2.7580   31.0390 C.3       9 GLL5        0.0000 
     69 CA         35.9710   -5.0480   27.5990 C.3       6 GLP5        0.0000 
     70 CA         37.9215   -2.3135   28.8290 C.3       3 GLC5        0.0000 
     71 CA         37.8600   -2.5930   30.9220 C.3       9 GLL5        0.0000 
     72 CA         38.7320   -3.5100   32.7815 C.3       3 GLC5        0.0000 
     73 CA         38.5390   -1.7360   31.7250 C.3       9 GLL5        0.0000 
     74 CA         38.9250   -5.2840   33.8380 C.3       6 GLP5        0.0000 
     75 CA         37.2720   -6.2900   23.6915 C.3       3 GLC5        0.0000 
     76 CA         38.8630   -5.4280   23.2100 C.3       9 GLL5        0.0000 
     77 CA         37.6350   -7.4240   21.6045 C.3       3 GLC5        0.0000 
     78 CA         39.7850   -7.0130   21.4330 C.3       9 GLL5        0.0000 
     79 CA         35.4850   -7.8350   21.7760 C.3       6 GLP5        0.0000 
     80 N          40.4920   -8.9370   20.3205 N.am      2 SEC2        0.0000 
     81 N          40.3680   -7.3700   20.1960 N.am      8 SEL2        0.0000 
     82 N          40.6160  -10.5040   20.4450 N.am      5 SEP2        0.0000 
     83 CA         40.9150   -3.2510   22.2905 C.3       3 GLC5        0.0000 
     84 CA         39.7730   -4.6260   21.0360 C.3       9 GLL5        0.0000 
     85 CA         45.7901   -7.4388   26.7033 C.3       3 GLC5        0.0000 
     86 CA         45.5130   -9.0410   27.7750 C.3       6 GLP5        0.0000 
     87 CA         37.6493   -5.5382   26.9047 C.3       3 GLC5        0.0000 
     88 CA         44.6707   -3.5522   34.2312 C.3       3 GLC5        0.0000 
     89 CA         43.9120   -2.2650   33.3340 C.3       9 GLL5        0.0000 
     90 CA         45.4280   -5.3190   34.6290 C.3       6 GLP5        0.0000 
     91 CA         45.6432   -1.6358   33.3543 C.3       3 GLC5        0.0000 
     92 CA         47.3730   -1.4860   32.8750 C.3       6 GLP5        0.0000 
     93 CA         45.7722   -0.6322   33.0795 C.3       3 GLC5        0.0000 
     94 CA         44.0870    0.0350   33.9510 C.3       9 GLL5        0.0000 
     95 CA         43.0057    0.5345   30.5435 C.3       3 GLC5        0.0000 
     96 CA         44.2560    0.4080   32.6170 C.3       9 GLL5        0.0000 
     97 CA         45.4958    1.0750   31.2685 C.3       3 GLC5        0.0000 
     98 CA         46.7360    2.2350   30.4120 C.3       6 GLP5        0.0000 
     99 CA         45.7733   -1.4852   32.2087 C.3       3 GLC5        0.0000 
    100 CA         34.9868   -1.6002   33.9483 C.3       3 GLC5        0.0000 
    101 CA         36.3300   -1.1270   32.8420 C.3       9 GLL5        0.0000 
    102 CA         33.9420   -1.6130   35.4870 C.3       6 GLP5        0.0000 
    103 CA         35.1152   -0.2178   31.4237 C.3       3 GLC5        0.0000 
    104 CA         34.1990    1.1520   30.4380 C.3       6 GLP5        0.0000 
    105 CA         34.6580   -2.6495   30.2435 C.3       3 GLC5        0.0000 
    106 CA         33.2060   -2.8960   28.9790 C.3       6 GLP5        0.0000 
    107 CA         37.3910   -4.0930   32.0465 C.3       3 GLC5        0.0000 
    108 CA         35.7330   -2.0480   31.9770 C.3       9 GLL5        0.0000 
    109 CA         37.7970   -5.6880   32.8780 C.3       6 GLP5        0.0000 
    110 CA         41.8065   -3.6505   20.2777 C.3       3 GLC5        0.0000 
    111 CA         43.5640   -2.5440   20.1410 C.3       6 GLP5        0.0000 
    112 CA         38.0932   -3.8765   21.7613 C.3       3 GLC5        0.0000 
    113 CA         36.7090   -2.6570   21.7410 C.3       6 GLP5        0.0000 
@<TRIPOS>BOND
@<TRIPOS>SUBSTRUCTURE
     1 ALC1       37 GROUP        1 X    ALC  0     ROOT ALC X 1
     2 SEC2       34 GROUP        1 X    SEC  0     **** SEC X 2
     3 GLC5        1 GROUP        1 X    GLC  0     **** GLC X 6
     4 ALP1       39 GROUP        1 Y    ALP  0     ROOT ALP Y 8
     5 SEP2       36 GROUP        1 Y    SEP  0     **** SEP Y 9
     6 GLP5        3 GROUP        1 Y    GLP  0     **** GLP Y 13
     7 ALL1       38 GROUP        1 Z    ALL  0     ROOT ALL Z 15
     8 SEL2       35 GROUP        1 Z    SEL  0     **** SEL Z 16
     9 GLL5        2 GROUP        1 Z    GLL  0     **** GLL Z 20
@<TRIPOS>SET

