#    Name: 2avv_MK1_1_ligand
#    Modification time : Mon Mar 24 19:40:29 2014

@<TRIPOS>MOLECULE
2avv_MK1_1_ligand
   93    97     1     0     0
SMALL
NO_CHARGES


@<TRIPOS>ATOM
      1 N1         39.5890   -5.9050   24.3880 N.3       1 MK1901      0.0000 
      2 C1         40.9760   -5.4150   24.5630 C.3       1 MK1901      0.0000 
      3 C2         41.8660   -6.0340   25.5960 C.3       1 MK1901      0.0000 
      4 C3         43.1880   -5.3240   25.6150 C.2       1 MK1901      0.0000 
      5 O1         43.2490   -4.1460   25.9510 O.2       1 MK1901      0.0000 
      6 N2         44.2190   -6.0720   25.2580 N.am      1 MK1901      0.0000 
      7 C4         45.5890   -5.6810   25.1900 C.3       1 MK1901      0.0000 
      8 C5         46.3540   -6.8210   24.4960 C.3       1 MK1901      0.0000 
      9 C6         46.1630   -5.4220   26.4200 C.3       1 MK1901      0.0000 
     10 C7         45.7340   -4.5100   24.3370 C.3       1 MK1901      0.0000 
     11 N3         41.1270   -5.8520   26.8930 N.4       1 MK1901      0.0000 
     12 C8         39.7030   -6.3150   26.8070 C.3       1 MK1901      0.0000 
     13 C9         38.9520   -5.7420   25.6140 C.3       1 MK1901      0.0000 
     14 C10        41.7210   -6.5100   28.0610 C.3       1 MK1901      0.0000 
     15 C11        41.7270   -5.6030   29.2940 C.3       1 MK1901      0.0000 
     16 O2         41.8170   -6.5890   30.2700 O.3       1 MK1901      0.0000 
     17 C12        42.8910   -4.6210   29.5250 C.3       1 MK1901      0.0000 
     18 C13        42.7980   -3.6770   30.7280 C.3       1 MK1901      0.0000 
     19 C14        44.1030   -2.8800   30.9000 C.3       1 MK1901      0.0000 
     20 C15        44.0810   -1.9020   32.0040 C.ar      1 MK1901      0.0000 
     21 C16        43.9120   -2.2650   33.3340 C.ar      1 MK1901      0.0000 
     22 C17        43.9150   -1.3060   34.3330 C.ar      1 MK1901      0.0000 
     23 C18        44.0870    0.0350   33.9510 C.ar      1 MK1901      0.0000 
     24 C19        44.2560    0.4080   32.6170 C.ar      1 MK1901      0.0000 
     25 C20        44.2550   -0.5780   31.6330 C.ar      1 MK1901      0.0000 
     26 C21        41.6350   -2.7120   30.6090 C.2       1 MK1901      0.0000 
     27 O3         41.3560   -2.1310   29.5570 O.2       1 MK1901      0.0000 
     28 N4         40.9300   -2.5240   31.7220 N.am      1 MK1901      0.0000 
     29 C22        40.0520   -1.3660   31.8590 C.3       1 MK1901      0.0000 
     30 C23        40.0930   -0.8110   33.2770 C.3       1 MK1901      0.0000 
     31 O4         40.2370   -1.8410   34.2520 O.3       1 MK1901      0.0000 
     32 C24        38.7490   -0.1210   33.4260 C.3       1 MK1901      0.0000 
     33 C25        37.6870   -0.9520   32.7550 C.ar      1 MK1901      0.0000 
     34 C26        36.3300   -1.1270   32.8420 C.ar      1 MK1901      0.0000 
     35 C27        35.7330   -2.0480   31.9770 C.ar      1 MK1901      0.0000 
     36 C28        36.4870   -2.7580   31.0390 C.ar      1 MK1901      0.0000 
     37 C29        37.8600   -2.5930   30.9220 C.ar      1 MK1901      0.0000 
     38 C30        38.5390   -1.7360   31.7250 C.ar      1 MK1901      0.0000 
     39 C31        38.8630   -5.4280   23.2100 C.3       1 MK1901      0.0000 
     40 C32        39.5010   -5.7040   21.8440 C.ar      1 MK1901      0.0000 
     41 C33        39.7850   -7.0130   21.4330 C.ar      1 MK1901      0.0000 
     42 N5         40.3680   -7.3700   20.1960 N.ar      1 MK1901      0.0000 
     43 C34        40.5990   -6.2150   19.4490 C.ar      1 MK1901      0.0000 
     44 C35        40.3250   -4.8880   19.7930 C.ar      1 MK1901      0.0000 
     45 C36        39.7730   -4.6260   21.0360 C.ar      1 MK1901      0.0000 
     46 H          40.9431   -4.2931   24.7544 H         1 MK1901      0.0000 
     47 H          41.5104   -5.4720   23.5592 H         1 MK1901      0.0000 
     48 H          41.9836   -7.0628   25.3914 H         1 MK1901      0.0000 
     49 H          44.0425   -7.1066   24.9780 H         1 MK1901      0.0000 
     50 H          41.0785   -4.7572   27.1101 H         1 MK1901      0.0000 
     51 H          39.1671   -6.0340   27.7300 H         1 MK1901      0.0000 
     52 H          39.6761   -7.4166   26.7455 H         1 MK1901      0.0000 
     53 H          37.9310   -6.2104   25.6201 H         1 MK1901      0.0000 
     54 H          38.7586   -4.6596   25.8440 H         1 MK1901      0.0000 
     55 H          42.7602   -6.8081   27.8515 H         1 MK1901      0.0000 
     56 H          41.1654   -7.4265   28.3142 H         1 MK1901      0.0000 
     57 H          40.7885   -5.1080   29.3635 H         1 MK1901      0.0000 
     58 H          43.0185   -4.0066   28.6002 H         1 MK1901      0.0000 
     59 H          43.8355   -5.2124   29.6096 H         1 MK1901      0.0000 
     60 H          42.6600   -4.2761   31.6269 H         1 MK1901      0.0000 
     61 H          44.3163   -2.3691   29.9385 H         1 MK1901      0.0000 
     62 H          44.9268   -3.6082   31.0484 H         1 MK1901      0.0000 
     63 H          43.7829   -3.2612   33.5786 H         1 MK1901      0.0000 
     64 H          43.7982   -1.5527   35.3064 H         1 MK1901      0.0000 
     65 H          44.0878    0.7685   34.6873 H         1 MK1901      0.0000 
     66 H          44.3786    1.3899   32.3669 H         1 MK1901      0.0000 
     67 H          44.3813   -0.3248   30.6502 H         1 MK1901      0.0000 
     68 H          40.9651   -3.1698   32.5270 H         1 MK1901      0.0000 
     69 H          40.2534   -0.5851   31.1862 H         1 MK1901      0.0000 
     70 H          40.8522   -0.0684   33.3234 H         1 MK1901      0.0000 
     71 H          38.7957    0.8596   32.9625 H         1 MK1901      0.0000 
     72 H          38.5172   -0.0106   34.4808 H         1 MK1901      0.0000 
     73 H          35.7656   -0.6098   33.5096 H         1 MK1901      0.0000 
     74 H          34.7115   -2.2074   32.0323 H         1 MK1901      0.0000 
     75 H          35.9999   -3.4308   30.4102 H         1 MK1901      0.0000 
     76 H          38.3684   -3.1459   30.1970 H         1 MK1901      0.0000 
     77 H          38.6944   -4.3210   23.2837 H         1 MK1901      0.0000 
     78 H          37.8294   -5.8648   23.1916 H         1 MK1901      0.0000 
     79 H          39.5453   -7.8017   22.0994 H         1 MK1901      0.0000 
     80 H          41.0509   -6.3650   18.4719 H         1 MK1901      0.0000 
     81 H          40.5290   -4.1344   19.1396 H         1 MK1901      0.0000 
     82 H          39.5796   -3.6769   21.3327 H         1 MK1901      0.0000 
     83 H          47.3296   -6.6174   24.4138 H         1 MK1901      0.0000 
     84 H          46.2755   -7.6814   24.9996 H         1 MK1901      0.0000 
     85 H          46.0109   -6.9899   23.5720 H         1 MK1901      0.0000 
     86 H          47.1218   -5.1516   26.3329 H         1 MK1901      0.0000 
     87 H          45.6924   -4.6823   26.9011 H         1 MK1901      0.0000 
     88 H          46.1376   -6.2232   27.0178 H         1 MK1901      0.0000 
     89 H          46.6870   -4.2141   24.2713 H         1 MK1901      0.0000 
     90 H          45.4174   -4.6877   23.4053 H         1 MK1901      0.0000 
     91 H          45.2087   -3.7321   24.6817 H         1 MK1901      0.0000 
     92 H          41.0134   -7.1671   30.1286 H         1 MK1901      0.0000 
     93 H          40.8781   -1.4722   34.9251 H         1 MK1901      0.0000 
@<TRIPOS>BOND
     1    2    1 1    
     2   13    1 1    
     3   39    1 1    
     4    3    2 1    
     5   46    2 1    
     6   47    2 1    
     7    4    3 1    
     8   11    3 1    
     9   48    3 1    
    10    5    4 2    
    11    6    4 am   
    12    7    6 1    
    13   49    6 1    
    14    8    7 1    
    15    9    7 1    
    16   10    7 1    
    17   83    8 1    
    18   84    8 1    
    19   85    8 1    
    20   86    9 1    
    21   87    9 1    
    22   88    9 1    
    23   89   10 1    
    24   90   10 1    
    25   91   10 1    
    26   12   11 1    
    27   14   11 1    
    28   50   11 1    
    29   13   12 1    
    30   51   12 1    
    31   52   12 1    
    32   53   13 1    
    33   54   13 1    
    34   15   14 1    
    35   55   14 1    
    36   56   14 1    
    37   16   15 1    
    38   17   15 1    
    39   57   15 1    
    40   92   16 1    
    41   18   17 1    
    42   58   17 1    
    43   59   17 1    
    44   19   18 1    
    45   26   18 1    
    46   60   18 1    
    47   20   19 1    
    48   61   19 1    
    49   62   19 1    
    50   21   20 ar   
    51   25   20 ar   
    52   22   21 ar   
    53   63   21 1    
    54   23   22 ar   
    55   64   22 1    
    56   24   23 ar   
    57   65   23 1    
    58   25   24 ar   
    59   66   24 1    
    60   67   25 1    
    61   27   26 2    
    62   28   26 am   
    63   29   28 1    
    64   68   28 1    
    65   30   29 1    
    66   38   29 1    
    67   69   29 1    
    68   31   30 1    
    69   32   30 1    
    70   70   30 1    
    71   93   31 1    
    72   33   32 1    
    73   71   32 1    
    74   72   32 1    
    75   34   33 ar   
    76   38   33 ar   
    77   35   34 ar   
    78   73   34 1    
    79   36   35 ar   
    80   74   35 1    
    81   37   36 ar   
    82   75   36 1    
    83   38   37 ar   
    84   76   37 1    
    85   40   39 1    
    86   77   39 1    
    87   78   39 1    
    88   41   40 ar   
    89   45   40 ar   
    90   42   41 ar   
    91   79   41 1    
    92   43   42 ar   
    93   44   43 ar   
    94   80   43 1    
    95   45   44 ar   
    96   81   44 1    
    97   82   45 1    
@<TRIPOS>SUBSTRUCTURE
     1 MK1901      1 GROUP   
@<TRIPOS>SET

