#    Name: 4hn4_F9F_1_INTS_M
#    Modification time : Tue Mar 25 01:28:02 2014

@<TRIPOS>MOLECULE
4hn4_F9F_1_INTS_M
   63     0     6     0     0
SMALL
NO_CHARGES


@<TRIPOS>ATOM
      1 CA        -38.1260   -7.8200   16.7540 C.3       2 GLC5        0.0000 
      2 CA        -39.4250   -6.9970   15.3540 C.3       6 GLL5        0.0000 
      3 CA        -36.8270   -8.6430   18.1540 C.3       4 GLP5        0.0000 
      4 CA        -41.8755   -9.0060   16.0255 C.3       2 GLC5        0.0000 
      5 CA        -40.7820   -7.0910   15.7090 C.3       6 GLL5        0.0000 
      6 CA        -42.9690  -10.9210   16.3420 C.3       4 GLP5        0.0000 
      7 CA        -40.2600   -9.2965   17.6915 C.3       2 GLC5        0.0000 
      8 CA        -39.5480   -9.7260   16.1930 C.3       6 GLL5        0.0000 
      9 CA        -40.9720   -8.8670   19.1900 C.3       4 GLP5        0.0000 
     10 CA        -38.4560   -9.8310   17.4680 C.3       2 GLC5        0.0000 
     11 CA        -37.3640   -9.9360   18.7430 C.3       4 GLP5        0.0000 
     12 CA        -41.1960   -9.3405   12.4210 C.3       2 GLC5        0.0000 
     13 CA        -40.1270   -9.5470   14.1390 C.3       6 GLL5        0.0000 
     14 CA        -42.2650   -9.1340   10.7030 C.3       4 GLP5        0.0000 
     15 CA        -36.9630  -11.3650   14.1065 C.3       2 GLC5        0.0000 
     16 CA        -38.1480  -10.1870   14.6200 C.3       6 GLL5        0.0000 
     17 CA        -35.7780  -12.5430   13.5930 C.3       4 GLP5        0.0000 
     18 CA        -41.2385   -4.2625   12.9760 C.3       2 GLC5        0.0000 
     19 CA        -41.8140   -2.5110   13.8150 C.3       6 GLL5        0.0000 
     20 CA        -40.6630   -6.0140   12.1370 C.3       4 GLP5        0.0000 
     21 CA        -43.8745   -1.9620   14.4230 C.3       2 GLC5        0.0000 
     22 CA        -45.9350   -1.4130   15.0310 C.3       4 GLP5        0.0000 
     23 CA        -39.8575   -0.1415   13.3650 C.3       2 GLC5        0.0000 
     24 CA        -41.6200   -1.3160   12.9290 C.3       6 GLL5        0.0000 
     25 CA        -38.0950    1.0330   13.8010 C.3       4 GLP5        0.0000 
     26 CA        -41.9645    0.5670   13.1440 C.3       2 GLC5        0.0000 
     27 CA        -42.3090    2.4500   13.3590 C.3       4 GLP5        0.0000 
     28 N         -43.0615    1.1145   11.5295 N.am      1 SEC2        0.0000 
     29 N         -42.6470    0.2200   10.4830 N.am      5 SEL2        0.0000 
     30 N         -43.4760    2.0090   12.5760 N.am      3 SEP2        0.0000 
     31 N         -41.7020    1.5660   11.0115 N.am      1 SEC2        0.0000 
     32 N         -40.7570    2.9120   11.5400 N.am      3 SEP2        0.0000 
     33 N         -39.6035   -1.1540    8.7735 N.am      1 SEC2        0.0000 
     34 N         -40.9450   -1.2370    9.2180 N.am      5 SEL2        0.0000 
     35 N         -38.2620   -1.0710    8.3290 N.am      3 SEP2        0.0000 
     36 N         -41.8945   -1.7130    8.3495 N.am      1 SEC2        0.0000 
     37 N         -42.8440   -2.1890    7.4810 N.am      3 SEP2        0.0000 
     38 N         -40.5005    1.6250   11.3290 N.am      1 SEC2        0.0000 
     39 N         -40.2440    0.3380   11.1180 N.am      5 SEL2        0.0000 
     40 N         -39.3195    1.1210   10.6485 N.am      1 SEC2        0.0000 
     41 N         -38.3950    1.9040   10.1790 N.am      3 SEP2        0.0000 
     42 N         -43.6375   -4.3455   14.9035 N.am      1 SEC2        0.0000 
     43 N         -43.2070   -3.6530   16.0970 N.am      5 SEL2        0.0000 
     44 N         -44.0680   -5.0380   13.7100 N.am      3 SEP2        0.0000 
     45 CA        -37.2353   -6.9373   14.7955 C.3       2 GLC5        0.0000 
     46 CA        -35.3490   -7.5070   14.2610 C.3       4 GLP5        0.0000 
     47 CA        -39.7332   -6.3015   17.3502 C.3       2 GLC5        0.0000 
     48 CA        -39.3630   -5.5590   19.1690 C.3       4 GLP5        0.0000 
     49 CA        -42.1527   -7.1442   17.2622 C.3       2 GLC5        0.0000 
     50 CA        -43.1430   -7.7740   18.6770 C.3       4 GLP5        0.0000 
     51 CA        -40.3020   -5.4325   17.5675 C.3       2 GLC5        0.0000 
     52 CA        -41.5430   -5.9380   15.9860 C.3       6 GLL5        0.0000 
     53 CA        -39.2812   -5.3635   17.3117 C.3       2 GLC5        0.0000 
     54 CA        -39.5810   -4.5980   15.6030 C.3       6 GLL5        0.0000 
     55 CA        -38.7612   -4.1620   13.9372 C.3       2 GLC5        0.0000 
     56 CA        -38.3230   -3.1560   12.4200 C.3       4 GLP5        0.0000 
     57 CA        -36.9935   -8.6530   14.5335 C.3       2 GLC5        0.0000 
     58 CA        -39.1280   -9.4110   14.9920 C.3       6 GLL5        0.0000 
     59 CA        -37.7325   -9.2210   16.4800 C.3       2 GLC5        0.0000 
     60 CA        -39.5643   -8.0685   13.1502 C.3       2 GLC5        0.0000 
     61 CA        -39.5010   -6.6580   11.7350 C.3       4 GLP5        0.0000 
     62 CA        -41.3508  -10.2394   15.6039 C.3       2 GLC5        0.0000 
     63 CA        -40.0200   -2.5347   12.8960 C.3       2 GLC5        0.0000 
@<TRIPOS>BOND
@<TRIPOS>SUBSTRUCTURE
     1 SEC2       28 GROUP        1 X    SEC  0     ROOT SEC X 2
     2 GLC5        1 GROUP        1 X    GLC  0     **** GLC X 6
     3 SEP2       30 GROUP        1 Y    SEP  0     ROOT SEP Y 9
     4 GLP5        3 GROUP        1 Y    GLP  0     **** GLP Y 13
     5 SEL2       29 GROUP        1 Z    SEL  0     ROOT SEL Z 16
     6 GLL5        2 GROUP        1 Z    GLL  0     **** GLL Z 20
@<TRIPOS>SET

