#    Name: 4hn4_F9F_1_ligand
#    Modification time : Tue Mar 25 01:28:02 2014

@<TRIPOS>MOLECULE
4hn4_F9F_1_ligand
   31    31     1     0     0
SMALL
NO_CHARGES


@<TRIPOS>ATOM
      1 C1        -39.4250   -6.9970   15.3540 C.ar      1 F9F301      0.0000 
      2 C2        -40.7820   -7.0910   15.7090 C.ar      1 F9F301      0.0000 
      3 C3        -41.5430   -5.9380   15.9860 C.ar      1 F9F301      0.0000 
      4 C4        -40.9390   -4.6740   15.9460 C.ar      1 F9F301      0.0000 
      5 C5        -39.5810   -4.5980   15.6030 C.ar      1 F9F301      0.0000 
      6 C6        -38.8180   -5.7380   15.3060 C.ar      1 F9F301      0.0000 
      7 O7        -38.6210   -8.0880   15.0460 O.3       1 F9F301      0.0000 
      8 C8        -39.1280   -9.4110   14.9920 C.3       1 F9F301      0.0000 
      9 F9F       -39.5480   -9.7260   16.1930 F         1 F9F301      0.0000 
     10 F10       -40.1270   -9.5470   14.1390 F         1 F9F301      0.0000 
     11 F11       -38.1480  -10.1870   14.6200 F         1 F9F301      0.0000 
     12 S12       -41.8190   -3.3250   16.2580 S.o2      1 F9F301      0.0000 
     13 N13       -41.4590   -2.1940   15.1930 N.pl3     1 F9F301      0.0000 
     14 C14       -41.8140   -2.5110   13.8150 C.3       1 F9F301      0.0000 
     15 C15       -41.6200   -1.3160   12.9290 C.3       1 F9F301      0.0000 
     16 O16       -41.5650   -1.7040   11.5540 O.3       1 F9F301      0.0000 
     17 P17       -41.3300   -0.5050   10.4900 P.3       1 F9F301      0.0000 
     18 O18       -42.6470    0.2200   10.4830 O.co2     1 F9F301      0.0000 
     19 O19       -40.9450   -1.2370    9.2180 O.co2     1 F9F301      0.0000 
     20 O20       -40.2440    0.3380   11.1180 O.co2     1 F9F301      0.0000 
     21 O21       -41.5810   -2.8870   17.5810 O.2       1 F9F301      0.0000 
     22 O22       -43.2070   -3.6530   16.0970 O.2       1 F9F301      0.0000 
     23 H         -41.2287   -8.0176   15.7680 H         1 F9F301      0.0000 
     24 H         -42.5361   -6.0270   16.2159 H         1 F9F301      0.0000 
     25 H         -39.1232   -3.6645   15.5674 H         1 F9F301      0.0000 
     26 H         -37.8335   -5.6469   15.0586 H         1 F9F301      0.0000 
     27 H         -41.0461   -1.3988   15.4988 H         1 F9F301      0.0000 
     28 H         -42.8633   -2.8323   13.7518 H         1 F9F301      0.0000 
     29 H         -41.1938   -3.3363   13.4376 H         1 F9F301      0.0000 
     30 H         -40.6920   -0.8037   13.2357 H         1 F9F301      0.0000 
     31 H         -42.4491   -0.6109   13.1110 H         1 F9F301      0.0000 
@<TRIPOS>BOND
     1    2    1 ar   
     2    6    1 ar   
     3    7    1 1    
     4    3    2 ar   
     5   23    2 1    
     6    4    3 ar   
     7   24    3 1    
     8    5    4 ar   
     9   12    4 1    
    10    6    5 ar   
    11   25    5 1    
    12   26    6 1    
    13    8    7 1    
    14    9    8 1    
    15   10    8 1    
    16   11    8 1    
    17   13   12 1    
    18   21   12 2    
    19   22   12 2    
    20   14   13 1    
    21   27   13 1    
    22   15   14 1    
    23   28   14 1    
    24   29   14 1    
    25   16   15 1    
    26   30   15 1    
    27   31   15 1    
    28   17   16 1    
    29   18   17 ar   
    30   19   17 ar   
    31   20   17 ar   
@<TRIPOS>SUBSTRUCTURE
     1 F9F301      1 GROUP   
@<TRIPOS>SET

