#    Name: 3cic_316_2_INTS_M
#    Modification time : Mon Mar 24 21:30:38 2014

@<TRIPOS>MOLECULE
3cic_316_2_INTS_M
  109     0    12     0     0
SMALL
NO_CHARGES


@<TRIPOS>ATOM
      1 CA         15.9030   30.8305   60.2305 C.3       4 GLC5        0.0000 
      2 CA         15.9680   29.4360   58.5490 C.3      12 GLL5        0.0000 
      3 CA         15.8380   32.2250   61.9120 C.3       8 GLP5        0.0000 
      4 N          13.4870   32.3370   59.2670 N.am      2 SEC2        0.0000 
      5 N          13.6670   31.3740   58.3210 N.am     10 SEL2        0.0000 
      6 N          13.3070   33.3000   60.2130 N.am      6 SEP2        0.0000 
      7 N          12.4240   31.9860   58.3310 N.am      2 SEC2        0.0000 
      8 N          11.1810   32.5980   58.3410 N.am      6 SEP2        0.0000 
      9 CA         12.0250   32.1165   57.7830 C.3       4 GLC5        0.0000 
     10 CA         12.9650   31.9300   55.8290 C.3      12 GLL5        0.0000 
     11 CA         11.0850   32.3030   59.7370 C.3       8 GLP5        0.0000 
     12 CA         11.5425   34.0365   54.2755 C.3       4 GLC5        0.0000 
     13 CA         13.0510   33.3750   55.3170 C.3      12 GLL5        0.0000 
     14 CA         10.0340   34.6980   53.2340 C.3       8 GLP5        0.0000 
     15 CA         12.7650   36.0135   55.5155 C.3       4 GLC5        0.0000 
     16 CA         13.7960   34.3100   56.2720 C.3      12 GLL5        0.0000 
     17 CA         11.7340   37.7170   54.7590 C.3       8 GLP5        0.0000 
     18 CA         14.6995   34.2295   58.2685 C.3       4 GLC5        0.0000 
     19 CA         15.6030   34.1490   60.2650 C.3       8 GLP5        0.0000 
     20 CA         19.4095   27.6895   59.8640 C.3       4 GLC5        0.0000 
     21 CA         17.3420   27.6550   59.6460 C.3      12 GLL5        0.0000 
     22 CA         21.4770   27.7240   60.0820 C.3       8 GLP5        0.0000 
     23 CA         17.0035   28.3930   61.6645 C.3       4 GLC5        0.0000 
     24 CA         16.6650   29.1310   63.6830 C.3       8 GLP5        0.0000 
     25 N          20.8195   29.8720   56.9105 N.am      2 SEC2        0.0000 
     26 N          20.5770   31.1980   57.4040 N.am     10 SEL2        0.0000 
     27 N          21.0620   28.5460   56.4170 N.am      6 SEP2        0.0000 
     28 O          18.1400   33.9715   57.7865 O.2       1 ALC1        0.0000 
     29 O          19.3400   33.0750   57.6590 O.2       9 ALL1        0.0000 
     30 O          16.9400   34.8680   57.9140 O.2       5 ALP1        0.0000 
     31 O          21.6635   36.8305   57.4975 O.2       1 ALC1        0.0000 
     32 O          22.0230   35.6750   58.0470 O.2       9 ALL1        0.0000 
     33 O          21.3040   37.9860   56.9480 O.2       5 ALP1        0.0000 
     34 CA         20.6340   36.4260   54.8555 C.3       4 GLC5        0.0000 
     35 CA         20.0820   34.8730   56.1680 C.3      12 GLL5        0.0000 
     36 CA         21.1860   37.9790   53.5430 C.3       8 GLP5        0.0000 
     37 CA         18.5705   36.0320   57.3435 C.3       4 GLC5        0.0000 
     38 CA         17.0590   37.1910   58.5190 C.3       8 GLP5        0.0000 
     39 CA         18.0585   30.6830   53.5160 C.3       4 GLC5        0.0000 
     40 CA         18.1170   32.7010   52.9300 C.3      12 GLL5        0.0000 
     41 CA         18.0000   28.6650   54.1020 C.3       8 GLP5        0.0000 
     42 CA         21.0275   29.8245   52.4435 C.3       4 GLC5        0.0000 
     43 CA         20.0850   31.3630   52.6920 C.3      12 GLL5        0.0000 
     44 CA         21.9700   28.2860   52.1950 C.3       8 GLP5        0.0000 
     45 CA         20.6310   32.4145   51.5435 C.3       4 GLC5        0.0000 
     46 CA         21.1770   33.4660   50.3950 C.3       8 GLP5        0.0000 
     47 CA         14.7710   33.3975   52.4195 C.3       4 GLC5        0.0000 
     48 CA         16.1940   34.0810   53.2350 C.3      12 GLL5        0.0000 
     49 CA         13.3480   32.7140   51.6040 C.3       8 GLP5        0.0000 
     50 CA         15.8345   35.0115   51.8655 C.3       4 GLC5        0.0000 
     51 CA         15.4750   35.9420   50.4960 C.3       8 GLP5        0.0000 
     52 CA         22.2695   36.4620   61.5365 C.3       4 GLC5        0.0000 
     53 CA         22.5610   34.3630   61.9140 C.3      12 GLL5        0.0000 
     54 CA         21.9780   38.5610   61.1590 C.3       8 GLP5        0.0000 
     55 OD1        20.3760   36.0680   60.9500 O.co2     3 ASC3        0.0000 
     56 OD1        21.7720   34.8360   60.7980 O.co2    11 ASL3        0.0000 
     57 OD1        18.9800   37.3000   61.1020 O.co2     7 ASP3        0.0000 
     58 OD1        20.6030   35.0825   61.3420 O.co2     3 ASC3        0.0000 
     59 OD1        19.4340   35.3290   61.8860 O.co2     7 ASP3        0.0000 
     60 N          23.1230   31.2315   57.8095 N.am      2 SEC2        0.0000 
     61 N          22.9750   32.6340   58.1730 N.am     10 SEL2        0.0000 
     62 N          23.2710   29.8290   57.4460 N.am      6 SEP2        0.0000 
     63 CA         24.8860   31.8085   57.7855 C.3       4 GLC5        0.0000 
     64 CA         25.1990   32.6000   59.7880 C.3      12 GLL5        0.0000 
     65 CA         24.5730   31.0170   55.7830 C.3       8 GLP5        0.0000 
     66 CA         25.3560   32.7120   57.0175 C.3       4 GLC5        0.0000 
     67 CA         26.1390   34.4070   58.2520 C.3      12 GLL5        0.0000 
     68 CA         27.3725   35.0125   55.8025 C.3       4 GLC5        0.0000 
     69 CA         27.1290   35.3800   57.9300 C.3      12 GLL5        0.0000 
     70 CA         27.6160   34.6450   53.6750 C.3       8 GLP5        0.0000 
     71 CA         17.4335   29.5252   56.7267 C.3       4 GLC5        0.0000 
     72 CA         15.8560   30.6790   57.8660 C.3      12 GLL5        0.0000 
     73 CA         18.9550   28.9930   55.2460 C.3       8 GLP5        0.0000 
     74 CA         16.0233   32.6050   58.9947 C.3       4 GLC5        0.0000 
     75 CA         17.0310   31.4430   57.5830 C.3      12 GLL5        0.0000 
     76 CA         18.3125   30.0962   56.5132 C.3       4 GLC5        0.0000 
     77 CA         20.2075   29.6477   58.8605 C.3       4 GLC5        0.0000 
     78 CA         18.3090   30.9560   57.9780 C.3      12 GLL5        0.0000 
     79 CA         22.0510   28.9660   59.4040 C.3       8 GLP5        0.0000 
     80 CA         18.3932   29.1587   57.0225 C.3       4 GLC5        0.0000 
     81 CA         18.4190   29.7030   58.6560 C.3      12 GLL5        0.0000 
     82 CA         13.1780   32.6833   53.5885 C.3       4 GLC5        0.0000 
     83 CA         14.1617   31.7065   53.0958 C.3       4 GLC5        0.0000 
     84 CA         14.6950   30.1860   54.0880 C.3      12 GLL5        0.0000 
     85 CA         16.2954   29.2340   54.3936 C.3       4 GLC5        0.0000 
     86 CA         15.2560   31.2120   55.0870 C.3      12 GLL5        0.0000 
     87 CA         22.0620   34.4322   56.1591 C.3       4 GLC5        0.0000 
     88 CA         20.4870   33.9350   57.3150 C.3      12 GLL5        0.0000 
     89 CA         23.7090   34.2510   55.2780 C.3       8 GLP5        0.0000 
     90 CA         19.1852   31.7685   51.1052 C.3       4 GLC5        0.0000 
     91 CA         19.4420   32.3550   53.3190 C.3      12 GLL5        0.0000 
     92 CA         19.5910   31.0090   49.0860 C.3       8 GLP5        0.0000 
     93 CA         21.6457   31.8941   54.2383 C.3       4 GLC5        0.0000 
     94 CA         20.0820   33.0640   54.3750 C.3      12 GLL5        0.0000 
     95 CA         23.3680   31.7520   55.2070 C.3       8 GLP5        0.0000 
     96 CA         19.4393   30.5146   54.2578 C.3       4 GLC5        0.0000 
     97 CA         17.0380   35.9195   53.6040 C.3       4 GLC5        0.0000 
     98 CA         17.4350   33.7560   53.6000 C.3      12 GLL5        0.0000 
     99 CA         17.1020   37.7430   53.5260 C.3       8 GLP5        0.0000 
    100 CA         24.6930   35.0132   62.5550 C.3       4 GLC5        0.0000 
    101 CA         26.1350   35.8680   63.4320 C.3       8 GLP5        0.0000 
    102 CA         22.7000   34.8257   63.4650 C.3       4 GLC5        0.0000 
    103 CA         23.9410   33.9540   61.4420 C.3      12 GLL5        0.0000 
    104 CA         22.1490   35.4930   65.2520 C.3       8 GLP5        0.0000 
    105 CA         25.5600   36.5053   57.6915 C.3       4 GLC5        0.0000 
    106 CA         24.4860   38.1170   57.2920 C.3       8 GLP5        0.0000 
    107 CA         29.2212   36.6565   60.3265 C.3       4 GLC5        0.0000 
    108 CA         28.2390   35.5770   58.8050 C.3      12 GLL5        0.0000 
    109 CA         30.1440   38.1230   61.2510 C.3       8 GLP5        0.0000 
@<TRIPOS>BOND
@<TRIPOS>SUBSTRUCTURE
     1 ALC1       28 GROUP        1 X    ALC  0     ROOT ALC X 1
     2 SEC2        4 GROUP        1 X    SEC  0     **** SEC X 2
     3 ASC3       55 GROUP        1 X    ASC  0     **** ASC X 3
     4 GLC5        1 GROUP        1 X    GLC  0     **** GLC X 6
     5 ALP1       30 GROUP        1 Y    ALP  0     ROOT ALP Y 8
     6 SEP2        6 GROUP        1 Y    SEP  0     **** SEP Y 9
     7 ASP3       57 GROUP        1 Y    ASP  0     **** ASP Y 10
     8 GLP5        3 GROUP        1 Y    GLP  0     **** GLP Y 13
     9 ALL1       29 GROUP        1 Z    ALL  0     ROOT ALL Z 15
    10 SEL2        5 GROUP        1 Z    SEL  0     **** SEL Z 16
    11 ASL3       56 GROUP        1 Z    ASL  0     **** ASL Z 17
    12 GLL5        2 GROUP        1 Z    GLL  0     **** GLL Z 20
@<TRIPOS>SET

