#    Name: 3cic_316_2_ligand
#    Modification time : Mon Mar 24 21:30:38 2014

@<TRIPOS>MOLECULE
3cic_316_2_ligand
   86    89     1     0     0
SMALL
NO_CHARGES


@<TRIPOS>ATOM
      1 C1         15.9680   29.4360   58.5490 C.ar      1 316501      0.0000 
      2 C2         15.8560   30.6790   57.8660 C.ar      1 316501      0.0000 
      3 C3         17.0310   31.4430   57.5830 C.ar      1 316501      0.0000 
      4 C4         18.3090   30.9560   57.9780 C.ar      1 316501      0.0000 
      5 C5         18.4190   29.7030   58.6560 C.ar      1 316501      0.0000 
      6 C6         17.2440   28.9460   58.9420 C.ar      1 316501      0.0000 
      7 C7         14.5300   31.1780   57.4830 C.2       1 316501      0.0000 
      8 N1         14.2890   31.4270   56.1640 N.am      1 316501      0.0000 
      9 O1         13.6670   31.3740   58.3210 O.2       1 316501      0.0000 
     10 C8         12.9650   31.9300   55.8290 C.3       1 316501      0.0000 
     11 C9         15.2560   31.2120   55.0870 C.3       1 316501      0.0000 
     12 C10        14.6950   30.1860   54.0880 C.3       1 316501      0.0000 
     13 C11        14.2060   28.9070   54.7830 C.3       1 316501      0.0000 
     14 C12        13.0510   33.3750   55.3170 C.3       1 316501      0.0000 
     15 C13        13.7960   34.3100   56.2720 C.3       1 316501      0.0000 
     16 C14        17.3420   27.6550   59.6460 C.3       1 316501      0.0000 
     17 C15        19.5080   31.7290   57.6610 C.2       1 316501      0.0000 
     18 O2         20.5770   31.1980   57.4040 O.2       1 316501      0.0000 
     19 N2         19.3400   33.0750   57.6590 N.am      1 316501      0.0000 
     20 C16        20.4870   33.9350   57.3150 C.3       1 316501      0.0000 
     21 C17        21.0090   34.7730   58.5100 C.3       1 316501      0.0000 
     22 O3         22.0230   35.6750   58.0470 O.3       1 316501      0.0000 
     23 C18        20.0820   34.8730   56.1680 C.3       1 316501      0.0000 
     24 C19        19.4000   34.1190   55.0460 C.ar      1 316501      0.0000 
     25 C20        20.0820   33.0640   54.3750 C.ar      1 316501      0.0000 
     26 C21        19.4420   32.3550   53.3190 C.ar      1 316501      0.0000 
     27 C22        18.1170   32.7010   52.9300 C.ar      1 316501      0.0000 
     28 C23        17.4350   33.7560   53.6000 C.ar      1 316501      0.0000 
     29 C24        18.0730   34.4660   54.6580 C.ar      1 316501      0.0000 
     30 F1         20.0850   31.3630   52.6920 F         1 316501      0.0000 
     31 F2         16.1940   34.0810   53.2350 F         1 316501      0.0000 
     32 C25        21.5940   33.9490   59.6620 C.3       1 316501      0.0000 
     33 C26        22.9010   33.2220   59.2480 C.2       1 316501      0.0000 
     34 N4         23.9370   33.2720   60.1370 N.am      1 316501      0.0000 
     35 C28        23.9410   33.9540   61.4420 C.3       1 316501      0.0000 
     36 C29        22.5610   34.3630   61.9140 C.3       1 316501      0.0000 
     37 N3         21.7720   34.8360   60.7980 N.4       1 316501      0.0000 
     38 O4         22.9750   32.6340   58.1730 O.2       1 316501      0.0000 
     39 C27        25.1990   32.6000   59.7880 C.3       1 316501      0.0000 
     40 C31        26.2560   33.6320   59.4430 C.ar      1 316501      0.0000 
     41 C32        26.1390   34.4070   58.2520 C.ar      1 316501      0.0000 
     42 C33        27.1290   35.3800   57.9300 C.ar      1 316501      0.0000 
     43 C34        28.2390   35.5770   58.8050 C.ar      1 316501      0.0000 
     44 C35        28.3580   34.8030   59.9990 C.ar      1 316501      0.0000 
     45 C36        27.3670   33.8310   60.3170 C.ar      1 316501      0.0000 
     46 H          15.1297   28.8942   58.7576 H         1 316501      0.0000 
     47 H          16.9509   32.3334   57.0997 H         1 316501      0.0000 
     48 H          19.3303   29.3536   58.9327 H         1 316501      0.0000 
     49 H          12.3058   31.9207   56.7036 H         1 316501      0.0000 
     50 H          12.4976   31.3222   55.0468 H         1 316501      0.0000 
     51 H          16.1978   30.8254   55.4764 H         1 316501      0.0000 
     52 H          15.4538   32.1376   54.5465 H         1 316501      0.0000 
     53 H          15.4755   29.9261   53.3689 H         1 316501      0.0000 
     54 H          13.8622   30.6379   53.5437 H         1 316501      0.0000 
     55 H          12.0337   33.7576   55.1612 H         1 316501      0.0000 
     56 H          13.5591   33.3771   54.3436 H         1 316501      0.0000 
     57 H          18.4641   33.5331   57.8820 H         1 316501      0.0000 
     58 H          21.3134   33.3251   56.9510 H         1 316501      0.0000 
     59 H          20.1659   35.3473   58.9037 H         1 316501      0.0000 
     60 H          20.9778   35.3685   55.7861 H         1 316501      0.0000 
     61 H          19.4068   35.6372   56.5605 H         1 316501      0.0000 
     62 H          21.0304   32.8160   54.6515 H         1 316501      0.0000 
     63 H          17.6592   32.1965   52.1763 H         1 316501      0.0000 
     64 H          17.5836   35.2175   55.1346 H         1 316501      0.0000 
     65 H          20.8519   33.1800   59.9103 H         1 316501      0.0000 
     66 H          24.5769   34.8600   61.3952 H         1 316501      0.0000 
     67 H          24.3934   33.2983   62.2120 H         1 316501      0.0000 
     68 H          22.6745   35.1438   62.6760 H         1 316501      0.0000 
     69 H          22.0888   33.4958   62.3916 H         1 316501      0.0000 
     70 H          25.0575   31.9420   58.9274 H         1 316501      0.0000 
     71 H          25.5573   31.9982   60.6265 H         1 316501      0.0000 
     72 H          25.3457   34.2646   57.6300 H         1 316501      0.0000 
     73 H          27.0459   35.9311   57.0822 H         1 316501      0.0000 
     74 H          28.9476   36.2706   58.5778 H         1 316501      0.0000 
     75 H          29.1492   34.9468   60.6197 H         1 316501      0.0000 
     76 H          27.4494   33.2781   61.1660 H         1 316501      0.0000 
     77 H          14.9428   28.4503   55.2815 H         1 316501      0.0000 
     78 H          13.4796   29.0976   55.4433 H         1 316501      0.0000 
     79 H          13.8408   28.2451   54.1284 H         1 316501      0.0000 
     80 H          14.7384   34.0120   56.4237 H         1 316501      0.0000 
     81 H          13.8374   35.2449   55.9195 H         1 316501      0.0000 
     82 H          13.3547   34.3540   57.1683 H         1 316501      0.0000 
     83 H          18.2894   27.4233   59.8666 H         1 316501      0.0000 
     84 H          16.8339   27.6621   60.5072 H         1 316501      0.0000 
     85 H          16.9768   26.9036   59.0964 H         1 316501      0.0000 
     86 H          21.5230   36.4399   57.6409 H         1 316501      0.0000 
@<TRIPOS>BOND
     1    2    1 ar   
     2    6    1 ar   
     3   46    1 1    
     4    3    2 ar   
     5    7    2 1    
     6    4    3 ar   
     7   47    3 1    
     8    5    4 ar   
     9   17    4 1    
    10    6    5 ar   
    11   48    5 1    
    12   16    6 1    
    13    8    7 am   
    14    9    7 2    
    15   10    8 1    
    16   11    8 1    
    17   14   10 1    
    18   49   10 1    
    19   50   10 1    
    20   12   11 1    
    21   51   11 1    
    22   52   11 1    
    23   13   12 1    
    24   53   12 1    
    25   54   12 1    
    26   77   13 1    
    27   78   13 1    
    28   79   13 1    
    29   15   14 1    
    30   55   14 1    
    31   56   14 1    
    32   80   15 1    
    33   81   15 1    
    34   82   15 1    
    35   83   16 1    
    36   84   16 1    
    37   85   16 1    
    38   18   17 2    
    39   19   17 am   
    40   20   19 1    
    41   57   19 1    
    42   21   20 1    
    43   23   20 1    
    44   58   20 1    
    45   22   21 1    
    46   32   21 1    
    47   59   21 1    
    48   86   22 1    
    49   24   23 1    
    50   60   23 1    
    51   61   23 1    
    52   25   24 ar   
    53   29   24 ar   
    54   26   25 ar   
    55   62   25 1    
    56   27   26 ar   
    57   30   26 1    
    58   28   27 ar   
    59   63   27 1    
    60   29   28 ar   
    61   31   28 1    
    62   64   29 1    
    63   33   32 1    
    64   37   32 1    
    65   65   32 1    
    66   34   33 am   
    67   38   33 2    
    68   35   34 1    
    69   39   34 1    
    70   36   35 1    
    71   66   35 1    
    72   67   35 1    
    73   37   36 1    
    74   68   36 1    
    75   69   36 1    
    76   40   39 1    
    77   70   39 1    
    78   71   39 1    
    79   41   40 ar   
    80   45   40 ar   
    81   42   41 ar   
    82   72   41 1    
    83   43   42 ar   
    84   73   42 1    
    85   44   43 ar   
    86   74   43 1    
    87   45   44 ar   
    88   75   44 1    
    89   76   45 1    
@<TRIPOS>SUBSTRUCTURE
     1 316501      1 GROUP   
@<TRIPOS>SET

