#    Name: 2jf6_S55_1_INTS_M
#    Modification time : Tue Mar 25 20:38:17 2014

@<TRIPOS>MOLECULE
2jf6_S55_1_INTS_M
   88     0     9     0     0
SMALL
NO_CHARGES


@<TRIPOS>ATOM
      1 CA         47.3675   71.9960   12.9590 C.3       3 GLC5        0.0000 
      2 CA         45.8680   72.7640   11.8000 C.3       9 GLL5        0.0000 
      3 CA         48.8670   71.2280   14.1180 C.3       6 GLP5        0.0000 
      4 CA         46.8670   73.9110   12.3650 C.3       3 GLC5        0.0000 
      5 CA         47.8660   75.0580   12.9300 C.3       6 GLP5        0.0000 
      6 CA         46.2350   71.1895   11.2210 C.3       3 GLC5        0.0000 
      7 CA         46.6020   69.6150   10.6420 C.3       6 GLP5        0.0000 
      8 CA         42.4675   71.4810   11.2950 C.3       3 GLC5        0.0000 
      9 CA         43.8900   72.6670   10.1640 C.3       9 GLL5        0.0000 
     10 CA         41.0450   70.2950   12.4260 C.3       6 GLP5        0.0000 
     11 CA         40.8245   71.7790   10.4255 C.3       3 GLC5        0.0000 
     12 CA         41.7640   72.6070    8.8250 C.3       9 GLL5        0.0000 
     13 CA         39.8850   70.9510   12.0260 C.3       6 GLP5        0.0000 
     14 N          41.1850   74.7155    9.6315 N.am      2 SEC2        0.0000 
     15 N          40.7980   73.6370    8.9780 N.am      8 SEL2        0.0000 
     16 N          41.5720   75.7940   10.2850 N.am      5 SEP2        0.0000 
     17 CA         39.6925   72.0540   10.6285 C.3       3 GLC5        0.0000 
     18 CA         39.5000   73.1570    9.2310 C.3       9 GLL5        0.0000 
     19 CA         38.8280   68.4480    7.5765 C.3       3 GLC5        0.0000 
     20 CA         38.6910   70.0760    7.5430 C.3       9 GLL5        0.0000 
     21 CA         38.9650   66.8200    7.6100 C.3       6 GLP5        0.0000 
     22 CA         35.9125   71.8800    7.8310 C.3       3 GLC5        0.0000 
     23 CA         37.6230   72.3770    7.2940 C.3       9 GLL5        0.0000 
     24 CA         34.2020   71.3830    8.3680 C.3       6 GLP5        0.0000 
     25 CA         38.0395   73.0395    5.4185 C.3       3 GLC5        0.0000 
     26 CA         38.4560   73.7020    3.5430 C.3       6 GLP5        0.0000 
     27 N          35.6065   72.3955    5.5445 N.am      2 SEC2        0.0000 
     28 N          36.3640   71.9220    6.8460 N.am      8 SEL2        0.0000 
     29 N          34.8490   72.8690    4.2430 N.am      5 SEP2        0.0000 
     30 O          36.8770   71.1550    5.5710 O.2       1 ALC1        0.0000 
     31 O          36.3640   71.9220    6.8460 O.2       7 ALL1        0.0000 
     32 O          37.3900   70.3880    4.2960 O.2       4 ALP1        0.0000 
     33 CA         35.5370   72.9980    7.7045 C.3       3 GLC5        0.0000 
     34 CA         37.3070   73.6670    7.9970 C.3       9 GLL5        0.0000 
     35 CA         33.7670   72.3290    7.4120 C.3       6 GLP5        0.0000 
     36 N          36.4890   76.0225    7.1790 N.am      2 SEC2        0.0000 
     37 N          36.9830   74.6300    7.0240 N.am      8 SEL2        0.0000 
     38 N          35.9950   77.4150    7.3340 N.am      5 SEP2        0.0000 
     39 N          37.2800   74.5575    5.6305 N.am      2 SEC2        0.0000 
     40 N          37.5770   74.4850    4.2370 N.am      5 SEP2        0.0000 
     41 O          35.4865   74.6215    6.2410 O.2       1 ALC1        0.0000 
     42 O          36.9830   74.6300    7.0240 O.2       7 ALL1        0.0000 
     43 O          33.9900   74.6130    5.4580 O.2       4 ALP1        0.0000 
     44 CA         39.3660   75.4915    7.3310 C.3       3 GLC5        0.0000 
     45 CA         38.5140   74.2160    8.7010 C.3       9 GLL5        0.0000 
     46 CA         40.2180   76.7670    5.9610 C.3       6 GLP5        0.0000 
     47 N          37.7085   76.6115    9.7805 N.am      2 SEC2        0.0000 
     48 N          37.9750   74.9640    9.8020 N.am      8 SEL2        0.0000 
     49 N          37.4420   78.2590    9.7590 N.am      5 SEP2        0.0000 
     50 O          37.4765   74.1630   10.5780 O.2       1 ALC1        0.0000 
     51 O          37.9750   74.9640    9.8020 O.2       7 ALL1        0.0000 
     52 O          36.9780   73.3620   11.3540 O.2       4 ALP1        0.0000 
     53 CA         48.3150   68.9000    7.4970 C.3       3 GLC5        0.0000 
     54 CA         47.6120   70.1740    6.1400 C.3       9 GLL5        0.0000 
     55 CA         49.0180   67.6260    8.8540 C.3       6 GLP5        0.0000 
     56 CA         47.6420   67.8605    7.0555 C.3       3 GLC5        0.0000 
     57 CA         47.4180   68.7640    5.5890 C.3       9 GLL5        0.0000 
     58 CA         47.8660   66.9570    8.5220 C.3       6 GLP5        0.0000 
     59 CA         38.5965   70.4778    9.8770 C.3       3 GLC5        0.0000 
     60 CA         38.7120   70.2360   11.8690 C.3       6 GLP5        0.0000 
     61 CA         36.8160   70.1882    8.6680 C.3       3 GLC5        0.0000 
     62 CA         38.2710   71.3630    8.2270 C.3       9 GLL5        0.0000 
     63 CA         35.1510   69.6570    9.4510 C.3       6 GLP5        0.0000 
     64 CA         41.2840   75.0497    5.9337 C.3       3 GLC5        0.0000 
     65 CA         42.7540   73.7150    5.4000 C.3       9 GLL5        0.0000 
     66 CA         42.9040   74.0327    4.3968 C.3       3 GLC5        0.0000 
     67 CA         43.4580   74.7330    2.8870 C.3       6 GLP5        0.0000 
     68 CA         43.1632   75.1459    6.5165 C.3       3 GLC5        0.0000 
     69 CA         43.7910   76.9220    6.7980 C.3       6 GLP5        0.0000 
     70 CA         44.7171   70.9729    9.6735 C.3       3 GLC5        0.0000 
     71 CA         44.0810   72.4560    7.7270 C.3       9 GLL5        0.0000 
     72 CA         45.2450   69.4180   10.6670 C.3       6 GLP5        0.0000 
     73 CA         44.6675   69.5143    8.5903 C.3       3 GLC5        0.0000 
     74 CA         44.0230   71.0220    7.2130 C.3       9 GLL5        0.0000 
     75 CA         44.6460   68.3670    9.9700 C.3       6 GLP5        0.0000 
     76 CA         46.5220   65.6937    6.0608 C.3       3 GLC5        0.0000 
     77 CA         44.8540   65.1060    4.3570 C.3       9 GLL5        0.0000 
     78 CA         47.7350   65.7700    7.6270 C.3       6 GLP5        0.0000 
     79 CA         44.8210   63.7724    4.6746 C.3       3 GLC5        0.0000 
     80 CA         45.7640   66.1290    4.6320 C.3       9 GLL5        0.0000 
     81 CA         45.2170   62.1670    4.6800 C.3       6 GLP5        0.0000 
     82 CA         41.5247   64.7057    5.5770 C.3       3 GLC5        0.0000 
     83 CA         43.5410   65.1380    4.8440 C.3       9 GLL5        0.0000 
     84 CA         39.7200   63.7350    5.9230 C.3       6 GLP5        0.0000 
     85 CA         42.8632   66.9183    3.5025 C.3       3 GLC5        0.0000 
     86 CA         42.3970   68.1600    1.7740 C.3       6 GLP5        0.0000 
     87 CA         46.4195   66.8591    6.7795 C.3       3 GLC5        0.0000 
     88 CA         45.3270   67.1940    5.4100 C.3       9 GLL5        0.0000 
@<TRIPOS>BOND
@<TRIPOS>SUBSTRUCTURE
     1 ALC1       30 GROUP        1 X    ALC  0     ROOT ALC X 1
     2 SEC2       14 GROUP        1 X    SEC  0     **** SEC X 2
     3 GLC5        1 GROUP        1 X    GLC  0     **** GLC X 6
     4 ALP1       32 GROUP        1 Y    ALP  0     ROOT ALP Y 8
     5 SEP2       16 GROUP        1 Y    SEP  0     **** SEP Y 9
     6 GLP5        3 GROUP        1 Y    GLP  0     **** GLP Y 13
     7 ALL1       31 GROUP        1 Z    ALL  0     ROOT ALL Z 15
     8 SEL2       15 GROUP        1 Z    SEL  0     **** SEL Z 16
     9 GLL5        2 GROUP        1 Z    GLL  0     **** GLL Z 20
@<TRIPOS>SET

