#    Name: 2jf6_S55_1_ligand
#    Modification time : Tue Mar 25 20:38:17 2014

@<TRIPOS>MOLECULE
2jf6_S55_1_ligand
   73    77     1     0     0
SMALL
NO_CHARGES


@<TRIPOS>ATOM
      1 O24        47.0060   72.4860    8.4090 O.2       1 S551509     0.0000 
      2 C21        46.1730   72.4800    9.3140 C.2       1 S551509     0.0000 
      3 O22        46.6880   72.4220   10.6660 O.3       1 S551509     0.0000 
      4 C23        45.8680   72.7640   11.8000 C.3       1 S551509     0.0000 
      5 C20        44.7050   72.5320    9.1020 C.2       1 S551509     0.0000 
      6 C19        43.8900   72.6670   10.1640 C.2       1 S551509     0.0000 
      7 O18        42.4640   72.4140   10.0520 O.3       1 S551509     0.0000 
      8 C17        41.7640   72.6070    8.8250 C.3       1 S551509     0.0000 
      9 O27        40.7980   73.6370    8.9780 O.3       1 S551509     0.0000 
     10 C28        39.5000   73.1570    9.2310 C.3       1 S551509     0.0000 
     11 O33        39.5180   71.9110    8.5670 O.3       1 S551509     0.0000 
     12 C32        38.2710   71.3630    8.2270 C.3       1 S551509     0.0000 
     13 C33        38.6910   70.0760    7.5430 C.3       1 S551509     0.0000 
     14 O34        40.1180   69.9180    7.6930 O.3       1 S551509     0.0000 
     15 C31        37.6230   72.3770    7.2940 C.3       1 S551509     0.0000 
     16 O35        36.3640   71.9220    6.8460 O.3       1 S551509     0.0000 
     17 C30        37.3070   73.6670    7.9970 C.3       1 S551509     0.0000 
     18 O36        36.9830   74.6300    7.0240 O.3       1 S551509     0.0000 
     19 C29        38.5140   74.2160    8.7010 C.3       1 S551509     0.0000 
     20 O37        37.9750   74.9640    9.8020 O.3       1 S551509     0.0000 
     21 C16        42.6880   73.0990    7.7270 C.3       1 S551509     0.0000 
     22 C25        41.9460   72.9500    6.4130 C.3       1 S551509     0.0000 
     23 C26        42.7540   73.7150    5.4000 C.3       1 S551509     0.0000 
     24 C15        44.0810   72.4560    7.7270 C.3       1 S551509     0.0000 
     25 C14        44.0230   71.0220    7.2130 C.3       1 S551509     0.0000 
     26 C13        45.3550   70.3010    7.2080 C.3       1 S551509     0.0000 
     27 N12        46.3840   70.9180    6.3910 N.4       1 S551509     0.0000 
     28 C11        47.6120   70.1740    6.1400 C.3       1 S551509     0.0000 
     29 C10        47.4180   68.7640    5.5890 C.3       1 S551509     0.0000 
     30 C7         45.9940   68.3240    5.8410 C.2       1 S551509     0.0000 
     31 C8         45.0710   69.0280    6.5780 C.2       1 S551509     0.0000 
     32 C5         45.3270   67.1940    5.4100 C.ar      1 S551509     0.0000 
     33 C4         44.0240   67.2470    5.8990 C.ar      1 S551509     0.0000 
     34 N9         43.8980   68.3850    6.6090 N.pl3     1 S551509     0.0000 
     35 C6         45.7640   66.1290    4.6320 C.ar      1 S551509     0.0000 
     36 C1         44.8540   65.1060    4.3570 C.ar      1 S551509     0.0000 
     37 C2         43.5410   65.1380    4.8440 C.ar      1 S551509     0.0000 
     38 C3         43.1180   66.2150    5.6180 C.ar      1 S551509     0.0000 
     39 H          44.2390   72.9532   11.0945 H         1 S551509     0.0000 
     40 H          41.2977   71.7057    8.4802 H         1 S551509     0.0000 
     41 H          39.3595   73.0472   10.2866 H         1 S551509     0.0000 
     42 H          37.6854   71.1687    9.0552 H         1 S551509     0.0000 
     43 H          38.4065   70.1364    6.4917 H         1 S551509     0.0000 
     44 H          38.1493   69.2489    8.0037 H         1 S551509     0.0000 
     45 H          38.2748   72.5859    6.4742 H         1 S551509     0.0000 
     46 H          36.5229   73.5272    8.6917 H         1 S551509     0.0000 
     47 H          39.0365   74.8824    8.0341 H         1 S551509     0.0000 
     48 H          42.8191   74.1940    7.8901 H         1 S551509     0.0000 
     49 H          40.9673   73.3773    6.5019 H         1 S551509     0.0000 
     50 H          41.9000   71.9145    6.1411 H         1 S551509     0.0000 
     51 H          44.7076   73.0358    7.0355 H         1 S551509     0.0000 
     52 H          43.6114   71.0294    6.1856 H         1 S551509     0.0000 
     53 H          43.3048   70.4516    7.8325 H         1 S551509     0.0000 
     54 H          45.6770   70.1366    8.2039 H         1 S551509     0.0000 
     55 H          48.2140   70.0915    7.0764 H         1 S551509     0.0000 
     56 H          48.2634   70.7303    5.4243 H         1 S551509     0.0000 
     57 H          48.1042   68.0891    6.0872 H         1 S551509     0.0000 
     58 H          47.6181   68.7669    4.5238 H         1 S551509     0.0000 
     59 H          43.0963   68.6810    7.0608 H         1 S551509     0.0000 
     60 H          46.7104   66.0927    4.2746 H         1 S551509     0.0000 
     61 H          45.1565   64.3005    3.7770 H         1 S551509     0.0000 
     62 H          42.8977   64.3702    4.6293 H         1 S551509     0.0000 
     63 H          42.1651   66.2566    5.9769 H         1 S551509     0.0000 
     64 H          46.3681   72.6723   12.6611 H         1 S551509     0.0000 
     65 H          45.5404   73.7075   11.7504 H         1 S551509     0.0000 
     66 H          45.0613   72.1767   11.8656 H         1 S551509     0.0000 
     67 H          43.6839   73.3562    5.3191 H         1 S551509     0.0000 
     68 H          42.3434   73.6731    4.4892 H         1 S551509     0.0000 
     69 H          42.8330   74.6821    5.6417 H         1 S551509     0.0000 
     70 H          40.4489   70.8166    7.9812 H         1 S551509     0.0000 
     71 H          36.5543   71.4284    5.9974 H         1 S551509     0.0000 
     72 H          36.0935   74.3465    6.6656 H         1 S551509     0.0000 
     73 H          38.1018   74.3761   10.6009 H         1 S551509     0.0000 
@<TRIPOS>BOND
     1    2    1 2    
     2    3    2 1    
     3    5    2 1    
     4    4    3 1    
     5   64    4 1    
     6   65    4 1    
     7   66    4 1    
     8    6    5 2    
     9   24    5 1    
    10    7    6 1    
    11   39    6 1    
    12    8    7 1    
    13    9    8 1    
    14   21    8 1    
    15   40    8 1    
    16   10    9 1    
    17   11   10 1    
    18   19   10 1    
    19   41   10 1    
    20   12   11 1    
    21   13   12 1    
    22   15   12 1    
    23   42   12 1    
    24   14   13 1    
    25   43   13 1    
    26   44   13 1    
    27   70   14 1    
    28   16   15 1    
    29   17   15 1    
    30   45   15 1    
    31   71   16 1    
    32   18   17 1    
    33   19   17 1    
    34   46   17 1    
    35   72   18 1    
    36   20   19 1    
    37   47   19 1    
    38   73   20 1    
    39   22   21 1    
    40   24   21 1    
    41   48   21 1    
    42   23   22 1    
    43   49   22 1    
    44   50   22 1    
    45   67   23 1    
    46   68   23 1    
    47   69   23 1    
    48   25   24 1    
    49   51   24 1    
    50   26   25 1    
    51   52   25 1    
    52   53   25 1    
    53   27   26 1    
    54   31   26 1    
    55   54   26 1    
    56   28   27 1    
    57   29   28 1    
    58   55   28 1    
    59   56   28 1    
    60   30   29 1    
    61   57   29 1    
    62   58   29 1    
    63   31   30 2    
    64   32   30 1    
    65   34   31 1    
    66   33   32 ar   
    67   35   32 ar   
    68   34   33 1    
    69   38   33 ar   
    70   59   34 1    
    71   36   35 ar   
    72   60   35 1    
    73   37   36 ar   
    74   61   36 1    
    75   38   37 ar   
    76   62   37 1    
    77   63   38 1    
@<TRIPOS>SUBSTRUCTURE
     1 S551509     1 GROUP   
@<TRIPOS>SET

