#    Name: 2cn5_ADP_1_INTS_M
#    Modification time : Tue Mar 25 01:11:19 2014

@<TRIPOS>MOLECULE
2cn5_ADP_1_INTS_M
   69     0    15     0     0
SMALL
NO_CHARGES


@<TRIPOS>ATOM
      1 NZ         80.8205  -46.0280   14.2470 N.4       3 LYC4        0.0000 
      2 NZ         80.9520  -47.3310   13.6960 N.4      13 LYL4        0.0000 
      3 NZ         80.6890  -44.7250   14.7980 N.4       8 LYP4        0.0000 
      4 N          80.8205  -46.0280   14.2470 N.am      2 SEC2        0.0000 
      5 N          80.9520  -47.3310   13.6960 N.am     12 SEL2        0.0000 
      6 N          80.6890  -44.7250   14.7980 N.am      7 SEP2        0.0000 
      7 N          83.4120  -48.7005   12.3920 N.am      2 SEC2        0.0000 
      8 N          83.2160  -48.4030   13.8600 N.am     12 SEL2        0.0000 
      9 N          83.6080  -48.9980   10.9240 N.am      7 SEP2        0.0000 
     10 N          83.9770  -47.5605   13.1550 N.am      2 SEC2        0.0000 
     11 N          84.7380  -46.7180   12.4500 N.am      7 SEP2        0.0000 
     12 Zn         80.4835  -49.7740   15.6970 Zn        4 ZIC7        0.0000 
     13 Zn         81.2930  -49.5760   15.0050 Zn       14 ZIL7        0.0000 
     14 Zn         79.6740  -49.9720   16.3890 Zn        9 ZIP7        0.0000 
     15 Zn         80.0790  -49.1740   16.9105 Zn        4 ZIC7        0.0000 
     16 Zn         80.4840  -48.3760   17.4320 Zn       14 ZIL7        0.0000 
     17 NZ         80.7235  -45.2585   16.0255 N.4       3 LYC4        0.0000 
     18 NZ         80.7580  -45.7920   17.2530 N.4      13 LYL4        0.0000 
     19 N          80.7235  -45.2585   16.0255 N.am      2 SEC2        0.0000 
     20 N          80.7580  -45.7920   17.2530 N.am     12 SEL2        0.0000 
     21 CA         85.8370  -48.9540   20.1470 C.3       5 GLC5        0.0000 
     22 CA         83.8860  -48.8170   19.5840 C.3      15 GLL5        0.0000 
     23 CA         87.7880  -49.0910   20.7100 C.3      10 GLP5        0.0000 
     24 O          80.8460  -50.8590   20.4665 O.2       1 ALC1        0.0000 
     25 O          82.1850  -50.5030   20.2860 O.2      11 ALL1        0.0000 
     26 O          79.5070  -51.2150   20.6470 O.2       6 ALP1        0.0000 
     27 O          83.7690  -51.3855   21.9230 O.2       1 ALC1        0.0000 
     28 O          83.9970  -50.0950   22.2800 O.2      11 ALL1        0.0000 
     29 O          83.5410  -52.6760   21.5660 O.2       6 ALP1        0.0000 
     30 CA         86.0080  -48.4305   21.2010 C.3       5 GLC5        0.0000 
     31 CA         84.2280  -47.7700   21.6920 C.3      15 GLL5        0.0000 
     32 CA         85.2215  -46.2120   20.7220 C.3       5 GLC5        0.0000 
     33 CA         86.2150  -44.6540   19.7520 C.3      10 GLP5        0.0000 
     34 CA         81.4840  -44.3505   25.7575 C.3       5 GLC5        0.0000 
     35 CA         82.3790  -43.7700   23.9220 C.3      15 GLL5        0.0000 
     36 CA         80.5890  -44.9310   27.5930 C.3      10 GLP5        0.0000 
     37 O          81.3445  -41.5615   24.5775 O.2       1 ALC1        0.0000 
     38 O          81.5790  -42.6930   23.7460 O.2      11 ALL1        0.0000 
     39 O          81.1100  -40.4300   25.4090 O.2       6 ALP1        0.0000 
     40 N          82.5840  -43.5505   26.4595 N.am      2 SEC2        0.0000 
     41 N          83.0170  -44.0300   25.0840 N.am     12 SEL2        0.0000 
     42 N          82.1510  -43.0710   27.8350 N.am      7 SEP2        0.0000 
     43 CA         85.6685  -44.3720   25.0740 C.3       5 GLC5        0.0000 
     44 CA         83.8350  -45.0890   25.2650 C.3      15 GLL5        0.0000 
     45 CA         87.5020  -43.6550   24.8830 C.3      10 GLP5        0.0000 
     46 CA         84.2955  -43.0905   24.3930 C.3       5 GLC5        0.0000 
     47 CA         84.7560  -41.0920   23.5210 C.3      10 GLP5        0.0000 
     48 CA         84.7680  -43.7955   26.3225 C.3       5 GLC5        0.0000 
     49 CA         85.7010  -42.5020   27.3800 C.3      10 GLP5        0.0000 
     50 CA         82.2120  -45.0100   26.4290 C.3       5 GLC5        0.0000 
     51 CA         82.0120  -45.7495   24.6080 C.3       5 GLC5        0.0000 
     52 CA         80.1890  -46.4100   23.9510 C.3      10 GLP5        0.0000 
     53 CA         85.4327  -49.0392   17.9450 C.3       5 GLC5        0.0000 
     54 CA         87.1760  -49.5090   17.0020 C.3      10 GLP5        0.0000 
     55 CA         84.4077  -46.7498   18.7775 C.3       5 GLC5        0.0000 
     56 CA         83.4930  -48.3220   18.1920 C.3      15 GLL5        0.0000 
     57 CA         85.1260  -44.9300   18.6670 C.3      10 GLP5        0.0000 
     58 CA         82.5327  -50.6800   22.2833 C.3       5 GLC5        0.0000 
     59 CA         82.7070  -49.1880   20.4750 C.3      15 GLL5        0.0000 
     60 CA         82.0780  -52.2900   23.3950 C.3      10 GLP5        0.0000 
     61 CA         81.4847  -48.9675   22.5202 C.3       5 GLC5        0.0000 
     62 CA         83.2680  -48.9520   21.8680 C.3      15 GLL5        0.0000 
     63 CA         79.9820  -48.8650   23.8690 C.3      10 GLP5        0.0000 
     64 CA         84.3732  -44.4530   21.8700 C.3       5 GLC5        0.0000 
     65 CA         83.4730  -45.8280   23.0700 C.3      15 GLL5        0.0000 
     66 CA         85.7170  -43.6450   20.8000 C.3      10 GLP5        0.0000 
     67 CA         83.6192  -42.6620   23.4435 C.3       5 GLC5        0.0000 
     68 CA         82.5860  -44.6940   22.8100 C.3      15 GLL5        0.0000 
     69 CA         81.5834  -45.7200   23.5845 C.3       5 GLC5        0.0000 
@<TRIPOS>BOND
@<TRIPOS>SUBSTRUCTURE
     1 ALC1       24 GROUP        1 X    ALC  0     ROOT ALC X 1
     2 SEC2        4 GROUP        1 X    SEC  0     **** SEC X 2
     3 LYC4        1 GROUP        1 X    LYC  0     **** LYC X 4
     4 ZIC7       12 GROUP        1 X    ZIC  0     **** ZIC X 5
     5 GLC5       21 GROUP        1 X    GLC  0     **** GLC X 6
     6 ALP1       26 GROUP        1 Y    ALP  0     ROOT ALP Y 8
     7 SEP2        6 GROUP        1 Y    SEP  0     **** SEP Y 9
     8 LYP4        3 GROUP        1 Y    LYP  0     **** LYP Y 11
     9 ZIP7       14 GROUP        1 Y    ZIP  0     **** ZIP Y 12
    10 GLP5       23 GROUP        1 Y    GLP  0     **** GLP Y 13
    11 ALL1       25 GROUP        1 Z    ALL  0     ROOT ALL Z 15
    12 SEL2        5 GROUP        1 Z    SEL  0     **** SEL Z 16
    13 LYL4        2 GROUP        1 Z    LYL  0     **** LYL Z 18
    14 ZIL7       13 GROUP        1 Z    ZIL  0     **** ZIL Z 19
    15 GLL5       22 GROUP        1 Z    GLL  0     **** GLL Z 20
@<TRIPOS>SET

