#    Name: 2cn5_ADP_1_ligand
#    Modification time : Tue Mar 25 01:11:20 2014

@<TRIPOS>MOLECULE
2cn5_ADP_1_ligand
   39    41     1     0     0
SMALL
NO_CHARGES


@<TRIPOS>ATOM
      1 PB         81.8450  -48.2620   14.4940 P.3       1 ADP1509     0.0000 
      2 O1B        80.9520  -47.3310   13.6960 O.co2     1 ADP1509     0.0000 
      3 O2B        83.2160  -48.4030   13.8600 O.co2     1 ADP1509     0.0000 
      4 O3B        81.2930  -49.5760   15.0050 O.co2     1 ADP1509     0.0000 
      5 PA         81.3620  -47.1580   17.2200 P.3       1 ADP1509     0.0000 
      6 O1A        80.4840  -48.3760   17.4320 O.co2     1 ADP1509     0.0000 
      7 O2A        80.7580  -45.7920   17.2530 O.co2     1 ADP1509     0.0000 
      8 O3A        82.2170  -47.3880   15.8480 O.3       1 ADP1509     0.0000 
      9 O5'        82.5810  -47.2040   18.2670 O.3       1 ADP1509     0.0000 
     10 C5'        83.4930  -48.3220   18.1920 C.3       1 ADP1509     0.0000 
     11 C4'        83.8860  -48.8170   19.5840 C.3       1 ADP1509     0.0000 
     12 O4'        84.6110  -47.7860   20.3190 O.3       1 ADP1509     0.0000 
     13 C3'        82.7070  -49.1880   20.4750 C.3       1 ADP1509     0.0000 
     14 O3'        82.1850  -50.5030   20.2860 O.3       1 ADP1509     0.0000 
     15 C2'        83.2680  -48.9520   21.8680 C.3       1 ADP1509     0.0000 
     16 O2'        83.9970  -50.0950   22.2800 O.3       1 ADP1509     0.0000 
     17 C1'        84.2280  -47.7700   21.6920 C.3       1 ADP1509     0.0000 
     18 N9         83.4720  -46.5140   21.9320 N.pl3     1 ADP1509     0.0000 
     19 C8         82.6930  -45.8780   21.0330 C.2       1 ADP1509     0.0000 
     20 N7         82.1260  -44.7820   21.5400 N.2       1 ADP1509     0.0000 
     21 C5         82.5860  -44.6940   22.8100 C.ar      1 ADP1509     0.0000 
     22 C6         82.3790  -43.7700   23.9220 C.ar      1 ADP1509     0.0000 
     23 N6         81.5790  -42.6930   23.7460 N.pl3     1 ADP1509     0.0000 
     24 N1         83.0170  -44.0300   25.0840 N.ar      1 ADP1509     0.0000 
     25 C2         83.8350  -45.0890   25.2650 C.ar      1 ADP1509     0.0000 
     26 N3         84.0590  -45.9870   24.2940 N.ar      1 ADP1509     0.0000 
     27 C4         83.4730  -45.8280   23.0700 C.ar      1 ADP1509     0.0000 
     28 H          84.4163  -48.0474   17.6588 H         1 ADP1509     0.0000 
     29 H          83.0429  -49.1670   17.6484 H         1 ADP1509     0.0000 
     30 H          84.5192  -49.6920   19.4877 H         1 ADP1509     0.0000 
     31 H          81.9501  -48.4102   20.3210 H         1 ADP1509     0.0000 
     32 H          82.4950  -48.6713   22.5116 H         1 ADP1509     0.0000 
     33 H          85.0295  -47.8698   22.3424 H         1 ADP1509     0.0000 
     34 H          82.5616  -46.1961   20.1008 H         1 ADP1509     0.0000 
     35 H          81.4980  -42.0728   24.5263 H         1 ADP1509     0.0000 
     36 H          81.1397  -42.6127   22.8513 H         1 ADP1509     0.0000 
     37 H          84.3108  -45.2105   26.2004 H         1 ADP1509     0.0000 
     38 H          81.2115  -50.4285   20.5024 H         1 ADP1509     0.0000 
     39 H          83.5457  -50.8657   21.8301 H         1 ADP1509     0.0000 
@<TRIPOS>BOND
     1    2    1 ar   
     2    3    1 ar   
     3    4    1 ar   
     4    8    1 1    
     5    6    5 ar   
     6    7    5 ar   
     7    8    5 1    
     8    9    5 1    
     9   10    9 1    
    10   11   10 1    
    11   28   10 1    
    12   29   10 1    
    13   12   11 1    
    14   13   11 1    
    15   30   11 1    
    16   17   12 1    
    17   14   13 1    
    18   15   13 1    
    19   31   13 1    
    20   38   14 1    
    21   16   15 1    
    22   17   15 1    
    23   32   15 1    
    24   39   16 1    
    25   18   17 1    
    26   33   17 1    
    27   19   18 1    
    28   27   18 1    
    29   20   19 2    
    30   34   19 1    
    31   21   20 1    
    32   22   21 ar   
    33   27   21 ar   
    34   23   22 1    
    35   24   22 ar   
    36   35   23 1    
    37   36   23 1    
    38   25   24 ar   
    39   26   25 ar   
    40   37   25 1    
    41   27   26 ar   
@<TRIPOS>SUBSTRUCTURE
     1 ADP1509     1 GROUP   
@<TRIPOS>SET

