#    Name: 4mf0_29Z_2_INTS_M
#    Modification time : Tue Mar 25 12:10:07 2014

@<TRIPOS>MOLECULE
4mf0_29Z_2_INTS_M
   73     0     9     0     0
SMALL
NO_CHARGES


@<TRIPOS>ATOM
      1 CA        -20.1580   36.5315    5.6695 C.3       3 GLC5        0.0000 
      2 CA        -21.4910   34.8600    6.1230 C.3       9 GLL5        0.0000 
      3 CA        -18.8250   38.2030    5.2160 C.3       6 GLP5        0.0000 
      4 CA        -17.9775   33.9575    6.8280 C.3       3 GLC5        0.0000 
      5 CA        -19.1850   34.4840    5.5480 C.3       9 GLL5        0.0000 
      6 CA        -16.7700   33.4310    8.1080 C.3       6 GLP5        0.0000 
      7 CA        -19.0050   36.3435    5.3820 C.3       3 GLC5        0.0000 
      8 CA        -17.8525   34.4845    3.9405 C.3       3 GLC5        0.0000 
      9 CA        -16.5200   34.4850    2.3330 C.3       6 GLP5        0.0000 
     10 CA        -16.7745   29.3710    4.9175 C.3       3 GLC5        0.0000 
     11 CA        -18.3940   29.9930    4.2180 C.3       9 GLL5        0.0000 
     12 CA        -15.1550   28.7490    5.6170 C.3       6 GLP5        0.0000 
     13 CA        -16.3475   29.0510    3.7890 C.3       3 GLC5        0.0000 
     14 CA        -17.5400   29.3530    1.9610 C.3       9 GLL5        0.0000 
     15 CA        -18.3050   30.1230   -1.4155 C.3       3 GLC5        0.0000 
     16 CA        -17.8490   29.1130    0.4820 C.3       9 GLL5        0.0000 
     17 CA        -18.7610   31.1330   -3.3130 C.3       6 GLP5        0.0000 
     18 O         -14.9270   31.6895   -0.4170 O.2       1 ALC1        0.0000 
     19 O         -14.3970   30.7310    0.4350 O.2       7 ALL1        0.0000 
     20 O         -15.4570   32.6480   -1.2690 O.2       4 ALP1        0.0000 
     21 N         -12.7885   33.1130   -0.6505 N.am      2 SEC2        0.0000 
     22 N         -12.2850   31.6600   -0.1690 N.am      8 SEL2        0.0000 
     23 N         -13.2920   34.5660   -1.1320 N.am      5 SEP2        0.0000 
     24 CA        -12.1495   32.3875   -1.7890 C.3       3 GLC5        0.0000 
     25 CA        -10.9540   31.4480   -0.3100 C.3       9 GLL5        0.0000 
     26 CA        -13.3450   33.3270   -3.2680 C.3       6 GLP5        0.0000 
     27 CA        -11.1040   34.1110   -0.0380 C.3       3 GLC5        0.0000 
     28 CA         -9.9230   32.3400   -0.7220 C.3       9 GLL5        0.0000 
     29 CA        -12.2850   35.8820    0.6460 C.3       6 GLP5        0.0000 
     30 CA        -10.9530   33.0995   -2.2210 C.3       3 GLC5        0.0000 
     31 CA        -11.9830   33.8590   -3.7200 C.3       6 GLP5        0.0000 
     32 CA        -12.4035   29.6370    2.2260 C.3       3 GLC5        0.0000 
     33 CA        -12.0270   29.2370    0.4400 C.3       9 GLL5        0.0000 
     34 CA        -12.7800   30.0370    4.0120 C.3       6 GLP5        0.0000 
     35 CA        -12.0020   29.4400   -1.4145 C.3       3 GLC5        0.0000 
     36 CA        -11.9770   29.6430   -3.2690 C.3       6 GLP5        0.0000 
     37 CA         -6.0495   32.5320   -0.4030 C.3       3 GLC5        0.0000 
     38 CA         -5.9130   30.6440   -1.4450 C.3       9 GLL5        0.0000 
     39 CA         -6.1860   34.4200    0.6390 C.3       6 GLP5        0.0000 
     40 CA         -6.1260   30.5540   -3.5750 C.3       3 GLC5        0.0000 
     41 CA         -6.3390   30.4640   -5.7050 C.3       6 GLP5        0.0000 
     42 CA         -3.7145   29.1145   -3.3000 C.3       3 GLC5        0.0000 
     43 CA         -4.6220   30.1090   -1.5090 C.3       9 GLL5        0.0000 
     44 CA         -2.8070   28.1200   -5.0910 C.3       6 GLP5        0.0000 
     45 CA         -4.2565   28.4780    1.3685 C.3       3 GLC5        0.0000 
     46 CA         -4.2530   29.0880   -0.6430 C.3       9 GLL5        0.0000 
     47 CA         -4.2600   27.8680    3.3800 C.3       6 GLP5        0.0000 
     48 CA         -7.1425   28.0290    1.8100 C.3       3 GLC5        0.0000 
     49 CA         -6.3900   29.0660    0.3020 C.3       9 GLL5        0.0000 
     50 CA         -7.8950   26.9920    3.3180 C.3       6 GLP5        0.0000 
     51 CA         -5.3250   28.4670    1.8410 C.3       3 GLC5        0.0000 
     52 CA        -16.6360   31.4800    2.1175 C.3       3 GLC5        0.0000 
     53 CA        -16.7180   30.0710    0.8830 C.3       9 GLL5        0.0000 
     54 CA        -16.1430   33.2480    2.8130 C.3       6 GLP5        0.0000 
     55 CA        -16.5487   29.1820   -0.9563 C.3       3 GLC5        0.0000 
     56 CA        -15.8140   28.7720   -2.5950 C.3       6 GLP5        0.0000 
     57 CA        -10.0947   32.3360    1.0865 C.3       3 GLC5        0.0000 
     58 CA         -9.7510   32.7780    2.6890 C.3       6 GLP5        0.0000 
     59 CA        -11.2078   30.7685   -1.8925 C.3       3 GLC5        0.0000 
     60 CA         -8.3963   33.3507   -2.0550 C.3       3 GLC5        0.0000 
     61 CA         -7.5250   34.5640   -3.3610 C.3       6 GLP5        0.0000 
     62 CA         -9.0910   32.0240    1.0368 C.3       3 GLC5        0.0000 
     63 CA         -8.6120   31.9350   -0.7760 C.3       9 GLL5        0.0000 
     64 CA         -9.1175   30.5475   -2.5042 C.3       3 GLC5        0.0000 
     65 CA         -9.8040   29.8250   -4.3930 C.3       6 GLP5        0.0000 
     66 CA         -7.4724   32.8956    0.0185 C.3       3 GLC5        0.0000 
     67 CA         -8.2500   30.6050   -0.4550 C.3       9 GLL5        0.0000 
     68 CA         -9.4865   29.5143    1.9610 C.3       3 GLC5        0.0000 
     69 CA         -9.2610   29.7020   -0.1030 C.3       9 GLL5        0.0000 
     70 CA         -9.0500   29.1140    3.9780 C.3       6 GLP5        0.0000 
     71 CA         -9.8370   31.3463    1.3165 C.3       3 GLC5        0.0000 
     72 CA        -10.9500   29.7787   -1.6625 C.3       3 GLC5        0.0000 
     73 CA        -10.5850   30.1270   -0.0090 C.3       9 GLL5        0.0000 
@<TRIPOS>BOND
@<TRIPOS>SUBSTRUCTURE
     1 ALC1       18 GROUP        1 X    ALC  0     ROOT ALC X 1
     2 SEC2       21 GROUP        1 X    SEC  0     **** SEC X 2
     3 GLC5        1 GROUP        1 X    GLC  0     **** GLC X 6
     4 ALP1       20 GROUP        1 Y    ALP  0     ROOT ALP Y 8
     5 SEP2       23 GROUP        1 Y    SEP  0     **** SEP Y 9
     6 GLP5        3 GROUP        1 Y    GLP  0     **** GLP Y 13
     7 ALL1       19 GROUP        1 Z    ALL  0     ROOT ALL Z 15
     8 SEL2       22 GROUP        1 Z    SEL  0     **** SEL Z 16
     9 GLL5        2 GROUP        1 Z    GLL  0     **** GLL Z 20
@<TRIPOS>SET

