#    Name: 4mf0_29Z_2_ligand
#    Modification time : Tue Mar 25 12:10:07 2014

@<TRIPOS>MOLECULE
4mf0_29Z_2_ligand
   56    60     1     0     0
SMALL
NO_CHARGES


@<TRIPOS>ATOM
      1 C1        -21.4910   34.8600    6.1230 C.3       1 29Z701      0.0000 
      2 N2        -20.5740   34.0700    5.2900 N.4       1 29Z701      0.0000 
      3 C3        -19.1850   34.4840    5.5480 C.3       1 29Z701      0.0000 
      4 C4        -20.8190   32.6230    5.4810 C.3       1 29Z701      0.0000 
      5 C5        -19.9940   31.7710    4.5420 C.ar      1 29Z701      0.0000 
      6 C6        -19.1750   30.7720    5.0680 C.ar      1 29Z701      0.0000 
      7 C7        -18.3940   29.9930    4.2180 C.ar      1 29Z701      0.0000 
      8 C8        -18.4300   30.2090    2.8390 C.ar      1 29Z701      0.0000 
      9 C9        -19.2390   31.2260    2.3190 C.ar      1 29Z701      0.0000 
     10 C10       -20.0230   31.9990    3.1670 C.ar      1 29Z701      0.0000 
     11 C11       -17.5400   29.3530    1.9610 C.3       1 29Z701      0.0000 
     12 C12       -17.8490   29.1130    0.4820 C.3       1 29Z701      0.0000 
     13 C13       -16.7180   30.0710    0.8830 C.3       1 29Z701      0.0000 
     14 C14       -15.2560   29.7110    0.6990 C.2       1 29Z701      0.0000 
     15 O15       -14.8920   28.5530    0.7650 O.2       1 29Z701      0.0000 
     16 N16       -14.3970   30.7310    0.4350 N.am      1 29Z701      0.0000 
     17 C17       -13.0220   30.6650    0.2190 C.2       1 29Z701      0.0000 
     18 N18       -12.2850   31.6600   -0.1690 N.2       1 29Z701      0.0000 
     19 C19       -10.9540   31.4480   -0.3100 C.ar      1 29Z701      0.0000 
     20 C20        -9.9230   32.3400   -0.7220 C.ar      1 29Z701      0.0000 
     21 C21        -8.6120   31.9350   -0.7760 C.ar      1 29Z701      0.0000 
     22 C22        -8.2500   30.6050   -0.4550 C.ar      1 29Z701      0.0000 
     23 C23        -9.2610   29.7020   -0.1030 C.ar      1 29Z701      0.0000 
     24 C24       -10.5850   30.1270   -0.0090 C.ar      1 29Z701      0.0000 
     25 S25       -12.0270   29.2370    0.4400 S.3       1 29Z701      0.0000 
     26 C26        -6.8380   30.1110   -0.5280 C.ar      1 29Z701      0.0000 
     27 C27        -5.9130   30.6440   -1.4450 C.ar      1 29Z701      0.0000 
     28 C28        -4.6220   30.1090   -1.5090 C.ar      1 29Z701      0.0000 
     29 C29        -4.2530   29.0880   -0.6430 C.ar      1 29Z701      0.0000 
     30 N30        -5.1450   28.6000    0.2090 N.ar      1 29Z701      0.0000 
     31 C31        -6.3900   29.0660    0.3020 C.ar      1 29Z701      0.0000 
     32 H         -20.8094   34.3155    4.2274 H         1 29Z701      0.0000 
     33 H         -21.8854   32.3967    5.3182 H         1 29Z701      0.0000 
     34 H         -20.5834   32.3347    6.5185 H         1 29Z701      0.0000 
     35 H         -19.1486   30.6117    6.0822 H         1 29Z701      0.0000 
     36 H         -17.7894   29.2573    4.6048 H         1 29Z701      0.0000 
     37 H         -19.2502   31.3984    1.3051 H         1 29Z701      0.0000 
     38 H         -20.6241   32.7384    2.7828 H         1 29Z701      0.0000 
     39 H         -16.9817   28.6043    2.2449 H         1 29Z701      0.0000 
     40 H         -18.5989   29.6416    0.2590 H         1 29Z701      0.0000 
     41 H         -17.4492   28.2933    0.2376 H         1 29Z701      0.0000 
     42 H         -17.1128   30.9714    0.8286 H         1 29Z701      0.0000 
     43 H         -14.8263   31.7326    0.3831 H         1 29Z701      0.0000 
     44 H         -10.1890   33.3053   -0.9806 H         1 29Z701      0.0000 
     45 H          -7.8672   32.5954   -1.0522 H         1 29Z701      0.0000 
     46 H          -9.0218   28.7194    0.0868 H         1 29Z701      0.0000 
     47 H          -6.1853   31.4140   -2.0563 H         1 29Z701      0.0000 
     48 H          -3.9524   30.4733   -2.1960 H         1 29Z701      0.0000 
     49 H          -3.2817   28.7295   -0.6841 H         1 29Z701      0.0000 
     50 H          -7.0680   28.6724    0.9898 H         1 29Z701      0.0000 
     51 H         -21.3072   34.7359    7.0981 H         1 29Z701      0.0000 
     52 H         -21.4156   35.8388    5.9328 H         1 29Z701      0.0000 
     53 H         -22.4455   34.6043    5.9698 H         1 29Z701      0.0000 
     54 H         -18.5336   33.9632    4.9962 H         1 29Z701      0.0000 
     55 H         -19.0404   35.4508    5.3373 H         1 29Z701      0.0000 
     56 H         -18.9297   34.3514    6.5057 H         1 29Z701      0.0000 
@<TRIPOS>BOND
     1    2    1 1    
     2   51    1 1    
     3   52    1 1    
     4   53    1 1    
     5    3    2 1    
     6    4    2 1    
     7   32    2 1    
     8   54    3 1    
     9   55    3 1    
    10   56    3 1    
    11    5    4 1    
    12   33    4 1    
    13   34    4 1    
    14    6    5 ar   
    15   10    5 ar   
    16    7    6 ar   
    17   35    6 1    
    18    8    7 ar   
    19   36    7 1    
    20    9    8 ar   
    21   11    8 1    
    22   10    9 ar   
    23   37    9 1    
    24   38   10 1    
    25   12   11 1    
    26   13   11 1    
    27   39   11 1    
    28   13   12 1    
    29   40   12 1    
    30   41   12 1    
    31   14   13 1    
    32   42   13 1    
    33   15   14 2    
    34   16   14 am   
    35   17   16 1    
    36   43   16 1    
    37   18   17 2    
    38   25   17 1    
    39   19   18 1    
    40   20   19 ar   
    41   24   19 ar   
    42   21   20 ar   
    43   44   20 1    
    44   22   21 ar   
    45   45   21 1    
    46   23   22 ar   
    47   26   22 1    
    48   24   23 ar   
    49   46   23 1    
    50   25   24 1    
    51   27   26 ar   
    52   31   26 ar   
    53   28   27 ar   
    54   47   27 1    
    55   29   28 ar   
    56   48   28 1    
    57   30   29 ar   
    58   49   29 1    
    59   31   30 ar   
    60   50   31 1    
@<TRIPOS>SUBSTRUCTURE
     1 29Z701      1 GROUP   
@<TRIPOS>SET

