#    Name: 3noa_5BC_1_INTS_M
#    Modification time : Tue Mar 25 01:54:22 2014

@<TRIPOS>MOLECULE
3noa_5BC_1_INTS_M
  110     0     6     0     0
SMALL
NO_CHARGES


@<TRIPOS>ATOM
      1 CA         -6.9455    4.1595   48.3215 C.3       2 GLC5        0.0000 
      2 CA         -6.1920    5.9070   47.2360 C.3       6 GLL5        0.0000 
      3 CA         -7.6990    2.4120   49.4070 C.3       4 GLP5        0.0000 
      4 CA         -7.0160    2.5410   42.7190 C.3       2 GLC5        0.0000 
      5 CA         -6.6030    4.5530   42.3810 C.3       6 GLL5        0.0000 
      6 CA         -7.4290    0.5290   43.0570 C.3       4 GLP5        0.0000 
      7 CA         -9.1285    5.9780   41.1420 C.3       2 GLC5        0.0000 
      8 CA         -7.6660    5.3630   42.7370 C.3       6 GLL5        0.0000 
      9 CA        -10.5910    6.5930   39.5470 C.3       4 GLP5        0.0000 
     10 CA         -9.1305    4.2590   43.9815 C.3       2 GLC5        0.0000 
     11 CA        -10.5950    3.1550   45.2260 C.3       4 GLP5        0.0000 
     12 CA         -9.2675    6.6140   45.1890 C.3       2 GLC5        0.0000 
     13 CA         -7.6740    6.0270   43.9620 C.3       6 GLL5        0.0000 
     14 CA        -10.8610    7.2010   46.4160 C.3       4 GLP5        0.0000 
     15 CA         -8.0890    5.5410   38.7335 C.3       2 GLC5        0.0000 
     16 CA         -7.9330    3.6260   38.9180 C.3       6 GLL5        0.0000 
     17 CA         -8.2450    7.4560   38.5490 C.3       4 GLP5        0.0000 
     18 CA         -6.1760    4.2665   38.1245 C.3       2 GLC5        0.0000 
     19 CA         -4.4190    4.9070   37.3310 C.3       4 GLP5        0.0000 
     20 CA        -10.7040    0.8545   40.9335 C.3       2 GLC5        0.0000 
     21 CA        -10.2060    2.6630   40.2510 C.3       6 GLL5        0.0000 
     22 CA        -11.2020   -0.9540   41.6160 C.3       4 GLP5        0.0000 
     23 CA        -14.2015    4.8180   34.4945 C.3       2 GLC5        0.0000 
     24 CA        -12.6100    5.4170   35.7640 C.3       6 GLL5        0.0000 
     25 CA        -15.7930    4.2190   33.2250 C.3       4 GLP5        0.0000 
     26 CA         -8.7965    6.8370   33.7100 C.3       2 GLC5        0.0000 
     27 CA        -10.8920    6.4170   34.3480 C.3       6 GLL5        0.0000 
     28 CA         -6.7010    7.2570   33.0720 C.3       4 GLP5        0.0000 
     29 CA        -14.9250    7.3770   36.7420 C.3       2 GLC5        0.0000 
     30 CA        -12.9390    6.6800   36.2370 C.3       6 GLL5        0.0000 
     31 CA        -16.9110    8.0740   37.2470 C.3       4 GLP5        0.0000 
     32 CA        -13.9365    6.0525   38.0650 C.3       2 GLC5        0.0000 
     33 CA        -14.9340    5.4250   39.8930 C.3       4 GLP5        0.0000 
     34 N         -12.5510    9.4610   32.1855 N.am      1 SEC2        0.0000 
     35 N         -11.2940    9.8280   31.8790 N.am      5 SEL2        0.0000 
     36 N         -13.8080    9.0940   32.4920 N.am      3 SEP2        0.0000 
     37 N         -11.6290    9.9285   30.6800 N.am      1 SEC2        0.0000 
     38 N         -11.9640   10.0290   29.4810 N.am      3 SEP2        0.0000 
     39 N          -7.8675    9.0745   32.3195 N.am      1 SEC2        0.0000 
     40 N          -9.1230    9.4860   31.4910 N.am      5 SEL2        0.0000 
     41 N          -6.6120    8.6630   33.1480 N.am      3 SEP2        0.0000 
     42 N          -9.2835    8.9590   30.2315 N.am      1 SEC2        0.0000 
     43 N          -9.4440    8.4320   28.9720 N.am      3 SEP2        0.0000 
     44 CA         -8.3075    9.8840   35.0780 C.3       2 GLC5        0.0000 
     45 CA         -9.7690    9.4960   33.7630 C.3       6 GLL5        0.0000 
     46 CA         -6.8460   10.2720   36.3930 C.3       4 GLP5        0.0000 
     47 CA         -8.2350    8.3765   33.4175 C.3       2 GLC5        0.0000 
     48 CA         -8.2145   10.7505   33.1040 C.3       2 GLC5        0.0000 
     49 CA         -6.6600   12.0050   32.4450 C.3       4 GLP5        0.0000 
     50 CA        -14.2060    2.4635   35.0675 C.3       2 GLC5        0.0000 
     51 CA        -12.8990    3.1200   36.3870 C.3       6 GLL5        0.0000 
     52 CA        -15.5130    1.8070   33.7480 C.3       4 GLP5        0.0000 
     53 CA        -14.7415    1.6190   36.1735 C.3       2 GLC5        0.0000 
     54 CA        -13.6060    2.5390   37.6170 C.3       6 GLL5        0.0000 
     55 CA        -15.8770    0.6990   34.7300 C.3       4 GLP5        0.0000 
     56 CA        -11.8675    0.5670   40.1245 C.3       2 GLC5        0.0000 
     57 CA        -12.5330    2.0880   38.6330 C.3       6 GLL5        0.0000 
     58 CA        -13.2115    1.8460   40.7555 C.3       2 GLC5        0.0000 
     59 CA        -13.8900    1.6040   42.8780 C.3       4 GLP5        0.0000 
     60 CA        -10.3345    2.0430   35.7875 C.3       2 GLC5        0.0000 
     61 CA         -9.1600    3.5090   36.6500 C.3       6 GLL5        0.0000 
     62 CA        -11.5090    0.5770   34.9250 C.3       4 GLP5        0.0000 
     63 CA         -8.0625    5.6930   37.2605 C.3       2 GLC5        0.0000 
     64 CA         -7.8800    3.9300   35.9720 C.3       6 GLL5        0.0000 
     65 CA         -7.2940    5.3870   33.7850 C.3       2 GLC5        0.0000 
     66 CA         -7.8870    3.5170   34.4980 C.3       6 GLL5        0.0000 
     67 CA         -8.2150    3.1770   32.8005 C.3       2 GLC5        0.0000 
     68 CA         -8.5430    2.8370   31.1030 C.3       4 GLP5        0.0000 
     69 CA         -7.8723    4.8535   46.5517 C.3       2 GLC5        0.0000 
     70 CA         -6.6130    6.5570   46.0670 C.3       6 GLL5        0.0000 
     71 CA         -9.3420    3.4750   46.4520 C.3       4 GLP5        0.0000 
     72 CA         -8.0222    7.1000   48.7965 C.3       2 GLC5        0.0000 
     73 CA         -6.6330    7.9660   48.4870 C.3       6 GLL5        0.0000 
     74 CA         -9.2100    5.9140   49.6910 C.3       4 GLP5        0.0000 
     75 CA         -7.1947   10.2800   47.7710 C.3       2 GLC5        0.0000 
     76 CA         -7.5550   12.2740   47.6400 C.3       4 GLP5        0.0000 
     77 CA         -8.8935    7.5580   46.5598 C.3       2 GLC5        0.0000 
     78 CA         -7.0360    8.6060   47.3170 C.3       6 GLL5        0.0000 
     79 CA         -5.4895    7.5972   49.7627 C.3       2 GLC5        0.0000 
     80 CA         -4.5580    7.9000   51.0610 C.3       4 GLP5        0.0000 
     81 CA         -7.7053    6.0895   48.7650 C.3       2 GLC5        0.0000 
     82 CA         -6.2090    6.6230   48.4420 C.3       6 GLL5        0.0000 
     83 CA         -6.6463    6.8465   42.0340 C.3       2 GLC5        0.0000 
     84 CA         -6.1580    8.7350   41.5090 C.3       4 GLP5        0.0000 
     85 CA         -6.6485    7.3442   42.9548 C.3       2 GLC5        0.0000 
     86 CA         -8.2405    4.7142   45.4262 C.3       2 GLC5        0.0000 
     87 CA         -5.8740    3.0895   44.7687 C.3       2 GLC5        0.0000 
     88 CA         -5.5160    5.0690   44.4840 C.3       6 GLL5        0.0000 
     89 CA         -6.2340    1.4420   45.6690 C.3       4 GLP5        0.0000 
     90 CA         -4.2110    5.9669   43.7806 C.3       2 GLC5        0.0000 
     91 CA         -5.5120    4.4050   43.2530 C.3       6 GLL5        0.0000 
     92 CA         -2.6360    6.9940   43.6040 C.3       4 GLP5        0.0000 
     93 CA         -9.6150    1.2423   37.3183 C.3       2 GLC5        0.0000 
     94 CA        -10.2050    2.8460   38.8610 C.3       6 GLL5        0.0000 
     95 CA         -9.5820   -0.5980   36.1120 C.3       4 GLP5        0.0000 
     96 CA         -9.9685    4.7694   39.9982 C.3       2 GLC5        0.0000 
     97 CA         -8.3875    1.7374   41.7532 C.3       2 GLC5        0.0000 
     98 CA        -11.2627    6.8223   37.1878 C.3       2 GLC5        0.0000 
     99 CA         -9.7510    7.5960   38.3750 C.3       4 GLP5        0.0000 
    100 CA        -10.5361    7.3399   36.6000 C.3       2 GLC5        0.0000 
    101 CA        -12.2640    7.8020   35.7720 C.3       6 GLL5        0.0000 
    102 CA        -10.8633    8.5175   37.0660 C.3       2 GLC5        0.0000 
    103 CA        -12.4140    9.0800   36.1030 C.3       6 GLL5        0.0000 
    104 CA        -13.4612    0.3938   37.7885 C.3       2 GLC5        0.0000 
    105 CA        -13.8530   -1.5260   37.4520 C.3       4 GLP5        0.0000 
    106 CA        -14.0017    3.8693   39.0090 C.3       2 GLC5        0.0000 
    107 CA        -12.2009    1.5179   36.3712 C.3       2 GLC5        0.0000 
    108 CA         -9.9975    4.9444   38.5671 C.3       2 GLC5        0.0000 
    109 CA         -6.1887    3.6233   35.9695 C.3       2 GLC5        0.0000 
    110 CA         -4.4940    3.5230   36.7040 C.3       4 GLP5        0.0000 
@<TRIPOS>BOND
@<TRIPOS>SUBSTRUCTURE
     1 SEC2       34 GROUP        1 X    SEC  0     ROOT SEC X 2
     2 GLC5        1 GROUP        1 X    GLC  0     **** GLC X 6
     3 SEP2       36 GROUP        1 Y    SEP  0     ROOT SEP Y 9
     4 GLP5        3 GROUP        1 Y    GLP  0     **** GLP Y 13
     5 SEL2       35 GROUP        1 Z    SEL  0     ROOT SEL Z 16
     6 GLL5        2 GROUP        1 Z    GLL  0     **** GLL Z 20
@<TRIPOS>SET

