#    Name: 3noa_5BC_1_ligand
#    Modification time : Tue Mar 25 01:54:22 2014

@<TRIPOS>MOLECULE
3noa_5BC_1_ligand
   73    77     1     0     0
SMALL
NO_CHARGES


@<TRIPOS>ATOM
      1 C1         -6.6130    6.5570   46.0670 C.ar      1 5BC1        0.0000 
      2 C2         -7.0190    7.8910   46.1130 C.ar      1 5BC1        0.0000 
      3 C3         -7.0360    8.6060   47.3170 C.ar      1 5BC1        0.0000 
      4 C4         -6.6330    7.9660   48.4870 C.ar      1 5BC1        0.0000 
      5 C5         -6.2090    6.6230   48.4420 C.ar      1 5BC1        0.0000 
      6 C6         -6.1920    5.9070   47.2360 C.ar      1 5BC1        0.0000 
      7 C7         -6.6030    4.5530   42.3810 C.ar      1 5BC1        0.0000 
      8 C8         -7.6660    5.3630   42.7370 C.ar      1 5BC1        0.0000 
      9 C9         -7.6740    6.0270   43.9620 C.ar      1 5BC1        0.0000 
     10 C10        -6.6040    5.8800   44.8390 C.ar      1 5BC1        0.0000 
     11 C11        -5.5160    5.0690   44.4840 C.ar      1 5BC1        0.0000 
     12 C12        -5.5120    4.4050   43.2530 C.ar      1 5BC1        0.0000 
     13 C13        -7.9200    3.4660   40.3070 C.ar      1 5BC1        0.0000 
     14 C14       -10.2050    2.8460   38.8610 C.ar      1 5BC1        0.0000 
     15 C15        -9.0910    3.3190   38.1880 C.ar      1 5BC1        0.0000 
     16 C16        -7.9330    3.6260   38.9180 C.ar      1 5BC1        0.0000 
     17 C17        -9.0520    2.9910   40.9890 C.ar      1 5BC1        0.0000 
     18 C18       -10.2060    2.6630   40.2510 C.ar      1 5BC1        0.0000 
     19 C19       -12.6100    5.4170   35.7640 C.ar      1 5BC1        0.0000 
     20 C20       -12.2640    7.8020   35.7720 C.ar      1 5BC1        0.0000 
     21 C21       -11.2370    7.6990   34.8320 C.ar      1 5BC1        0.0000 
     22 C22       -10.8920    6.4170   34.3480 C.ar      1 5BC1        0.0000 
     23 C23       -11.5930    5.2910   34.8130 C.ar      1 5BC1        0.0000 
     24 C24       -12.9390    6.6800   36.2370 C.ar      1 5BC1        0.0000 
     25 C25       -11.5370    9.7980   35.4110 C.2       1 5BC1        0.0000 
     26 N26       -10.8330    8.9670   34.6280 N.pl3     1 5BC1        0.0000 
     27 C27       -12.4140    9.0800   36.1030 C.2       1 5BC1        0.0000 
     28 C28       -10.1040    9.6170   32.2470 C.2       1 5BC1        0.0000 
     29 O29       -11.2940    9.8280   31.8790 O.co2     1 5BC1        0.0000 
     30 O30        -9.1230    9.4860   31.4910 O.co2     1 5BC1        0.0000 
     31 C31        -9.7690    9.4960   33.7630 C.3       1 5BC1        0.0000 
     32 O32       -13.3810    4.4100   36.2920 O.3       1 5BC1        0.0000 
     33 C33       -12.8990    3.1200   36.3870 C.3       1 5BC1        0.0000 
     34 C34       -13.6060    2.5390   37.6170 C.3       1 5BC1        0.0000 
     35 C35       -12.5330    2.0880   38.6330 C.3       1 5BC1        0.0000 
     36 O36       -11.2710    2.5860   38.0700 O.3       1 5BC1        0.0000 
     37 C37        -6.6090    3.8400   41.0240 C.2       1 5BC1        0.0000 
     38 O38        -5.5430    3.6300   40.4620 O.2       1 5BC1        0.0000 
     39 C39        -9.1600    3.5090   36.6500 C.3       1 5BC1        0.0000 
     40 C40        -7.8800    3.9300   35.9720 C.3       1 5BC1        0.0000 
     41 C41        -7.8870    3.5170   34.4980 C.3       1 5BC1        0.0000 
     42 H          -7.3141    8.3639   45.2406 H         1 5BC1        0.0000 
     43 H          -7.3388    9.5786   47.3336 H         1 5BC1        0.0000 
     44 H          -6.6423    8.4644   49.3814 H         1 5BC1        0.0000 
     45 H          -5.9062    6.1606   49.3130 H         1 5BC1        0.0000 
     46 H          -5.8826    4.9423   47.2103 H         1 5BC1        0.0000 
     47 H          -8.4645    5.4799   42.0912 H         1 5BC1        0.0000 
     48 H          -8.4700    6.6246   44.2166 H         1 5BC1        0.0000 
     49 H          -4.7254    4.9642   45.1274 H         1 5BC1        0.0000 
     50 H          -4.7211    3.8150   42.9872 H         1 5BC1        0.0000 
     51 H          -7.0981    3.9672   38.4315 H         1 5BC1        0.0000 
     52 H          -9.0407    2.8849   41.9993 H         1 5BC1        0.0000 
     53 H         -11.0299    2.2974   40.7243 H         1 5BC1        0.0000 
     54 H         -10.1413    6.3134   33.6680 H         1 5BC1        0.0000 
     55 H         -11.3507    4.3580   34.4446 H         1 5BC1        0.0000 
     56 H         -13.6885    6.7867   36.9374 H         1 5BC1        0.0000 
     57 H         -11.4193   10.7611   35.4582 H         1 5BC1        0.0000 
     58 H         -13.0578    9.4303   36.7442 H         1 5BC1        0.0000 
     59 H          -8.8508    8.8650   33.8449 H         1 5BC1        0.0000 
     60 H          -9.4537   10.5102   34.1095 H         1 5BC1        0.0000 
     61 H         -11.8355    3.0681   36.5730 H         1 5BC1        0.0000 
     62 H         -13.1593    2.4976   35.5425 H         1 5BC1        0.0000 
     63 H         -14.1965    1.6871   37.3258 H         1 5BC1        0.0000 
     64 H         -14.2246    3.2953   38.0693 H         1 5BC1        0.0000 
     65 H         -12.5451    1.0222   38.6858 H         1 5BC1        0.0000 
     66 H         -12.7481    2.5416   39.5747 H         1 5BC1        0.0000 
     67 H          -9.9558    4.2558   36.4353 H         1 5BC1        0.0000 
     68 H          -9.5179    2.5543   36.2055 H         1 5BC1        0.0000 
     69 H          -7.0291    3.4607   36.4660 H         1 5BC1        0.0000 
     70 H          -7.7679    5.0125   36.0347 H         1 5BC1        0.0000 
     71 H          -7.0451    3.7891   34.0321 H         1 5BC1        0.0000 
     72 H          -7.9747    2.5267   34.3902 H         1 5BC1        0.0000 
     73 H          -8.6463    3.9346   33.9989 H         1 5BC1        0.0000 
@<TRIPOS>BOND
     1    2    1 ar   
     2    6    1 ar   
     3   10    1 1    
     4    3    2 ar   
     5   42    2 1    
     6    4    3 ar   
     7   43    3 1    
     8    5    4 ar   
     9   44    4 1    
    10    6    5 ar   
    11   45    5 1    
    12   46    6 1    
    13    8    7 ar   
    14   12    7 ar   
    15   37    7 1    
    16    9    8 ar   
    17   47    8 1    
    18   10    9 ar   
    19   48    9 1    
    20   11   10 ar   
    21   12   11 ar   
    22   49   11 1    
    23   50   12 1    
    24   16   13 ar   
    25   17   13 ar   
    26   37   13 1    
    27   15   14 ar   
    28   18   14 ar   
    29   36   14 1    
    30   16   15 ar   
    31   39   15 1    
    32   51   16 1    
    33   18   17 ar   
    34   52   17 1    
    35   53   18 1    
    36   23   19 ar   
    37   24   19 ar   
    38   32   19 1    
    39   21   20 ar   
    40   24   20 ar   
    41   27   20 1    
    42   22   21 ar   
    43   26   21 1    
    44   23   22 ar   
    45   54   22 1    
    46   55   23 1    
    47   56   24 1    
    48   26   25 1    
    49   27   25 2    
    50   57   25 1    
    51   31   26 1    
    52   58   27 1    
    53   29   28 ar   
    54   30   28 ar   
    55   31   28 1    
    56   59   31 1    
    57   60   31 1    
    58   33   32 1    
    59   34   33 1    
    60   61   33 1    
    61   62   33 1    
    62   35   34 1    
    63   63   34 1    
    64   64   34 1    
    65   36   35 1    
    66   65   35 1    
    67   66   35 1    
    68   38   37 2    
    69   40   39 1    
    70   67   39 1    
    71   68   39 1    
    72   41   40 1    
    73   69   40 1    
    74   70   40 1    
    75   71   41 1    
    76   72   41 1    
    77   73   41 1    
@<TRIPOS>SUBSTRUCTURE
     1 5BC1        1 GROUP   
@<TRIPOS>SET

