#    Name: 3oad_LPO_2_INTS_M
#    Modification time : Tue Mar 25 03:34:39 2014

@<TRIPOS>MOLECULE
3oad_LPO_2_INTS_M
  117     0     9     0     0
SMALL
NO_CHARGES


@<TRIPOS>ATOM
      1 CA         42.1365   19.7015  -13.1045 C.3       3 GLC5        0.0000 
      2 CA         40.3150   19.6080  -12.1050 C.3       9 GLL5        0.0000 
      3 CA         43.9580   19.7950  -14.1040 C.3       6 GLP5        0.0000 
      4 CA         39.7015   20.5030  -14.8560 C.3       3 GLC5        0.0000 
      5 CA         39.1530   20.0630  -12.9530 C.3       9 GLL5        0.0000 
      6 CA         40.2500   20.9430  -16.7590 C.3       6 GLP5        0.0000 
      7 OD1        39.1935   18.3750  -14.8190 O.co2     2 ASC3        0.0000 
      8 OD1        38.5230   18.9300  -13.6040 O.co2     8 ASL3        0.0000 
      9 OD1        39.8640   17.8200  -16.0340 O.co2     5 ASP3        0.0000 
     10 OD1        39.9850   18.5490  -14.0765 O.co2     2 ASC3        0.0000 
     11 OD1        41.4470   18.1680  -14.5490 O.co2     5 ASP3        0.0000 
     12 OD1        38.0230   18.7795  -15.1615 O.co2     2 ASC3        0.0000 
     13 OD1        37.5230   18.6290  -16.7190 O.co2     5 ASP3        0.0000 
     14 OD1        37.5795   19.5635  -14.5190 O.co2     2 ASC3        0.0000 
     15 OD1        36.6360   20.1970  -15.4340 O.co2     5 ASP3        0.0000 
     16 CA         37.9525   16.6200  -14.3600 C.3       3 GLC5        0.0000 
     17 CA         37.9740   17.8530  -12.7790 C.3       9 GLL5        0.0000 
     18 CA         37.9310   15.3870  -15.9410 C.3       6 GLP5        0.0000 
     19 CA         36.2085   17.0235  -13.6995 C.3       3 GLC5        0.0000 
     20 CA         34.4430   16.1940  -14.6200 C.3       6 GLP5        0.0000 
     21 CA         43.0880   18.8045  -12.4935 C.3       3 GLC5        0.0000 
     22 CA         42.2180   17.8140  -10.8830 C.3       9 GLL5        0.0000 
     23 CA         46.4980   16.4330   -9.3775 C.3       3 GLC5        0.0000 
     24 CA         45.0790   16.0360   -8.4020 C.3       9 GLL5        0.0000 
     25 CA         47.9170   16.8300  -10.3530 C.3       6 GLP5        0.0000 
     26 CA         44.8395   17.8235   -7.8445 C.3       3 GLC5        0.0000 
     27 CA         44.6000   19.6110   -7.2870 C.3       6 GLP5        0.0000 
     28 CA         47.1670   14.7230   -8.5990 C.3       3 GLC5        0.0000 
     29 CA         45.4210   14.8740   -7.5230 C.3       9 GLL5        0.0000 
     30 CA         48.9130   14.5720   -9.6750 C.3       6 GLP5        0.0000 
     31 CA         45.1940   14.0060   -5.7370 C.3       3 GLC5        0.0000 
     32 CA         44.9670   13.1380   -3.9510 C.3       6 GLP5        0.0000 
     33 CA         43.4685   14.8080   -6.6125 C.3       3 GLC5        0.0000 
     34 CA         41.5160   14.7420   -5.7020 C.3       6 GLP5        0.0000 
     35 CA         47.0140    9.3820   -6.2100 C.3       3 GLC5        0.0000 
     36 CA         45.2560   10.5190   -6.6310 C.3       9 GLL5        0.0000 
     37 CA         48.7720    8.2450   -5.7890 C.3       6 GLP5        0.0000 
     38 CA         41.4205    9.6245   -7.2295 C.3       3 GLC5        0.0000 
     39 CA         43.0070   11.0480   -7.3020 C.3       9 GLL5        0.0000 
     40 CA         39.8340    8.2010   -7.1570 C.3       6 GLP5        0.0000 
     41 CA         44.8215   11.1105   -9.2325 C.3       3 GLC5        0.0000 
     42 CA         43.4690   12.2440   -7.8760 C.3       9 GLL5        0.0000 
     43 CA         46.1740    9.9770  -10.5890 C.3       6 GLP5        0.0000 
     44 CA         41.9620   14.0865   -7.1990 C.3       3 GLC5        0.0000 
     45 CA         42.4080   13.4310   -8.6960 C.3       9 GLL5        0.0000 
     46 CA         41.8395   11.7965   -9.5190 C.3       3 GLC5        0.0000 
     47 CA         41.2710   10.1620  -10.3420 C.3       6 GLP5        0.0000 
     48 CA         48.1410   13.3810   -8.4150 C.3       3 GLC5        0.0000 
     49 CA         47.3690   12.1900   -7.1550 C.3       9 GLL5        0.0000 
     50 CA         48.9425   11.3575   -8.0950 C.3       3 GLC5        0.0000 
     51 CA         50.5160   10.5250   -9.0350 C.3       6 GLP5        0.0000 
     52 CA         48.3570   10.4020   -7.1325 C.3       3 GLC5        0.0000 
     53 CA         49.3450    8.6140   -7.1100 C.3       6 GLP5        0.0000 
     54 CA         48.5050   13.2405   -6.3955 C.3       3 GLC5        0.0000 
     55 CA         49.6410   14.2910   -5.6360 C.3       6 GLP5        0.0000 
     56 CA         46.1680   12.6640   -5.5530 C.3       3 GLC5        0.0000 
     57 CA         46.7715   11.0835   -8.8720 C.3       3 GLC5        0.0000 
     58 CA         43.9490    7.1775   -5.5180 C.3       3 GLC5        0.0000 
     59 CA         43.5070    8.8910   -6.0450 C.3       9 GLL5        0.0000 
     60 CA         44.3910    5.4640   -4.9910 C.3       6 GLP5        0.0000 
     61 CA         41.6705    8.5460   -6.6010 C.3       3 GLC5        0.0000 
     62 CA         44.5115    7.7290   -7.5265 C.3       3 GLC5        0.0000 
     63 CA         45.5160    6.5670   -9.0080 C.3       6 GLP5        0.0000 
     64 CA         39.3120   12.2695   -9.8675 C.3       3 GLC5        0.0000 
     65 CA         38.7530   14.3950   -9.4280 C.3       9 GLL5        0.0000 
     66 CA         39.8710   10.1440  -10.3070 C.3       6 GLP5        0.0000 
     67 CA         40.1970   13.3820  -14.0440 C.3       3 GLC5        0.0000 
     68 CA         40.2110   14.5030  -12.5510 C.3       9 GLL5        0.0000 
     69 CA         40.1830   12.2610  -15.5370 C.3       6 GLP5        0.0000 
     70 CA         41.0045   15.4480  -14.3150 C.3       3 GLC5        0.0000 
     71 CA         41.7980   16.3930  -16.0790 C.3       6 GLP5        0.0000 
     72 CA         39.0710   14.9450  -14.2460 C.3       3 GLC5        0.0000 
     73 CA         40.3650   11.9000  -12.7085 C.3       3 GLC5        0.0000 
     74 CA         40.4330   13.4340  -11.5040 C.3       9 GLL5        0.0000 
     75 CA         40.2970   10.3660  -13.9130 C.3       6 GLP5        0.0000 
     76 CA         40.1520   11.7890  -10.9055 C.3       3 GLC5        0.0000 
     77 CA         37.7630   13.4440   -5.6325 C.3       3 GLC5        0.0000 
     78 CA         38.2490   12.5900   -7.1420 C.3       9 GLL5        0.0000 
     79 CA         37.2770   14.2980   -4.1230 C.3       6 GLP5        0.0000 
     80 CA         39.9150   13.0170   -6.1750 C.3       3 GLC5        0.0000 
     81 CA         41.5810   13.4440   -5.2080 C.3       6 GLP5        0.0000 
     82 CA         39.0600   11.3670   -8.7245 C.3       3 GLC5        0.0000 
     83 CA         35.3765   10.0600  -11.8940 C.3       3 GLC5        0.0000 
     84 CA         35.4890   12.1690  -12.5560 C.3       9 GLL5        0.0000 
     85 CA         35.2640    7.9510  -11.2320 C.3       6 GLP5        0.0000 
     86 CA         33.4090   12.5675  -12.7365 C.3       3 GLC5        0.0000 
     87 CA         31.3290   12.9660  -12.9170 C.3       6 GLP5        0.0000 
     88 CA         35.6955    9.7030  -13.6395 C.3       3 GLC5        0.0000 
     89 CA         36.5540   11.5450  -13.4700 C.3       9 GLL5        0.0000 
     90 CA         34.8370    7.8610  -13.8090 C.3       6 GLP5        0.0000 
     91 CA         38.4255   10.9555  -13.6915 C.3       3 GLC5        0.0000 
     92 N          36.0600    9.4235  -15.2415 N.am      1 SEC2        0.0000 
     93 N          35.9960   10.9460  -14.6450 N.am      7 SEL2        0.0000 
     94 N          36.1240    7.9010  -15.8380 N.am      4 SEP2        0.0000 
     95 CA         36.1050   10.1770  -16.9555 C.3       3 GLC5        0.0000 
     96 CA         36.0370   11.8870  -15.7090 C.3       9 GLL5        0.0000 
     97 CA         36.1730    8.4670  -18.2020 C.3       6 GLP5        0.0000 
     98 CA         38.1100   12.0740  -15.6230 C.3       3 GLC5        0.0000 
     99 CA         36.9840   13.6370  -15.8250 C.3       3 GLC5        0.0000 
    100 CA         43.4652   18.4015   -7.8800 C.3       3 GLC5        0.0000 
    101 CA         41.7100   17.2900   -8.1940 C.3       9 GLL5        0.0000 
    102 CA         46.1715   16.3970   -6.3927 C.3       3 GLC5        0.0000 
    103 CA         47.0930   17.3390   -4.8230 C.3       6 GLP5        0.0000 
    104 CA         45.4025   15.1300   -9.8567 C.3       3 GLC5        0.0000 
    105 CA         45.5550   14.8050  -11.7510 C.3       6 GLP5        0.0000 
    106 CA         45.1013   12.6365   -5.7295 C.3       3 GLC5        0.0000 
    107 CA         44.8040   12.5630   -7.8170 C.3       9 GLL5        0.0000 
    108 CA         44.7770   11.7452   -5.3030 C.3       3 GLC5        0.0000 
    109 CA         45.7099   10.6520   -8.8293 C.3       3 GLC5        0.0000 
    110 CA         44.1025   12.3920   -5.7700 C.3       3 GLC5        0.0000 
    111 CA         42.4849   10.7765   -4.9154 C.3       3 GLC5        0.0000 
    112 CA         43.9180   10.1860   -6.6790 C.3       9 GLL5        0.0000 
    113 CA         41.4850   11.7990   -3.3130 C.3       6 GLP5        0.0000 
    114 CA         35.7443    9.7959  -10.5320 C.3       3 GLC5        0.0000 
    115 CA         36.1400   12.2750  -11.2080 C.3       9 GLL5        0.0000 
    116 CA         42.2331   14.3532  -12.6999 C.3       3 GLC5        0.0000 
    117 CA         44.0790   14.6380  -13.7350 C.3       6 GLP5        0.0000 
@<TRIPOS>BOND
@<TRIPOS>SUBSTRUCTURE
     1 SEC2       92 GROUP        1 X    SEC  0     ROOT SEC X 2
     2 ASC3        7 GROUP        1 X    ASC  0     **** ASC X 3
     3 GLC5        1 GROUP        1 X    GLC  0     **** GLC X 6
     4 SEP2       94 GROUP        1 Y    SEP  0     ROOT SEP Y 9
     5 ASP3        9 GROUP        1 Y    ASP  0     **** ASP Y 10
     6 GLP5        3 GROUP        1 Y    GLP  0     **** GLP Y 13
     7 SEL2       93 GROUP        1 Z    SEL  0     ROOT SEL Z 16
     8 ASL3        8 GROUP        1 Z    ASL  0     **** ASL Z 17
     9 GLL5        2 GROUP        1 Z    GLL  0     **** GLL Z 20
@<TRIPOS>SET

