#    Name: 3oad_LPO_2_ligand
#    Modification time : Tue Mar 25 03:34:39 2014

@<TRIPOS>MOLECULE
3oad_LPO_2_ligand
   81    85     1     0     0
SMALL
NO_CHARGES


@<TRIPOS>ATOM
      1 C1         40.3150   19.6080  -12.1050 C.3       1 LPO167      0.0000 
      2 C2         39.1530   20.0630  -12.9530 C.3       1 LPO167      0.0000 
      3 N3         38.5230   18.9300  -13.6040 N.4       1 LPO167      0.0000 
      4 C4         37.9740   17.8530  -12.7790 C.3       1 LPO167      0.0000 
      5 C5         39.0850   17.3460  -11.8480 C.3       1 LPO167      0.0000 
      6 C6         39.8000   18.5370  -11.1400 C.3       1 LPO167      0.0000 
      7 C7         38.5400   16.4040  -10.8010 C.2       1 LPO167      0.0000 
      8 N8         39.1930   15.2790  -10.4860 N.am      1 LPO167      0.0000 
      9 O9         38.8910   19.1910  -10.2300 O.3       1 LPO167      0.0000 
     10 C10        40.9580   18.0390  -10.3420 C.ar      1 LPO167      0.0000 
     11 C11        42.2180   17.8140  -10.8830 C.ar      1 LPO167      0.0000 
     12 N12        43.1880   17.3560  -10.0790 N.ar      1 LPO167      0.0000 
     13 C13        42.9510   17.0940   -8.7520 C.ar      1 LPO167      0.0000 
     14 C14        41.7100   17.2900   -8.1940 C.ar      1 LPO167      0.0000 
     15 C15        40.7150   17.7730   -9.0070 C.ar      1 LPO167      0.0000 
     16 O16        43.9020   16.6230   -7.8960 O.3       1 LPO167      0.0000 
     17 C17        45.0790   16.0360   -8.4020 C.3       1 LPO167      0.0000 
     18 C18        45.4210   14.8740   -7.5230 C.3       1 LPO167      0.0000 
     19 O19        45.2900   13.7360   -8.3540 O.3       1 LPO167      0.0000 
     20 C20        44.8040   12.5630   -7.8170 C.ar      1 LPO167      0.0000 
     21 C21        45.6670   11.7070   -7.1990 C.ar      1 LPO167      0.0000 
     22 C22        45.2560   10.5190   -6.6310 C.ar      1 LPO167      0.0000 
     23 C23        43.9180   10.1860   -6.6790 C.ar      1 LPO167      0.0000 
     24 C24        43.0070   11.0480   -7.3020 C.ar      1 LPO167      0.0000 
     25 C25        43.4690   12.2440   -7.8760 C.ar      1 LPO167      0.0000 
     26 CL26       42.4080   13.4310   -8.6960 Cl        1 LPO167      0.0000 
     27 CL27       47.3690   12.1900   -7.1550 Cl        1 LPO167      0.0000 
     28 C28        43.5070    8.8910   -6.0450 C.3       1 LPO167      0.0000 
     29 O29        37.5040   16.6740  -10.2330 O.2       1 LPO167      0.0000 
     30 C30        38.7530   14.3950   -9.4280 C.3       1 LPO167      0.0000 
     31 C31        40.4720   14.9030  -11.1000 C.3       1 LPO167      0.0000 
     32 C32        37.7140   13.3580   -9.7420 C.ar      1 LPO167      0.0000 
     33 C33        37.0890   13.2650  -10.9820 C.ar      1 LPO167      0.0000 
     34 C34        36.1400   12.2750  -11.2080 C.ar      1 LPO167      0.0000 
     35 C35        35.8340   11.3760  -10.2000 C.ar      1 LPO167      0.0000 
     36 C36        36.4620   11.4560   -8.9600 C.ar      1 LPO167      0.0000 
     37 C37        37.4110   12.4480   -8.7370 C.ar      1 LPO167      0.0000 
     38 C38        40.2110   14.5030  -12.5510 C.3       1 LPO167      0.0000 
     39 C39        40.4330   13.4340  -11.5040 C.3       1 LPO167      0.0000 
     40 CL40       38.2490   12.5900   -7.1420 Cl        1 LPO167      0.0000 
     41 C41        35.4890   12.1690  -12.5560 C.3       1 LPO167      0.0000 
     42 C42        36.5540   11.5450  -13.4700 C.3       1 LPO167      0.0000 
     43 O43        35.9960   10.9460  -14.6450 O.3       1 LPO167      0.0000 
     44 C44        36.0370   11.8870  -15.7090 C.3       1 LPO167      0.0000 
     45 H          40.7055   20.4373  -11.5375 H         1 LPO167      0.0000 
     46 H          41.0836   19.1816  -12.7293 H         1 LPO167      0.0000 
     47 H          39.5239   20.7833  -13.6949 H         1 LPO167      0.0000 
     48 H          38.4370   20.5912  -12.3087 H         1 LPO167      0.0000 
     49 H          37.6375   17.0228  -13.3908 H         1 LPO167      0.0000 
     50 H          37.1523   18.2082  -12.1663 H         1 LPO167      0.0000 
     51 H          39.8269   16.8275  -12.4399 H         1 LPO167      0.0000 
     52 H          42.3796   18.0015  -11.8798 H         1 LPO167      0.0000 
     53 H          41.5361   17.0840   -7.2126 H         1 LPO167      0.0000 
     54 H          39.7670   17.9421   -8.6190 H         1 LPO167      0.0000 
     55 H          45.9202   16.7341   -8.3944 H         1 LPO167      0.0000 
     56 H          44.9469   15.6693   -9.4233 H         1 LPO167      0.0000 
     57 H          44.7299   14.8521   -6.6909 H         1 LPO167      0.0000 
     58 H          46.4325   14.9985   -7.1598 H         1 LPO167      0.0000 
     59 H          45.9321    9.8951   -6.1815 H         1 LPO167      0.0000 
     60 H          42.0151   10.8110   -7.3397 H         1 LPO167      0.0000 
     61 H          38.3708   15.0084   -8.5525 H         1 LPO167      0.0000 
     62 H          39.6486   13.8583   -8.9821 H         1 LPO167      0.0000 
     63 H          41.3035   15.1794  -11.0024 H         1 LPO167      0.0000 
     64 H          37.3295   13.9282  -11.7294 H         1 LPO167      0.0000 
     65 H          35.1315   10.6356  -10.3670 H         1 LPO167      0.0000 
     66 H          36.2267   10.7897   -8.2188 H         1 LPO167      0.0000 
     67 H          41.0206   14.6191  -13.0282 H         1 LPO167      0.0000 
     68 H          39.2792   14.5759  -12.7030 H         1 LPO167      0.0000 
     69 H          39.5870   13.0894  -11.2519 H         1 LPO167      0.0000 
     70 H          41.3284   13.1326  -11.5771 H         1 LPO167      0.0000 
     71 H          35.2347   13.1379  -12.9265 H         1 LPO167      0.0000 
     72 H          34.6418   11.5201  -12.5129 H         1 LPO167      0.0000 
     73 H          37.1142   10.8047  -12.8654 H         1 LPO167      0.0000 
     74 H          37.2765   12.3444  -13.7274 H         1 LPO167      0.0000 
     75 H          43.9666    8.1090   -6.4660 H         1 LPO167      0.0000 
     76 H          43.7257    8.8692   -5.0695 H         1 LPO167      0.0000 
     77 H          42.5232    8.7324   -6.1284 H         1 LPO167      0.0000 
     78 H          36.9720   12.1783  -15.9113 H         1 LPO167      0.0000 
     79 H          35.6585   11.5090  -16.5539 H         1 LPO167      0.0000 
     80 H          35.5127   12.7115  -15.4960 H         1 LPO167      0.0000 
     81 H          38.0126   18.7336  -10.3685 H         1 LPO167      0.0000 
@<TRIPOS>BOND
     1    2    1 1    
     2    6    1 1    
     3   45    1 1    
     4   46    1 1    
     5    3    2 1    
     6   47    2 1    
     7   48    2 1    
     8    4    3 1    
     9    5    4 1    
    10   49    4 1    
    11   50    4 1    
    12    6    5 1    
    13    7    5 1    
    14   51    5 1    
    15    9    6 1    
    16   10    6 1    
    17    8    7 am   
    18   29    7 2    
    19   30    8 1    
    20   31    8 1    
    21   81    9 1    
    22   11   10 ar   
    23   15   10 ar   
    24   12   11 ar   
    25   52   11 1    
    26   13   12 ar   
    27   14   13 ar   
    28   16   13 1    
    29   15   14 ar   
    30   53   14 1    
    31   54   15 1    
    32   17   16 1    
    33   18   17 1    
    34   55   17 1    
    35   56   17 1    
    36   19   18 1    
    37   57   18 1    
    38   58   18 1    
    39   20   19 1    
    40   21   20 ar   
    41   25   20 ar   
    42   22   21 ar   
    43   27   21 1    
    44   23   22 ar   
    45   59   22 1    
    46   24   23 ar   
    47   28   23 1    
    48   25   24 ar   
    49   60   24 1    
    50   26   25 1    
    51   75   28 1    
    52   76   28 1    
    53   77   28 1    
    54   32   30 1    
    55   61   30 1    
    56   62   30 1    
    57   38   31 1    
    58   39   31 1    
    59   63   31 1    
    60   33   32 ar   
    61   37   32 ar   
    62   34   33 ar   
    63   64   33 1    
    64   35   34 ar   
    65   41   34 1    
    66   36   35 ar   
    67   65   35 1    
    68   37   36 ar   
    69   66   36 1    
    70   40   37 1    
    71   39   38 1    
    72   67   38 1    
    73   68   38 1    
    74   69   39 1    
    75   70   39 1    
    76   42   41 1    
    77   71   41 1    
    78   72   41 1    
    79   43   42 1    
    80   73   42 1    
    81   74   42 1    
    82   44   43 1    
    83   78   44 1    
    84   79   44 1    
    85   80   44 1    
@<TRIPOS>SUBSTRUCTURE
     1 LPO167      1 GROUP   
@<TRIPOS>SET

