#    Name: 1zbq_NAD_4_INTS_M
#    Modification time : Tue Mar 25 11:40:01 2014

@<TRIPOS>MOLECULE
1zbq_NAD_4_INTS_M
   96     0    12     0     0
SMALL
NO_CHARGES


@<TRIPOS>ATOM
      1 NZ         12.6490   43.4995  -80.1295 N.4       3 LYC4        0.0000 
      2 NZ         11.5510   43.0790  -80.7860 N.4      11 LYL4        0.0000 
      3 NZ         14.4970   43.0960  -78.7540 N.4       7 LYP4        0.0000 
      4 N          12.6490   43.4995  -80.1295 N.am      2 SEC2        0.0000 
      5 N          11.5510   43.0790  -80.7860 N.am     10 SEL2        0.0000 
      6 N          13.7470   43.9200  -79.4730 N.am      6 SEP2        0.0000 
      7 CA          9.5150   38.6115  -77.6010 C.3       4 GLC5        0.0000 
      8 CA         10.3920   39.9590  -78.5630 C.3      12 GLL5        0.0000 
      9 CA          8.6380   37.2640  -76.6390 C.3       8 GLP5        0.0000 
     10 O          12.1560   39.7210  -75.6520 O.2       1 ALC1        0.0000 
     11 O          11.3950   40.9400  -76.5860 O.2       9 ALL1        0.0000 
     12 O          12.9170   38.5020  -74.7180 O.2       5 ALP1        0.0000 
     13 O          11.1035   40.0790  -75.6400 O.2       1 ALC1        0.0000 
     14 O          10.8120   39.2180  -74.6940 O.2       5 ALP1        0.0000 
     15 O          13.2320   38.9445  -75.8190 O.2       1 ALC1        0.0000 
     16 O          13.5470   39.3870  -76.9200 O.2       9 ALL1        0.0000 
     17 CA         10.2125   37.7500  -77.3845 C.3       4 GLC5        0.0000 
     18 CA         11.7870   38.2360  -78.1300 C.3      12 GLL5        0.0000 
     19 CA         10.6390   36.4570  -78.8725 C.3       4 GLC5        0.0000 
     20 CA          9.4910   34.6780  -79.6150 C.3       8 GLP5        0.0000 
     21 CA         14.0000   32.0875  -77.4465 C.3       4 GLC5        0.0000 
     22 CA         13.4970   33.7420  -78.6990 C.3      12 GLL5        0.0000 
     23 CA         14.5030   30.4330  -76.1940 C.3       8 GLP5        0.0000 
     24 CA         12.2525   32.2995  -79.3825 C.3       4 GLC5        0.0000 
     25 CA         11.0080   30.8570  -80.0660 C.3       8 GLP5        0.0000 
     26 O          14.9030   31.5530  -78.9200 O.2       1 ALC1        0.0000 
     27 O          14.2740   32.9540  -79.4540 O.2       9 ALL1        0.0000 
     28 O          15.5320   30.1520  -78.3860 O.2       5 ALP1        0.0000 
     29 N          12.6240   31.6700  -77.5275 N.am      2 SEC2        0.0000 
     30 N          12.8210   33.2270  -77.6070 N.am     10 SEL2        0.0000 
     31 N          12.4270   30.1130  -77.4480 N.am      6 SEP2        0.0000 
     32 CA         11.7960   35.1180  -75.0400 C.3       4 GLC5        0.0000 
     33 CA         12.0060   34.0330  -76.8310 C.3      12 GLL5        0.0000 
     34 CA         11.5860   36.2030  -73.2490 C.3       8 GLP5        0.0000 
     35 CA         13.7800   34.3690  -76.1900 C.3       4 GLC5        0.0000 
     36 CA         15.5540   34.7050  -75.5490 C.3       8 GLP5        0.0000 
     37 CA         13.2545   32.2330  -76.5125 C.3       4 GLC5        0.0000 
     38 CA         10.8655   32.6460  -77.4025 C.3       4 GLC5        0.0000 
     39 CA          9.7250   31.2590  -77.9740 C.3       8 GLP5        0.0000 
     40 CA         10.7485   34.3555  -78.2230 C.3       4 GLC5        0.0000 
     41 CA         10.5750   36.5675  -77.4275 C.3       4 GLC5        0.0000 
     42 CA         12.5120   35.8710  -78.2160 C.3      12 GLL5        0.0000 
     43 N           8.1655   45.4660  -83.0060 N.am      2 SEC2        0.0000 
     44 N           7.5420   44.3050  -83.1610 N.am     10 SEL2        0.0000 
     45 N           8.7890   46.6270  -82.8510 N.am      6 SEP2        0.0000 
     46 N           5.8690   43.7625  -79.9385 N.am      2 SEC2        0.0000 
     47 N           6.9160   43.4280  -80.8750 N.am     10 SEL2        0.0000 
     48 N           4.8220   44.0970  -79.0020 N.am      6 SEP2        0.0000 
     49 CA          4.6325   39.0235  -84.3965 C.3       4 GLC5        0.0000 
     50 CA          6.1340   39.9050  -83.5270 C.3      12 GLL5        0.0000 
     51 CA          3.1310   38.1420  -85.2660 C.3       8 GLP5        0.0000 
     52 CA          9.0150   38.2415  -83.7805 C.3       4 GLC5        0.0000 
     53 CA          7.4100   39.4020  -84.1740 C.3      12 GLL5        0.0000 
     54 CA         10.6200   37.0810  -83.3870 C.3       8 GLP5        0.0000 
     55 N           6.9355   37.1965  -85.6900 N.am      2 SEC2        0.0000 
     56 N           7.3300   38.0140  -84.4010 N.am     10 SEL2        0.0000 
     57 N           6.5410   36.3790  -86.9790 N.am      6 SEP2        0.0000 
     58 O           7.0790   37.6605  -83.0600 O.2       1 ALC1        0.0000 
     59 O           7.3300   38.0140  -84.4010 O.2       9 ALL1        0.0000 
     60 O           6.8280   37.3070  -81.7190 O.2       5 ALP1        0.0000 
     61 N           7.3145   37.8015  -86.6890 N.am      2 SEC2        0.0000 
     62 N           8.0880   39.2240  -86.3990 N.am     10 SEL2        0.0000 
     63 O           8.1290   39.7630  -87.6300 O.2       1 ALC1        0.0000 
     64 O           8.0880   39.2240  -86.3990 O.2       9 ALL1        0.0000 
     65 O           8.1700   40.3020  -88.8610 O.2       5 ALP1        0.0000 
     66 CA          4.5495   39.2035  -85.5445 C.3       4 GLC5        0.0000 
     67 CA          5.9680   40.2650  -85.8230 C.3      12 GLL5        0.0000 
     68 CA          4.4675   42.8800  -84.5485 C.3       4 GLC5        0.0000 
     69 CA          5.6420   42.6480  -86.1800 C.3      12 GLL5        0.0000 
     70 CA          3.2930   43.1120  -82.9170 C.3       8 GLP5        0.0000 
     71 N           3.6795   46.8870  -86.2565 N.am      2 SEC2        0.0000 
     72 N           4.5780   46.1150  -86.8460 N.am     10 SEL2        0.0000 
     73 N           2.7810   47.6590  -85.6670 N.am      6 SEP2        0.0000 
     74 O           5.6925   46.8195  -84.9780 O.2       1 ALC1        0.0000 
     75 O           5.9950   45.2940  -85.1200 O.2       9 ALL1        0.0000 
     76 O           5.3900   48.3450  -84.8360 O.2       5 ALP1        0.0000 
     77 CA          5.9135   39.1165  -88.1350 C.3       4 GLC5        0.0000 
     78 CA          5.1140   41.1780  -87.9730 C.3      12 GLL5        0.0000 
     79 CA          6.7130   37.0550  -88.2970 C.3       8 GLP5        0.0000 
     80 CA         13.0870   33.9853  -80.8862 C.3       4 GLC5        0.0000 
     81 CA         13.3450   35.0890  -79.0060 C.3      12 GLL5        0.0000 
     82 CA         12.7530   33.5550  -82.9200 C.3       8 GLP5        0.0000 
     83 CA         14.2603   34.9241  -77.0416 C.3       4 GLC5        0.0000 
     84 CA         11.2287   34.9106  -79.0746 C.3       4 GLC5        0.0000 
     85 CA          4.7785   41.7647  -82.9470 C.3       4 GLC5        0.0000 
     86 CA          8.9348   40.9815  -85.1273 C.3       4 GLC5        0.0000 
     87 CA         10.4420   42.2110  -85.4130 C.3       8 GLP5        0.0000 
     88 CA          6.7098   38.6192  -86.9815 C.3       4 GLC5        0.0000 
     89 CA          7.4450   40.1020  -85.5090 C.3      12 GLL5        0.0000 
     90 CA          3.5340   42.3983  -86.1635 C.3       4 GLC5        0.0000 
     91 CA          1.6060   41.5850  -85.7690 C.3       8 GLP5        0.0000 
     92 CA          4.8580   40.7870  -89.7950 C.3       4 GLC5        0.0000 
     93 CA          4.7970   39.8400  -91.2210 C.3       8 GLP5        0.0000 
     94 CA          3.0250   41.2890  -87.6915 C.3       4 GLC5        0.0000 
     95 CA          4.7240   42.2900  -88.7650 C.3      12 GLL5        0.0000 
     96 CA          1.1310   40.8440  -87.0140 C.3       8 GLP5        0.0000 
@<TRIPOS>BOND
@<TRIPOS>SUBSTRUCTURE
     1 ALC1       10 GROUP        1 X    ALC  0     ROOT ALC X 1
     2 SEC2        4 GROUP        1 X    SEC  0     **** SEC X 2
     3 LYC4        1 GROUP        1 X    LYC  0     **** LYC X 4
     4 GLC5        7 GROUP        1 X    GLC  0     **** GLC X 6
     5 ALP1       12 GROUP        1 Y    ALP  0     ROOT ALP Y 8
     6 SEP2        6 GROUP        1 Y    SEP  0     **** SEP Y 9
     7 LYP4        3 GROUP        1 Y    LYP  0     **** LYP Y 11
     8 GLP5        9 GROUP        1 Y    GLP  0     **** GLP Y 13
     9 ALL1       11 GROUP        1 Z    ALL  0     ROOT ALL Z 15
    10 SEL2        5 GROUP        1 Z    SEL  0     **** SEL Z 16
    11 LYL4        2 GROUP        1 Z    LYL  0     **** LYL Z 18
    12 GLL5        8 GROUP        1 Z    GLL  0     **** GLL Z 20
@<TRIPOS>SET

