#    Name: 1zbq_NAD_4_ligand
#    Modification time : Tue Mar 25 11:40:01 2014

@<TRIPOS>MOLECULE
1zbq_NAD_4_ligand
   70    74     1     0     0
SMALL
NO_CHARGES


@<TRIPOS>ATOM
      1 PA         10.1000   43.2000  -80.4000 P.3       1 NAD1004     0.0000 
      2 O1A        11.5510   43.0790  -80.7860 O.co2     1 NAD1004     0.0000 
      3 O2A         9.7800   44.4650  -79.7160 O.co2     1 NAD1004     0.0000 
      4 O5B         9.7690   41.9960  -79.4150 O.3       1 NAD1004     0.0000 
      5 C5B         9.9970   40.6770  -79.8330 C.3       1 NAD1004     0.0000 
      6 C4B        10.3920   39.9590  -78.5630 C.3       1 NAD1004     0.0000 
      7 O4B        10.7150   38.6390  -78.9150 O.3       1 NAD1004     0.0000 
      8 C3B        11.6350   40.5730  -77.9240 C.3       1 NAD1004     0.0000 
      9 O3B        11.3950   40.9400  -76.5860 O.3       1 NAD1004     0.0000 
     10 C2B        12.6620   39.4620  -78.0160 C.3       1 NAD1004     0.0000 
     11 O2B        13.5470   39.3870  -76.9200 O.3       1 NAD1004     0.0000 
     12 C1B        11.7870   38.2360  -78.1300 C.3       1 NAD1004     0.0000 
     13 N9A        12.5250   37.1290  -78.7420 N.pl3     1 NAD1004     0.0000 
     14 C8A        13.3480   37.1330  -79.8470 C.2       1 NAD1004     0.0000 
     15 N7A        13.8370   35.8710  -79.9970 N.2       1 NAD1004     0.0000 
     16 C5A        13.3450   35.0890  -79.0060 C.ar      1 NAD1004     0.0000 
     17 C6A        13.4970   33.7420  -78.6990 C.ar      1 NAD1004     0.0000 
     18 N6A        14.2740   32.9540  -79.4540 N.pl3     1 NAD1004     0.0000 
     19 N1A        12.8210   33.2270  -77.6070 N.ar      1 NAD1004     0.0000 
     20 C2A        12.0060   34.0330  -76.8310 C.ar      1 NAD1004     0.0000 
     21 N3A        11.8560   35.3660  -77.1510 N.ar      1 NAD1004     0.0000 
     22 C4A        12.5120   35.8710  -78.2160 C.ar      1 NAD1004     0.0000 
     23 O3          9.2230   42.9510  -81.7480 O.3       1 NAD1004     0.0000 
     24 PN          7.6920   43.2980  -82.1030 P.3       1 NAD1004     0.0000 
     25 O1N         7.5420   44.3050  -83.1610 O.co2     1 NAD1004     0.0000 
     26 O2N         6.9160   43.4280  -80.8750 O.co2     1 NAD1004     0.0000 
     27 O5D         7.2970   41.9350  -82.8880 O.3       1 NAD1004     0.0000 
     28 C5D         6.3940   40.9300  -82.4270 C.3       1 NAD1004     0.0000 
     29 C4D         6.1340   39.9050  -83.5270 C.3       1 NAD1004     0.0000 
     30 O4D         5.3990   40.5260  -84.5720 O.3       1 NAD1004     0.0000 
     31 C3D         7.4100   39.4020  -84.1740 C.3       1 NAD1004     0.0000 
     32 O3D         7.3300   38.0140  -84.4010 O.3       1 NAD1004     0.0000 
     33 C2D         7.4450   40.1020  -85.5090 C.3       1 NAD1004     0.0000 
     34 O2D         8.0880   39.2240  -86.3990 O.3       1 NAD1004     0.0000 
     35 C1D         5.9680   40.2650  -85.8230 C.3       1 NAD1004     0.0000 
     36 N1N         5.5760   41.3740  -86.6990 N.pl3     1 NAD1004     0.0000 
     37 C2N         5.6420   42.6480  -86.1800 C.ar      1 NAD1004     0.0000 
     38 C3N         5.2820   43.7750  -86.9360 C.ar      1 NAD1004     0.0000 
     39 C7N         5.3480   45.1030  -86.2750 C.2       1 NAD1004     0.0000 
     40 O7N         4.5780   46.1150  -86.8460 O.2       1 NAD1004     0.0000 
     41 N7N         5.9950   45.2940  -85.1200 N.am      1 NAD1004     0.0000 
     42 C4N         4.8110   43.6140  -88.2480 C.ar      1 NAD1004     0.0000 
     43 C5N         4.7240   42.2900  -88.7650 C.ar      1 NAD1004     0.0000 
     44 C6N         5.1140   41.1780  -87.9730 C.ar      1 NAD1004     0.0000 
     45 H          10.8119   40.5967  -80.5337 H         1 NAD1004     0.0000 
     46 H           9.1113   40.2052  -80.2261 H         1 NAD1004     0.0000 
     47 H           9.5878   39.9976  -77.8667 H         1 NAD1004     0.0000 
     48 H          11.9579   41.3753  -78.5452 H         1 NAD1004     0.0000 
     49 H          13.1648   39.5732  -78.9697 H         1 NAD1004     0.0000 
     50 H          11.4704   37.9752  -77.1336 H         1 NAD1004     0.0000 
     51 H          13.5346   37.8856  -80.3987 H         1 NAD1004     0.0000 
     52 H          14.7269   32.1986  -78.9803 H         1 NAD1004     0.0000 
     53 H          14.3316   33.1917  -80.4236 H         1 NAD1004     0.0000 
     54 H          11.5143   33.6363  -76.0178 H         1 NAD1004     0.0000 
     55 H           5.4256   41.3582  -82.1328 H         1 NAD1004     0.0000 
     56 H           6.7949   40.3923  -81.5565 H         1 NAD1004     0.0000 
     57 H           5.5987   39.0742  -83.1233 H         1 NAD1004     0.0000 
     58 H           8.2337   39.7044  -83.6035 H         1 NAD1004     0.0000 
     59 H           7.8913   41.0307  -85.3916 H         1 NAD1004     0.0000 
     60 H           5.5932   39.3256  -86.1964 H         1 NAD1004     0.0000 
     61 H           5.9664   42.7914  -85.2011 H         1 NAD1004     0.0000 
     62 H           6.4023   44.4809  -84.7041 H         1 NAD1004     0.0000 
     63 H           6.0134   46.2328  -84.7760 H         1 NAD1004     0.0000 
     64 H           4.5415   44.4011  -88.8121 H         1 NAD1004     0.0000 
     65 H           4.3775   42.1408  -89.7149 H         1 NAD1004     0.0000 
     66 H           5.0412   40.2362  -88.3760 H         1 NAD1004     0.0000 
     67 H          11.1775   40.0835  -76.1179 H         1 NAD1004     0.0000 
     68 H          12.9640   39.4629  -76.1111 H         1 NAD1004     0.0000 
     69 H           7.1632   37.6137  -83.4999 H         1 NAD1004     0.0000 
     70 H           8.0498   39.6821  -87.2871 H         1 NAD1004     0.0000 
@<TRIPOS>BOND
     1    2    1 ar   
     2    3    1 ar   
     3    4    1 1    
     4   23    1 1    
     5    5    4 1    
     6    6    5 1    
     7   45    5 1    
     8   46    5 1    
     9    7    6 1    
    10    8    6 1    
    11   47    6 1    
    12   12    7 1    
    13    9    8 1    
    14   10    8 1    
    15   48    8 1    
    16   67    9 1    
    17   11   10 1    
    18   12   10 1    
    19   49   10 1    
    20   68   11 1    
    21   13   12 1    
    22   50   12 1    
    23   14   13 1    
    24   22   13 1    
    25   15   14 2    
    26   51   14 1    
    27   16   15 1    
    28   17   16 ar   
    29   22   16 ar   
    30   18   17 1    
    31   19   17 ar   
    32   52   18 1    
    33   53   18 1    
    34   20   19 ar   
    35   21   20 ar   
    36   54   20 1    
    37   22   21 ar   
    38   24   23 1    
    39   25   24 ar   
    40   26   24 ar   
    41   27   24 1    
    42   28   27 1    
    43   29   28 1    
    44   55   28 1    
    45   56   28 1    
    46   30   29 1    
    47   31   29 1    
    48   57   29 1    
    49   35   30 1    
    50   32   31 1    
    51   33   31 1    
    52   58   31 1    
    53   69   32 1    
    54   34   33 1    
    55   35   33 1    
    56   59   33 1    
    57   70   34 1    
    58   36   35 1    
    59   60   35 1    
    60   37   36 ar   
    61   44   36 ar   
    62   38   37 ar   
    63   61   37 1    
    64   39   38 1    
    65   42   38 ar   
    66   40   39 2    
    67   41   39 am   
    68   62   41 1    
    69   63   41 1    
    70   43   42 ar   
    71   64   42 1    
    72   44   43 ar   
    73   65   43 1    
    74   66   44 1    
@<TRIPOS>SUBSTRUCTURE
     1 NAD1004     1 GROUP   
@<TRIPOS>SET

