#    Name: 1z0a_GDP_3_INTS_M
#    Modification time : Tue Mar 25 11:23:50 2014

@<TRIPOS>MOLECULE
1z0a_GDP_3_INTS_M
   68     0    15     0     0
SMALL
NO_CHARGES


@<TRIPOS>ATOM
      1 NZ         79.1690   51.4955    2.6950 N.4       3 LYC4        0.0000 
      2 NZ         77.9060   52.0210    2.3060 N.4      13 LYL4        0.0000 
      3 NZ         80.4320   50.9700    3.0840 N.4       8 LYP4        0.0000 
      4 N          77.2220   52.7210    1.0450 N.am      2 SEC2        0.0000 
      5 N          77.9060   52.0210    2.3060 N.am     12 SEL2        0.0000 
      6 N          76.5380   53.4210   -0.2160 N.am      7 SEP2        0.0000 
      7 N          77.2635   51.3395    1.1830 N.am      2 SEC2        0.0000 
      8 N          76.6210   50.6580    0.0600 N.am      7 SEP2        0.0000 
      9 N          79.1690   51.4955    2.6950 N.am      2 SEC2        0.0000 
     10 N          80.4320   50.9700    3.0840 N.am      7 SEP2        0.0000 
     11 Zn         76.9045   49.8525    4.2815 Zn        4 ZIC7        0.0000 
     12 Zn         76.2800   50.6410    3.5890 Zn       14 ZIL7        0.0000 
     13 Zn         77.5290   49.0640    4.9740 Zn        9 ZIP7        0.0000 
     14 N          75.7370   49.6740    2.6165 N.am      2 SEC2        0.0000 
     15 N          76.2800   50.6410    3.5890 N.am     12 SEL2        0.0000 
     16 N          75.1940   48.7070    1.6440 N.am      7 SEP2        0.0000 
     17 NZ         78.9335   51.7680    3.8435 N.4       3 LYC4        0.0000 
     18 NZ         77.4350   52.5660    4.6030 N.4      13 LYL4        0.0000 
     19 N          77.9255   53.8565    4.2100 N.am      2 SEC2        0.0000 
     20 N          77.4350   52.5660    4.6030 N.am     12 SEL2        0.0000 
     21 N          78.4160   55.1470    3.8170 N.am      7 SEP2        0.0000 
     22 N          76.0945   53.1920    1.2630 N.am      2 SEC2        0.0000 
     23 N          75.6510   52.9630    2.7420 N.am     12 SEL2        0.0000 
     24 N          73.0570   50.4090    1.3675 N.am      2 SEC2        0.0000 
     25 N          73.6060   51.5980    1.8530 N.am     12 SEL2        0.0000 
     26 N          72.5080   49.2200    0.8820 N.am      7 SEP2        0.0000 
     27 CA         75.5720   55.6390    3.1205 C.3       5 GLC5        0.0000 
     28 CA         73.7690   55.2930    3.0250 C.3      15 GLL5        0.0000 
     29 CA         77.3750   55.9850    3.2160 C.3      10 GLP5        0.0000 
     30 N          73.5650   57.4560    0.6275 N.am      2 SEC2        0.0000 
     31 N          72.4540   56.5920    1.4440 N.am     12 SEL2        0.0000 
     32 N          74.6760   58.3200   -0.1890 N.am      7 SEP2        0.0000 
     33 CA         69.2565   54.4480    0.5505 C.3       5 GLC5        0.0000 
     34 CA         70.5980   55.2640    1.9620 C.3      15 GLL5        0.0000 
     35 CA         67.9150   53.6320   -0.8610 C.3      10 GLP5        0.0000 
     36 CA         69.1660   55.4820    0.2245 C.3       5 GLC5        0.0000 
     37 CA         71.1670   56.2220    0.9380 C.3      15 GLL5        0.0000 
     38 CA         67.1650   54.7420   -0.4890 C.3      10 GLP5        0.0000 
     39 CA         72.8550   56.8535   -0.2450 C.3       5 GLC5        0.0000 
     40 CA         74.5430   57.4850   -1.4280 C.3      10 GLP5        0.0000 
     41 N          73.2980   53.9545   -2.9410 N.am      2 SEC2        0.0000 
     42 N          72.0060   54.2700   -2.0670 N.am     12 SEL2        0.0000 
     43 N          74.5900   53.6390   -3.8150 N.am      7 SEP2        0.0000 
     44 CA         72.7945   56.3370   -3.2750 C.3       5 GLC5        0.0000 
     45 CA         71.3640   55.2940   -2.6360 C.3      15 GLL5        0.0000 
     46 CA         74.2250   57.3800   -3.9140 C.3      10 GLP5        0.0000 
     47 CA         71.2465   53.3290   -3.2960 C.3       5 GLC5        0.0000 
     48 CA         71.1290   51.3640   -3.9560 C.3      10 GLP5        0.0000 
     49 CA         69.3695   55.2425   -3.5880 C.3       5 GLC5        0.0000 
     50 CA         67.3750   55.1910   -4.5400 C.3      10 GLP5        0.0000 
     51 N          69.9795   54.0435   -4.9940 N.am      2 SEC2        0.0000 
     52 N          71.3280   54.9700   -4.9720 N.am     12 SEL2        0.0000 
     53 N          68.6310   53.1170   -5.0160 N.am      7 SEP2        0.0000 
     54 O          70.1610   57.1670   -5.4735 O.2       1 ALC1        0.0000 
     55 O          70.3260   56.8440   -4.1820 O.2      11 ALL1        0.0000 
     56 O          69.9960   57.4900   -6.7650 O.2       6 ALP1        0.0000 
     57 O          69.3980   57.8665   -5.1110 O.2       1 ALC1        0.0000 
     58 O          68.4700   58.8890   -6.0400 O.2       6 ALP1        0.0000 
     59 O          68.8710   58.8265   -4.7260 O.2       1 ALC1        0.0000 
     60 O          69.2720   58.7640   -3.4120 O.2      11 ALL1        0.0000 
     61 CA         72.7410   56.8375   -1.4910 C.3       5 GLC5        0.0000 
     62 CA         70.9390   56.1900   -1.5540 C.3      15 GLL5        0.0000 
     63 CA         74.0623   57.6728    3.0802 C.3       5 GLC5        0.0000 
     64 CA         72.6080   56.2720    2.8200 C.3      15 GLL5        0.0000 
     65 CA         74.9360   59.5630    3.2380 C.3      10 GLP5        0.0000 
     66 CA         70.7212   53.6118    1.9490 C.3       5 GLC5        0.0000 
     67 CA         71.2650   55.7130    3.2460 C.3      15 GLL5        0.0000 
     68 CA         70.5110   51.7350    1.2940 C.3      10 GLP5        0.0000 
@<TRIPOS>BOND
@<TRIPOS>SUBSTRUCTURE
     1 ALC1       54 GROUP        1 X    ALC  0     ROOT ALC X 1
     2 SEC2        4 GROUP        1 X    SEC  0     **** SEC X 2
     3 LYC4        1 GROUP        1 X    LYC  0     **** LYC X 4
     4 ZIC7       11 GROUP        1 X    ZIC  0     **** ZIC X 5
     5 GLC5       27 GROUP        1 X    GLC  0     **** GLC X 6
     6 ALP1       56 GROUP        1 Y    ALP  0     ROOT ALP Y 8
     7 SEP2        6 GROUP        1 Y    SEP  0     **** SEP Y 9
     8 LYP4        3 GROUP        1 Y    LYP  0     **** LYP Y 11
     9 ZIP7       13 GROUP        1 Y    ZIP  0     **** ZIP Y 12
    10 GLP5       29 GROUP        1 Y    GLP  0     **** GLP Y 13
    11 ALL1       55 GROUP        1 Z    ALL  0     ROOT ALL Z 15
    12 SEL2        5 GROUP        1 Z    SEL  0     **** SEL Z 16
    13 LYL4        2 GROUP        1 Z    LYL  0     **** LYL Z 18
    14 ZIL7       12 GROUP        1 Z    ZIL  0     **** ZIL Z 19
    15 GLL5       28 GROUP        1 Z    GLL  0     **** GLL Z 20
@<TRIPOS>SET

