#    Name: 1z0a_GDP_3_ligand
#    Modification time : Tue Mar 25 11:23:50 2014

@<TRIPOS>MOLECULE
1z0a_GDP_3_ligand
   40    42     1     0     0
SMALL
NO_CHARGES


@<TRIPOS>ATOM
      1 PB         76.8160   52.0340    3.3340 P.3       1 GDP3200     0.0000 
      2 O1B        77.9060   52.0210    2.3060 O.co2     1 GDP3200     0.0000 
      3 O2B        76.2800   50.6410    3.5890 O.co2     1 GDP3200     0.0000 
      4 O3B        77.4350   52.5660    4.6030 O.co2     1 GDP3200     0.0000 
      5 O3A        75.6510   52.9630    2.7420 O.3       1 GDP3200     0.0000 
      6 PA         74.0640   52.6630    2.8020 P.3       1 GDP3200     0.0000 
      7 O1A        73.6060   51.5980    1.8530 O.co2     1 GDP3200     0.0000 
      8 O2A        73.6280   52.3840    4.2170 O.co2     1 GDP3200     0.0000 
      9 O5'        73.5260   54.0880    2.2990 O.3       1 GDP3200     0.0000 
     10 C5'        73.7690   55.2930    3.0250 C.3       1 GDP3200     0.0000 
     11 C4'        72.6080   56.2720    2.8200 C.3       1 GDP3200     0.0000 
     12 O4'        72.4540   56.5920    1.4440 O.3       1 GDP3200     0.0000 
     13 C3'        71.2650   55.7130    3.2460 C.3       1 GDP3200     0.0000 
     14 O3'        70.5280   56.7930    3.8190 O.3       1 GDP3200     0.0000 
     15 C2'        70.5980   55.2640    1.9620 C.3       1 GDP3200     0.0000 
     16 O2'        69.1720   55.3710    2.0320 O.3       1 GDP3200     0.0000 
     17 C1'        71.1670   56.2220    0.9380 C.3       1 GDP3200     0.0000 
     18 N9         71.3540   55.6310   -0.4200 N.pl3     1 GDP3200     0.0000 
     19 C8         72.0050   54.4920   -0.7290 C.2       1 GDP3200     0.0000 
     20 N7         72.0060   54.2700   -2.0670 N.2       1 GDP3200     0.0000 
     21 C5         71.3640   55.2940   -2.6360 C.2       1 GDP3200     0.0000 
     22 C6         71.0030   55.6890   -4.0060 C.2       1 GDP3200     0.0000 
     23 O6         71.3280   54.9700   -4.9720 O.2       1 GDP3200     0.0000 
     24 N1         70.3260   56.8440   -4.1820 N.am      1 GDP3200     0.0000 
     25 C2         69.9600   57.6270   -3.1520 C.2       1 GDP3200     0.0000 
     26 N2         69.2720   58.7640   -3.4120 N.pl3     1 GDP3200     0.0000 
     27 N3         70.2540   57.3260   -1.8620 N.2       1 GDP3200     0.0000 
     28 C4         70.9390   56.1900   -1.5540 C.2       1 GDP3200     0.0000 
     29 H          74.6869   55.7922    2.6913 H         1 GDP3200     0.0000 
     30 H          73.8613   55.1086    4.1023 H         1 GDP3200     0.0000 
     31 H          72.7957   57.1673    3.3945 H         1 GDP3200     0.0000 
     32 H          71.4066   54.9074    3.8840 H         1 GDP3200     0.0000 
     33 H          70.9423   54.2863    1.7295 H         1 GDP3200     0.0000 
     34 H          70.5351   57.0875    0.8841 H         1 GDP3200     0.0000 
     35 H          72.4273   53.8945   -0.0712 H         1 GDP3200     0.0000 
     36 H          70.0757   57.1414   -5.1666 H         1 GDP3200     0.0000 
     37 H          69.0228   59.3188   -2.6182 H         1 GDP3200     0.0000 
     38 H          69.0741   58.9481   -4.3748 H         1 GDP3200     0.0000 
     39 H          69.5973   56.6853    3.4694 H         1 GDP3200     0.0000 
     40 H          68.9245   56.0102    1.3040 H         1 GDP3200     0.0000 
@<TRIPOS>BOND
     1    2    1 ar   
     2    3    1 ar   
     3    4    1 ar   
     4    5    1 1    
     5    6    5 1    
     6    7    6 ar   
     7    8    6 ar   
     8    9    6 1    
     9   10    9 1    
    10   11   10 1    
    11   29   10 1    
    12   30   10 1    
    13   12   11 1    
    14   13   11 1    
    15   31   11 1    
    16   17   12 1    
    17   14   13 1    
    18   15   13 1    
    19   32   13 1    
    20   39   14 1    
    21   16   15 1    
    22   17   15 1    
    23   33   15 1    
    24   40   16 1    
    25   18   17 1    
    26   34   17 1    
    27   19   18 1    
    28   28   18 1    
    29   20   19 2    
    30   35   19 1    
    31   21   20 1    
    32   22   21 1    
    33   28   21 2    
    34   23   22 2    
    35   24   22 am   
    36   25   24 1    
    37   36   24 1    
    38   26   25 1    
    39   27   25 2    
    40   37   26 1    
    41   38   26 1    
    42   28   27 1    
@<TRIPOS>SUBSTRUCTURE
     1 GDP3200     1 GROUP   
@<TRIPOS>SET

