#    Name: 4HG0_1_CAVITY_N1_ALL.mol2
#    Modification time : Tue Mar 11 02:20:15 2014

@<TRIPOS>MOLECULE
4HG0_1_CAVITY_N1_ALL.mol2
   81     0     5     0     0
SMALL
NO_CHARGES


@<TRIPOS>ATOM
      1 OG          2.4387   14.5339   60.7366 O.2       1 SER1        0.0000 
      2 O           1.2979   14.2687   59.7995 O.2       2 ALA2        0.0000 
      3 NZ          4.0022   15.9646   60.8293 N.2       3 LYS4        0.0000 
      4 O           1.9840   16.6057   60.7038 O.2       2 ALA2        0.0000 
      5 OG          2.8614   15.6993   59.8922 O.2       1 SER1        0.0000 
      6 OG          3.7389   14.7930   59.0806 O.2       1 SER1        0.0000 
      7 CA          0.8432   16.3405   59.7666 C.3       4 GLY6        0.0000 
      8 O           1.7207   15.4341   58.9550 O.2       2 ALA2        0.0000 
      9 O           2.5981   14.5278   58.1434 O.2       2 ALA2        0.0000 
     10 CA         -1.1750   16.9816   59.6410 C.3       4 GLY6        0.0000 
     11 O          -0.2976   16.0753   58.8294 O.2       2 ALA2        0.0000 
     12 CA         -3.1932   17.6228   59.5154 C.3       4 GLY6        0.0000 
     13 CA         -2.3158   16.7164   58.7039 C.3       4 GLY6        0.0000 
     14 NZ          2.4068   17.7711   59.8593 N.2       3 LYS4        0.0000 
     15 NZ          3.2842   16.8648   59.0477 N.2       3 LYS4        0.0000 
     16 CA          0.3886   18.4123   59.7337 C.3       4 GLY6        0.0000 
     17 DU          1.2660   17.5059   58.9222 H         5 CUB7        0.0000 
     18 O           2.1434   16.5996   58.1106 O.2       2 ALA2        0.0000 
     19 CA         -1.6296   19.0534   59.6082 C.3       4 GLY6        0.0000 
     20 CA         -0.7522   18.1470   58.7966 C.3       4 GLY6        0.0000 
     21 O           0.1252   17.2407   57.9850 O.2       2 ALA2        0.0000 
     22 CA         -2.7704   18.7882   58.6710 C.3       4 GLY6        0.0000 
     23 N          -1.8930   17.8818   57.8594 N.2       2 ALA2        0.0000 
     24 O          -3.9112   18.5230   57.7338 O.2       2 ALA2        0.0000 
     25 N          -3.0338   17.6166   56.9223 N.2       2 ALA2        0.0000 
     26 NZ          3.7070   18.0302   58.2033 N.2       3 LYS4        0.0000 
     27 CA          0.8114   19.5777   58.8893 C.3       4 GLY6        0.0000 
     28 NZ          1.6888   18.6713   58.0777 N.2       3 LYS4        0.0000 
     29 DU          2.5662   17.7650   57.2661 H         5 CUB7        0.0000 
     30 CA         -1.2069   20.2188   58.7637 C.3       4 GLY6        0.0000 
     31 CA         -0.3294   19.3125   57.9521 C.3       4 GLY6        0.0000 
     32 O           0.5480   18.4061   57.1406 O.2       2 ALA2        0.0000 
     33 O           1.4254   17.4998   56.3290 O.2       2 ALA2        0.0000 
     34 CA         -2.3476   19.9536   57.8266 C.3       4 GLY6        0.0000 
     35 CA         -1.4702   19.0473   57.0150 C.3       4 GLY6        0.0000 
     36 N          -0.5928   18.1409   56.2034 N.2       2 ALA2        0.0000 
     37 CA         -3.4884   19.6884   56.8894 C.3       4 GLY6        0.0000 
     38 N          -2.6110   18.7820   56.0778 N.2       2 ALA2        0.0000 
     39 N          -1.7336   17.8757   55.2662 N.2       2 ALA2        0.0000 
     40 CA         -3.7518   18.5168   55.1407 C.3       4 GLY6        0.0000 
     41 N          -2.8744   17.6105   54.3291 N.2       2 ALA2        0.0000 
     42 CA         -3.1377   16.4389   52.5803 C.3       4 GLY6        0.0000 
     43 NZ          3.2523   20.1019   58.1705 N.2       3 LYS4        0.0000 
     44 NZ          4.1298   19.1956   57.3589 N.2       3 LYS4        0.0000 
     45 NZ          1.2341   20.7431   58.0449 N.2       3 LYS4        0.0000 
     46 NZ          2.1115   19.8367   57.2333 N.2       3 LYS4        0.0000 
     47 DU          2.9890   18.9304   56.4217 H         5 CUB7        0.0000 
     48 CA          0.0933   20.4779   57.1077 C.3       4 GLY6        0.0000 
     49 DU          0.9708   19.5715   56.2961 H         5 CUB7        0.0000 
     50 DU          1.8482   18.6652   55.4846 H         5 CUB7        0.0000 
     51 CA         -1.0475   20.2127   56.1705 C.3       4 GLY6        0.0000 
     52 DU         -0.1700   19.3063   55.3590 H         5 CUB7        0.0000 
     53 DU          0.7074   18.4000   54.5474 H         5 CUB7        0.0000 
     54 CA         -2.1882   19.9475   55.2334 C.3       4 GLY6        0.0000 
     55 N          -1.3108   19.0411   54.4218 N.2       2 ALA2        0.0000 
     56 N          -0.4334   18.1348   53.6102 N.2       2 ALA2        0.0000 
     57 N          -3.3290   19.6822   54.2962 N.2       2 ALA2        0.0000 
     58 DU         -2.4516   18.7759   53.4846 H         5 CUB7        0.0000 
     59 N          -1.5742   17.8696   52.6731 N.2       2 ALA2        0.0000 
     60 CA         -3.5924   18.5107   52.5475 C.3       4 GLY6        0.0000 
     61 NZ          2.5343   21.0022   56.3889 N.2       3 LYS4        0.0000 
     62 DU          3.4117   20.0958   55.5773 H         5 CUB7        0.0000 
     63 CA          0.5161   21.6433   56.2633 C.3       4 GLY6        0.0000 
     64 CA          1.3935   20.7369   55.4517 C.3       4 GLY6        0.0000 
     65 CA          2.2710   19.8306   54.6401 C.3       4 GLY6        0.0000 
     66 CA         -0.6247   21.3781   55.3261 C.3       4 GLY6        0.0000 
     67 CA          0.2527   20.4717   54.5145 C.3       4 GLY6        0.0000 
     68 CA          1.1302   19.5654   53.7030 C.3       4 GLY6        0.0000 
     69 CA         -1.7655   21.1129   54.3890 C.3       4 GLY6        0.0000 
     70 CA         -0.8880   20.2065   53.5774 C.3       4 GLY6        0.0000 
     71 DU         -0.0106   19.3002   52.7658 H         5 CUB7        0.0000 
     72 N          -2.9063   20.8477   53.4518 N.2       2 ALA2        0.0000 
     73 DU         -2.0288   19.9413   52.6402 H         5 CUB7        0.0000 
     74 DU         -1.1514   19.0350   51.8286 H         5 CUB7        0.0000 
     75 N          -4.0470   20.5825   52.5146 N.2       2 ALA2        0.0000 
     76 DU         -3.1696   19.6761   51.7031 H         5 CUB7        0.0000 
     77 N          -5.1878   20.3172   51.5775 N.2       2 ALA2        0.0000 
     78 N           0.4122   20.4656   51.9214 N.2       2 ALA2        0.0000 
     79 CA         -1.6061   21.1067   51.7958 C.3       4 GLY6        0.0000 
     80 N          -3.6243   21.7479   51.6702 N.2       2 ALA2        0.0000 
     81 DU         -2.7468   20.8415   50.8586 H         5 CUB7        0.0000 
@<TRIPOS>BOND
@<TRIPOS>SUBSTRUCTURE
     1 SER1        1 GROUP   
     2 ALA2        2 GROUP   
     3 LYS4        3 GROUP   
     4 GLY6        7 GROUP   
     5 CUB7       17 GROUP   
@<TRIPOS>SET

