#    Name: 4hg0_AMP_1_INTS_M
#    Modification time : Tue Mar 25 00:59:25 2014

@<TRIPOS>MOLECULE
4hg0_AMP_1_INTS_M
   44     0     9     0     0
SMALL
NO_CHARGES


@<TRIPOS>ATOM
      1 N           2.5400   13.1410   59.8990 N.am      2 SEC2        0.0000 
      2 N           1.9040   14.1680   59.2530 N.am      8 SEL2        0.0000 
      3 N           3.1760   12.1140   60.5450 N.am      5 SEP2        0.0000 
      4 O           3.0395   20.7385   59.8055 O.2       1 ALC1        0.0000 
      5 O           3.2760   20.2240   58.2950 O.2       7 ALL1        0.0000 
      6 O           2.8030   21.2530   61.3160 O.2       4 ALP1        0.0000 
      7 O           3.7605   19.8675   59.5975 O.2       1 ALC1        0.0000 
      8 O           4.2450   19.5110   60.9000 O.2       4 ALP1        0.0000 
      9 CA         -0.0420   21.4630   57.7930 C.3       3 GLC5        0.0000 
     10 CA          0.9550   19.7250   57.9070 C.3       9 GLL5        0.0000 
     11 CA         -1.0390   23.2010   57.6790 C.3       6 GLP5        0.0000 
     12 O           1.8795   22.0995   57.6925 O.2       1 ALC1        0.0000 
     13 O           1.0060   20.9260   57.1650 O.2       7 ALL1        0.0000 
     14 O           2.7530   23.2730   58.2200 O.2       4 ALP1        0.0000 
     15 CA         -5.0670   15.9230   57.3375 C.3       3 GLC5        0.0000 
     16 CA         -3.9220   16.5350   58.7830 C.3       9 GLL5        0.0000 
     17 CA         -6.2120   15.3110   55.8920 C.3       6 GLP5        0.0000 
     18 CA         -5.2670   16.3780   60.5030 C.3       3 GLC5        0.0000 
     19 CA         -6.6120   16.2210   62.2230 C.3       6 GLP5        0.0000 
     20 CA         -4.3930   18.1555   59.8965 C.3       3 GLC5        0.0000 
     21 CA         -4.8640   19.7760   61.0100 C.3       6 GLP5        0.0000 
     22 O          -5.6710   15.5150   59.1040 O.2       1 ALC1        0.0000 
     23 O          -4.4740   15.5710   59.5550 O.2       7 ALL1        0.0000 
     24 O          -6.8680   15.4590   58.6530 O.2       4 ALP1        0.0000 
     25 O          -3.6070   15.0280   60.5730 O.2       1 ALC1        0.0000 
     26 O          -2.7400   14.4850   61.5910 O.2       4 ALP1        0.0000 
     27 N          -5.9300   17.4675   57.3330 N.am      2 SEC2        0.0000 
     28 N          -4.7030   17.3990   58.1010 N.am      8 SEL2        0.0000 
     29 N          -7.1570   17.5360   56.5650 N.am      5 SEP2        0.0000 
     30 CA         -4.4635   20.4440   57.1185 C.3       3 GLC5        0.0000 
     31 CA         -4.1860   18.3690   57.3230 C.3       9 GLL5        0.0000 
     32 CA         -4.7410   22.5190   56.9140 C.3       6 GLP5        0.0000 
     33 CA         -5.9365   19.1230   57.0990 C.3       3 GLC5        0.0000 
     34 CA         -7.6870   19.8770   56.8750 C.3       6 GLP5        0.0000 
     35 CA         -4.7725   17.2360   56.1015 C.3       3 GLC5        0.0000 
     36 CA         -5.3590   16.1030   54.8800 C.3       6 GLP5        0.0000 
     37 CA         -4.5250   19.0725   59.1665 C.3       3 GLC5        0.0000 
     38 CA          1.1612   19.9130   60.1298 C.3       3 GLC5        0.0000 
     39 CA          0.6810   20.3850   62.1750 C.3       6 GLP5        0.0000 
     40 CA         -2.4497   16.9947   60.5540 C.3       3 GLC5        0.0000 
     41 CA         -2.4470   16.6780   58.6530 C.3       9 GLL5        0.0000 
     42 CA         -1.7150   17.3830   62.3900 C.3       6 GLP5        0.0000 
     43 CA         -2.3674   15.7391   57.2682 C.3       3 GLC5        0.0000 
     44 CA         -2.1680   14.2950   56.2820 C.3       6 GLP5        0.0000 
@<TRIPOS>BOND
@<TRIPOS>SUBSTRUCTURE
     1 ALC1        4 GROUP        1 X    ALC  0     ROOT ALC X 1
     2 SEC2        1 GROUP        1 X    SEC  0     **** SEC X 2
     3 GLC5        9 GROUP        1 X    GLC  0     **** GLC X 6
     4 ALP1        6 GROUP        1 Y    ALP  0     ROOT ALP Y 8
     5 SEP2        3 GROUP        1 Y    SEP  0     **** SEP Y 9
     6 GLP5       11 GROUP        1 Y    GLP  0     **** GLP Y 13
     7 ALL1        5 GROUP        1 Z    ALL  0     ROOT ALL Z 15
     8 SEL2        2 GROUP        1 Z    SEL  0     **** SEL Z 16
     9 GLL5       10 GROUP        1 Z    GLL  0     **** GLL Z 20
@<TRIPOS>SET

