#    Name: 4hg0_AMP_1_ligand
#    Modification time : Tue Mar 25 00:59:25 2014

@<TRIPOS>MOLECULE
4hg0_AMP_1_ligand
   35    37     1     0     0
SMALL
NO_CHARGES


@<TRIPOS>ATOM
      1 P           2.8490   14.6050   58.1550 P.3       1 AMP301      0.0000 
      2 O1P         1.9040   14.1680   59.2530 O.co2     1 AMP301      0.0000 
      3 O2P         4.2670   14.1260   58.3460 O.co2     1 AMP301      0.0000 
      4 O3P         2.3340   14.4250   56.7420 O.co2     1 AMP301      0.0000 
      5 O5'         2.9080   16.1870   58.3740 O.3       1 AMP301      0.0000 
      6 C5'         3.5080   17.0500   57.4080 C.3       1 AMP301      0.0000 
      7 C4'         2.6460   18.2530   57.0810 C.3       1 AMP301      0.0000 
      8 O4'         1.3690   17.7990   56.5680 O.3       1 AMP301      0.0000 
      9 C3'         2.3280   19.1570   58.2620 C.3       1 AMP301      0.0000 
     10 O3'         3.2760   20.2240   58.2950 O.3       1 AMP301      0.0000 
     11 C2'         0.9550   19.7250   57.9070 C.3       1 AMP301      0.0000 
     12 O2'         1.0060   20.9260   57.1650 O.3       1 AMP301      0.0000 
     13 C1'         0.3130   18.5850   57.1020 C.3       1 AMP301      0.0000 
     14 N9         -0.6130   17.7110   57.8390 N.pl3     1 AMP301      0.0000 
     15 C8         -0.2680   16.6840   58.6380 C.2       1 AMP301      0.0000 
     16 N7         -1.3590   16.0510   59.1470 N.2       1 AMP301      0.0000 
     17 C5         -2.4470   16.6780   58.6530 C.ar      1 AMP301      0.0000 
     18 C6         -3.9220   16.5350   58.7830 C.ar      1 AMP301      0.0000 
     19 N6         -4.4740   15.5710   59.5550 N.pl3     1 AMP301      0.0000 
     20 N1         -4.7030   17.3990   58.1010 N.ar      1 AMP301      0.0000 
     21 C2         -4.1860   18.3690   57.3230 C.ar      1 AMP301      0.0000 
     22 N3         -2.8620   18.5480   57.1670 N.ar      1 AMP301      0.0000 
     23 C4         -1.9490   17.7600   57.7910 C.ar      1 AMP301      0.0000 
     24 H           3.7101   16.5114   56.4587 H         1 AMP301      0.0000 
     25 H           4.4915   17.4251   57.7604 H         1 AMP301      0.0000 
     26 H           3.1382   18.8494   56.3197 H         1 AMP301      0.0000 
     27 H           2.2633   18.5989   59.1279 H         1 AMP301      0.0000 
     28 H           0.3946   19.8050   58.8247 H         1 AMP301      0.0000 
     29 H          -0.2266   19.0566   56.2615 H         1 AMP301      0.0000 
     30 H           0.6606   16.4170   58.8351 H         1 AMP301      0.0000 
     31 H          -5.4728   15.5221   59.5509 H         1 AMP301      0.0000 
     32 H          -3.8343   14.9927   60.0614 H         1 AMP301      0.0000 
     33 H          -4.8517   19.0193   56.8117 H         1 AMP301      0.0000 
     34 H           3.3587   20.4667   59.2615 H         1 AMP301      0.0000 
     35 H           1.6372   21.5151   57.6695 H         1 AMP301      0.0000 
@<TRIPOS>BOND
     1    2    1 ar   
     2    3    1 ar   
     3    4    1 ar   
     4    5    1 1    
     5    6    5 1    
     6    7    6 1    
     7   24    6 1    
     8   25    6 1    
     9    8    7 1    
    10    9    7 1    
    11   26    7 1    
    12   13    8 1    
    13   10    9 1    
    14   11    9 1    
    15   27    9 1    
    16   34   10 1    
    17   12   11 1    
    18   13   11 1    
    19   28   11 1    
    20   35   12 1    
    21   14   13 1    
    22   29   13 1    
    23   15   14 1    
    24   23   14 1    
    25   16   15 2    
    26   30   15 1    
    27   17   16 1    
    28   18   17 ar   
    29   23   17 ar   
    30   19   18 1    
    31   20   18 ar   
    32   31   19 1    
    33   32   19 1    
    34   21   20 ar   
    35   22   21 ar   
    36   33   21 1    
    37   23   22 ar   
@<TRIPOS>SUBSTRUCTURE
     1 AMP301      1 GROUP   
@<TRIPOS>SET

