#    Name: 3hvh_542_1_INTS_M
#    Modification time : Tue Mar 25 15:11:13 2014

@<TRIPOS>MOLECULE
3hvh_542_1_INTS_M
  119     0    12     0     0
SMALL
NO_CHARGES


@<TRIPOS>ATOM
      1 CA          3.2650    8.2865   16.2435 C.3       4 GLC5        0.0000 
      2 CA          1.3680    8.5560   16.2460 C.3      12 GLL5        0.0000 
      3 CA          5.1620    8.0170   16.2410 C.3       8 GLP5        0.0000 
      4 CA          0.6325   10.0675   13.8825 C.3       4 GLC5        0.0000 
      5 CA          1.3730    9.8150   15.5940 C.3      12 GLL5        0.0000 
      6 CA         -0.1080   10.3200   12.1710 C.3       8 GLP5        0.0000 
      7 CA          3.1465    9.9425   15.2145 C.3       4 GLC5        0.0000 
      8 CA          4.9200   10.0700   14.8350 C.3       8 GLP5        0.0000 
      9 CA         -1.0515   11.3670   13.9115 C.3       4 GLC5        0.0000 
     10 CA         -0.7000   12.8170   15.0070 C.3      12 GLL5        0.0000 
     11 CA         -1.4030    9.9170   12.8160 C.3       8 GLP5        0.0000 
     12 CA          3.3305   11.3700   14.8185 C.3       4 GLC5        0.0000 
     13 CA          1.7410   12.6700   14.8020 C.3      12 GLL5        0.0000 
     14 Zn          2.7495   15.1675   12.9530 Zn        3 ZIC7        0.0000 
     15 Zn          2.9330   14.4370   13.6730 Zn       11 ZIL7        0.0000 
     16 Zn          2.5660   15.8980   12.2330 Zn        7 ZIP7        0.0000 
     17 N           3.0265   13.5320   12.6215 N.am      2 SEC2        0.0000 
     18 N           2.9330   14.4370   13.6730 N.am     10 SEL2        0.0000 
     19 N           3.1200   12.6270   11.5700 N.am      6 SEP2        0.0000 
     20 O           3.6955   14.3700   14.6505 O.2       1 ALC1        0.0000 
     21 O           2.9330   14.4370   13.6730 O.2       9 ALL1        0.0000 
     22 O           4.4580   14.3030   15.6280 O.2       5 ALP1        0.0000 
     23 Zn          1.6090   15.8130   12.6900 Zn        3 ZIC7        0.0000 
     24 Zn          0.6520   15.7280   13.1470 Zn       11 ZIL7        0.0000 
     25 N          -0.0970   15.6660   11.9205 N.am      2 SEC2        0.0000 
     26 N           0.6520   15.7280   13.1470 N.am     10 SEL2        0.0000 
     27 N          -0.8460   15.6040   10.6940 N.am      6 SEP2        0.0000 
     28 CA         -0.4040   12.1980   13.2635 C.3       4 GLC5        0.0000 
     29 CA         -0.7000   14.0760   14.3560 C.3      12 GLL5        0.0000 
     30 CA         -2.1020   16.6675   15.4465 C.3       4 GLC5        0.0000 
     31 CA         -3.1650   16.7910   13.7320 C.3      12 GLL5        0.0000 
     32 CA         -1.0390   16.5440   17.1610 C.3       8 GLP5        0.0000 
     33 CA         -4.6760   16.7040   13.7970 C.3       4 GLC5        0.0000 
     34 CA         -6.1870   16.6170   13.8620 C.3       8 GLP5        0.0000 
     35 CA         -2.3260   15.5305   12.2605 C.3       4 GLC5        0.0000 
     36 CA         -1.4870   14.2700   10.7890 C.3       8 GLP5        0.0000 
     37 CA         -2.5740   21.9430   12.9770 C.3       4 GLC5        0.0000 
     38 CA         -3.2560   20.5670   14.5080 C.3      12 GLL5        0.0000 
     39 CA         -1.8920   23.3190   11.4460 C.3       8 GLP5        0.0000 
     40 CA         -2.3390   21.1595   17.3725 C.3       4 GLC5        0.0000 
     41 CA         -3.8830   21.1510   15.7700 C.3      12 GLL5        0.0000 
     42 CA         -0.7950   21.1680   18.9750 C.3       8 GLP5        0.0000 
     43 CA         -3.9145   22.1925   17.5420 C.3       4 GLC5        0.0000 
     44 CA         -3.9460   23.2340   19.3140 C.3       8 GLP5        0.0000 
     45 O          -3.0810   23.4795   15.6000 O.2       1 ALC1        0.0000 
     46 O          -3.1280   22.2950   16.2230 O.2       9 ALL1        0.0000 
     47 O          -3.0340   24.6640   14.9770 O.2       5 ALP1        0.0000 
     48 O          -4.0540   23.6135   16.0870 O.2       1 ALC1        0.0000 
     49 O          -4.9800   24.9320   15.9510 O.2       5 ALP1        0.0000 
     50 CA         -6.4255   19.8910   15.4600 C.3       4 GLC5        0.0000 
     51 CA         -5.2430   21.5670   15.2120 C.3      12 GLL5        0.0000 
     52 CA         -7.6080   18.2150   15.7080 C.3       8 GLP5        0.0000 
     53 O          -5.4680   23.7345   15.9750 O.2       1 ALC1        0.0000 
     54 O          -5.9560   22.5370   15.9990 O.2       9 ALL1        0.0000 
     55 CA         -3.4080   22.7260   12.6560 C.3       4 GLC5        0.0000 
     56 CA         -4.9240   22.1330   13.8660 C.3      12 GLL5        0.0000 
     57 CA         -6.8635   23.1365   14.0225 C.3       4 GLC5        0.0000 
     58 CA         -8.8030   24.1400   14.1790 C.3       8 GLP5        0.0000 
     59 CA         -4.4860   21.3825   11.8295 C.3       4 GLC5        0.0000 
     60 CA         -4.0480   20.6320    9.7930 C.3       8 GLP5        0.0000 
     61 CA         -7.5805   23.5080   13.0465 C.3       4 GLC5        0.0000 
     62 CA         -6.3580   22.8760   11.9140 C.3      12 GLL5        0.0000 
     63 N          -6.3900   25.3220   12.8060 N.am      2 SEC2        0.0000 
     64 N          -6.0040   24.1750   11.8440 N.am     10 SEL2        0.0000 
     65 N          -6.7760   26.4690   13.7680 N.am      6 SEP2        0.0000 
     66 CA         -5.5335   26.0110   12.0305 C.3       4 GLC5        0.0000 
     67 CA         -6.5530   24.8070   10.8150 C.3      12 GLL5        0.0000 
     68 CA         -4.5140   27.2150   13.2460 C.3       8 GLP5        0.0000 
     69 CA         -7.7745   25.1495   12.1740 C.3       4 GLC5        0.0000 
     70 CA         -8.9960   25.4920   13.5330 C.3       8 GLP5        0.0000 
     71 CA         -8.2950   25.7465   10.3730 C.3       4 GLC5        0.0000 
     72 CA        -10.0370   26.6860    9.9310 C.3       8 GLP5        0.0000 
     73 N          -8.0735   25.1790    8.9645 N.am      2 SEC2        0.0000 
     74 N          -7.4130   24.2760    9.9260 N.am     10 SEL2        0.0000 
     75 N          -8.7340   26.0820    8.0030 N.am      6 SEP2        0.0000 
     76 CA         -8.8985   24.8505    9.9905 C.3       4 GLC5        0.0000 
     77 CA         -7.7600   23.0150   10.0500 C.3      12 GLL5        0.0000 
     78 CA         -7.5595   24.0230    8.1960 C.3       4 GLC5        0.0000 
     79 CA         -7.3590   25.0310    6.3420 C.3       8 GLP5        0.0000 
     80 CA         -6.6505   22.0415    8.8865 C.3       4 GLC5        0.0000 
     81 CA         -5.5410   21.0680    7.7230 C.3       8 GLP5        0.0000 
     82 O          -8.3540   23.1870    7.8220 O.2       1 ALC1        0.0000 
     83 O          -8.6530   22.5580    9.0920 O.2       9 ALL1        0.0000 
     84 O          -8.0550   23.8160    6.5520 O.2       5 ALP1        0.0000 
     85 O         -10.0160   23.0275    8.2540 O.2       1 ALC1        0.0000 
     86 O         -11.3790   23.4970    7.4160 O.2       5 ALP1        0.0000 
     87 CA         -7.3390   21.1245    8.4070 C.3       4 GLC5        0.0000 
     88 CA         -9.1370   21.1810    9.0910 C.3      12 GLL5        0.0000 
     89 CA         -9.0405   19.8100   10.7260 C.3       4 GLC5        0.0000 
     90 CA         -8.9440   18.4390   12.3610 C.3       8 GLP5        0.0000 
     91 CA         -9.3590   19.6110    8.3150 C.3       4 GLC5        0.0000 
     92 CA         -9.5810   18.0410    7.5390 C.3       8 GLP5        0.0000 
     93 CA         -0.6807   10.3080   14.6388 C.3       4 GLC5        0.0000 
     94 CA          0.5040   10.8360   15.9690 C.3      12 GLL5        0.0000 
     95 CA          1.7432    7.9052   14.5340 C.3       4 GLC5        0.0000 
     96 CA          2.1160    6.6250   13.1480 C.3       8 GLP5        0.0000 
     97 CA          1.3323   14.1107   16.2880 C.3       4 GLC5        0.0000 
     98 CA          0.5080   12.1470   15.3060 C.3      12 GLL5        0.0000 
     99 CA          1.5400   15.8130   17.5220 C.3       8 GLP5        0.0000 
    100 CA         -0.8695   14.9953   15.9213 C.3       4 GLC5        0.0000 
    101 CA          1.3422   15.0282   15.7710 C.3       4 GLC5        0.0000 
    102 CA          0.5420   14.5840   13.8960 C.3      12 GLL5        0.0000 
    103 CA          0.6639   11.7379   13.3850 C.3       4 GLC5        0.0000 
    104 CA          1.7470   13.9030   14.1440 C.3      12 GLL5        0.0000 
    105 CA         -0.7830   14.3000   12.4575 C.3       4 GLC5        0.0000 
    106 CA         -3.1237   18.4592   12.0592 C.3       4 GLC5        0.0000 
    107 CA         -3.2590   19.4070   10.3310 C.3       8 GLP5        0.0000 
    108 CA         -2.5732   18.3537   15.8442 C.3       4 GLC5        0.0000 
    109 CA         -2.8120   18.2320   13.8430 C.3      12 GLL5        0.0000 
    110 CA         -1.9390   18.0260   17.5700 C.3       8 GLP5        0.0000 
    111 CA         -4.5237   17.6717   14.6672 C.3       4 GLC5        0.0000 
    112 CA         -3.6030   19.1310   14.3940 C.3      12 GLL5        0.0000 
    113 CA         -5.8400   16.6620   15.2160 C.3       8 GLP5        0.0000 
    114 CA         -3.3442   19.6280   12.3910 C.3       4 GLC5        0.0000 
    115 CA         -2.7542   19.4425   16.3545 C.3       4 GLC5        0.0000 
    116 CA         -5.4197   21.5898   10.6427 C.3       4 GLC5        0.0000 
    117 CA         -8.6378   22.7330   12.0057 C.3       4 GLC5        0.0000 
    118 CA         -7.2250   22.2190   11.0710 C.3      12 GLL5        0.0000 
    119 CA         -9.7830   22.8490   13.4510 C.3       8 GLP5        0.0000 
@<TRIPOS>BOND
@<TRIPOS>SUBSTRUCTURE
     1 ALC1       20 GROUP        1 X    ALC  0     ROOT ALC X 1
     2 SEC2       17 GROUP        1 X    SEC  0     **** SEC X 2
     3 ZIC7       14 GROUP        1 X    ZIC  0     **** ZIC X 5
     4 GLC5        1 GROUP        1 X    GLC  0     **** GLC X 6
     5 ALP1       22 GROUP        1 Y    ALP  0     ROOT ALP Y 8
     6 SEP2       19 GROUP        1 Y    SEP  0     **** SEP Y 9
     7 ZIP7       16 GROUP        1 Y    ZIP  0     **** ZIP Y 12
     8 GLP5        3 GROUP        1 Y    GLP  0     **** GLP Y 13
     9 ALL1       21 GROUP        1 Z    ALL  0     ROOT ALL Z 15
    10 SEL2       18 GROUP        1 Z    SEL  0     **** SEL Z 16
    11 ZIL7       15 GROUP        1 Z    ZIL  0     **** ZIL Z 19
    12 GLL5        2 GROUP        1 Z    GLL  0     **** GLL Z 20
@<TRIPOS>SET

