#    Name: 3hvh_542_1_ligand
#    Modification time : Tue Mar 25 15:11:13 2014

@<TRIPOS>MOLECULE
3hvh_542_1_ligand
   63    67     1     0     0
SMALL
NO_CHARGES


@<TRIPOS>ATOM
      1 F30         0.4200    7.1920   17.8970 F         1 5421        0.0000 
      2 C29         0.4370    8.3950   17.2250 C.ar      1 5421        0.0000 
      3 C26        -0.4320    9.3530   17.6260 C.ar      1 5421        0.0000 
      4 C25        -0.4210   10.5620   16.9540 C.ar      1 5421        0.0000 
      5 C28         1.3680    8.5560   16.2460 C.ar      1 5421        0.0000 
      6 C27         1.3730    9.8150   15.5940 C.ar      1 5421        0.0000 
      7 C24         0.5040   10.8360   15.9690 C.ar      1 5421        0.0000 
      8 C22         0.5080   12.1470   15.3060 C.ar      1 5421        0.0000 
      9 C21        -0.7000   12.8170   15.0070 C.ar      1 5421        0.0000 
     10 C23         1.7410   12.6700   14.8020 C.ar      1 5421        0.0000 
     11 C33         1.7470   13.9030   14.1440 C.ar      1 5421        0.0000 
     12 O34         2.9330   14.4370   13.6730 O.3       1 5421        0.0000 
     13 C31         0.5420   14.5840   13.8960 C.ar      1 5421        0.0000 
     14 O32         0.6520   15.7280   13.1470 O.3       1 5421        0.0000 
     15 C20        -0.7000   14.0760   14.3560 C.ar      1 5421        0.0000 
     16 C18        -1.9750   14.7040   14.1600 C.2       1 5421        0.0000 
     17 O19        -3.0450   14.1430   14.3680 O.2       1 5421        0.0000 
     18 N17        -1.9440   16.0300   13.8330 N.am      1 5421        0.0000 
     19 C16        -3.1650   16.7910   13.7320 C.3       1 5421        0.0000 
     20 C15        -2.8120   18.2320   13.8430 C.2       1 5421        0.0000 
     21 C14        -3.6030   19.1310   14.3940 C.2       1 5421        0.0000 
     22 C6         -3.2560   20.5670   14.5080 C.3       1 5421        0.0000 
     23 C4         -3.8830   21.1510   15.7700 C.3       1 5421        0.0000 
     24 O5         -3.1280   22.2950   16.2230 O.3       1 5421        0.0000 
     25 C2         -5.2430   21.5670   15.2120 C.3       1 5421        0.0000 
     26 O3         -5.9560   22.5370   15.9990 O.3       1 5421        0.0000 
     27 O13        -3.7730   21.3600   13.4000 O.3       1 5421        0.0000 
     28 C1         -4.9240   22.1330   13.8660 C.3       1 5421        0.0000 
     29 N10        -5.9530   21.9470   12.8430 N.pl3     1 5421        0.0000 
     30 C9         -6.5730   20.7570   12.4980 C.2       1 5421        0.0000 
     31 C11        -6.3580   22.8760   11.9140 C.ar      1 5421        0.0000 
     32 N40        -6.0040   24.1750   11.8440 N.ar      1 5421        0.0000 
     33 C39        -6.5530   24.8070   10.8150 C.ar      1 5421        0.0000 
     34 N38        -7.4130   24.2760    9.9260 N.ar      1 5421        0.0000 
     35 C35        -7.7600   23.0150   10.0500 C.ar      1 5421        0.0000 
     36 C12        -7.2250   22.2190   11.0710 C.ar      1 5421        0.0000 
     37 N8         -7.3260   20.8860   11.4400 N.2       1 5421        0.0000 
     38 N7         -8.6530   22.5580    9.0920 N.pl3     1 5421        0.0000 
     39 C36        -9.1370   21.1810    9.0910 C.3       1 5421        0.0000 
     40 H          -1.0816    9.2008   18.4000 H         1 5421        0.0000 
     41 H          -1.1325   11.2846   17.2005 H         1 5421        0.0000 
     42 H           2.0223    7.8457   15.9812 H         1 5421        0.0000 
     43 H           2.0442    9.9682   14.8205 H         1 5421        0.0000 
     44 H          -1.5967   12.3844   15.2659 H         1 5421        0.0000 
     45 H           2.5977   12.1375   14.9291 H         1 5421        0.0000 
     46 H          -1.0584   16.5209   13.6508 H         1 5421        0.0000 
     47 H          -3.8563   16.5291   14.5334 H         1 5421        0.0000 
     48 H          -3.6569   16.6158   12.7748 H         1 5421        0.0000 
     49 H          -1.8719   18.4750   13.4422 H         1 5421        0.0000 
     50 H          -4.5448   18.8828   14.7938 H         1 5421        0.0000 
     51 H          -2.1911   20.6928   14.5911 H         1 5421        0.0000 
     52 H          -4.0142   20.3955   16.4648 H         1 5421        0.0000 
     53 H          -5.8201   20.6652   15.0528 H         1 5421        0.0000 
     54 H          -4.6366   23.1531   13.9520 H         1 5421        0.0000 
     55 H          -6.4328   19.9273   13.0220 H         1 5421        0.0000 
     56 H          -6.2884   25.8521   10.6695 H         1 5421        0.0000 
     57 H          -9.0014   23.1816    8.3503 H         1 5421        0.0000 
     58 H          -8.3887   20.5244    8.9971 H         1 5421        0.0000 
     59 H          -9.6196   20.9563    9.9376 H         1 5421        0.0000 
     60 H          -9.7722   21.0112    8.3376 H         1 5421        0.0000 
     61 H           3.3828   14.8199   14.4799 H         1 5421        0.0000 
     62 H          -3.2815   22.9978   15.5284 H         1 5421        0.0000 
     63 H          -5.2630   23.1998   16.2827 H         1 5421        0.0000 
@<TRIPOS>BOND
     1    2    1 1    
     2    3    2 ar   
     3    5    2 ar   
     4    4    3 ar   
     5   40    3 1    
     6    7    4 ar   
     7   41    4 1    
     8    6    5 ar   
     9   42    5 1    
    10    7    6 ar   
    11   43    6 1    
    12    8    7 1    
    13    9    8 ar   
    14   10    8 ar   
    15   15    9 ar   
    16   44    9 1    
    17   11   10 ar   
    18   45   10 1    
    19   12   11 1    
    20   13   11 ar   
    21   61   12 1    
    22   14   13 1    
    23   15   13 ar   
    24   16   15 1    
    25   17   16 2    
    26   18   16 am   
    27   19   18 1    
    28   46   18 1    
    29   20   19 1    
    30   47   19 1    
    31   48   19 1    
    32   21   20 2    
    33   49   20 1    
    34   22   21 1    
    35   50   21 1    
    36   23   22 1    
    37   27   22 1    
    38   51   22 1    
    39   24   23 1    
    40   25   23 1    
    41   52   23 1    
    42   62   24 1    
    43   26   25 1    
    44   28   25 1    
    45   53   25 1    
    46   63   26 1    
    47   28   27 1    
    48   29   28 1    
    49   54   28 1    
    50   30   29 1    
    51   31   29 1    
    52   37   30 2    
    53   55   30 1    
    54   32   31 ar   
    55   36   31 ar   
    56   33   32 ar   
    57   34   33 ar   
    58   56   33 1    
    59   35   34 ar   
    60   36   35 ar   
    61   38   35 1    
    62   37   36 1    
    63   39   38 1    
    64   57   38 1    
    65   58   39 1    
    66   59   39 1    
    67   60   39 1    
@<TRIPOS>SUBSTRUCTURE
     1 5421        1 GROUP   
@<TRIPOS>SET

