#    Name: 3nk7_SAM_2_INTS_M
#    Modification time : Tue Mar 25 01:43:15 2014

@<TRIPOS>MOLECULE
3nk7_SAM_2_INTS_M
   77     0    12     0     0
SMALL
NO_CHARGES


@<TRIPOS>ATOM
      1 N          10.4620    9.2950    7.3545 N.am      2 SEC2        0.0000 
      2 N          10.6960    8.0700    6.6960 N.am     10 SEL2        0.0000 
      3 N          10.2280   10.5200    8.0130 N.am      6 SEP2        0.0000 
      4 NZ         12.7665    6.1750    8.3420 N.4       3 LYC4        0.0000 
      5 NZ         11.4110    6.8600    8.2000 N.4      11 LYL4        0.0000 
      6 NZ         14.5710    4.6200    7.5900 N.4       7 LYP4        0.0000 
      7 N          12.7665    6.1750    8.3420 N.am      2 SEC2        0.0000 
      8 N          11.4110    6.8600    8.2000 N.am     10 SEL2        0.0000 
      9 N          14.1220    5.4900    8.4840 N.am      6 SEP2        0.0000 
     10 CA         15.6095   11.3125    3.9635 C.3       4 GLC5        0.0000 
     11 CA         14.3400   10.5370    3.4110 C.3      12 GLL5        0.0000 
     12 CA         16.8790   12.0880    4.5160 C.3       8 GLP5        0.0000 
     13 CA         10.4800   11.3970    5.6905 C.3       4 GLC5        0.0000 
     14 CA         11.8230   11.5490    4.0050 C.3      12 GLL5        0.0000 
     15 CA          9.1370   11.2450    7.3760 C.3       8 GLP5        0.0000 
     16 CA          8.9980   11.6660    4.4245 C.3       4 GLC5        0.0000 
     17 CA         10.6490   12.1880    3.2730 C.3      12 GLL5        0.0000 
     18 CA          7.3470   11.1440    5.5760 C.3       8 GLP5        0.0000 
     19 CA          9.2875   11.8945    1.1220 C.3       4 GLC5        0.0000 
     20 CA         11.0640   12.8710    1.9680 C.3      12 GLL5        0.0000 
     21 CA          7.5110   10.9180    0.2760 C.3       8 GLP5        0.0000 
     22 N           8.9065   12.2085    0.8355 N.am      2 SEC2        0.0000 
     23 N          10.6250   12.2250    0.7900 N.am     10 SEL2        0.0000 
     24 N           7.1880   12.1920    0.8810 N.am      6 SEP2        0.0000 
     25 CA         11.2565   15.7370    0.7050 C.3       4 GLC5        0.0000 
     26 CA         10.4030   14.2270    2.0650 C.3      12 GLL5        0.0000 
     27 CA         12.1100   17.2470   -0.6550 C.3       8 GLP5        0.0000 
     28 N           8.1475   13.1325    1.2115 N.am      2 SEC2        0.0000 
     29 N           9.1070   14.0730    1.5420 N.am     10 SEL2        0.0000 
     30 O           9.3775   15.1330    0.7095 O.2       1 ALC1        0.0000 
     31 O           9.1070   14.0730    1.5420 O.2       9 ALL1        0.0000 
     32 O           9.6480   16.1930   -0.1230 O.2       5 ALP1        0.0000 
     33 CA          8.3085   15.1035    4.0715 C.3       4 GLC5        0.0000 
     34 CA         10.3210   14.4830    3.5530 C.3      12 GLL5        0.0000 
     35 CA          6.2960   15.7240    4.5900 C.3       8 GLP5        0.0000 
     36 CA          9.9755   14.9395    5.3490 C.3       4 GLC5        0.0000 
     37 CA          9.6300   15.3960    7.1450 C.3       8 GLP5        0.0000 
     38 N          14.6125   14.2465    6.0455 N.am      2 SEC2        0.0000 
     39 N          13.6430   15.1870    5.0090 N.am     10 SEL2        0.0000 
     40 N          15.5820   13.3060    7.0820 N.am      6 SEP2        0.0000 
     41 CA         12.4210   17.7375    5.8760 C.3       4 GLC5        0.0000 
     42 CA         13.3770   16.3660    4.4350 C.3      12 GLL5        0.0000 
     43 CA         11.4650   19.1090    7.3170 C.3       8 GLP5        0.0000 
     44 CA         15.4060   17.0165    2.6725 C.3       4 GLC5        0.0000 
     45 CA         14.1130   17.5430    4.3680 C.3      12 GLL5        0.0000 
     46 CA         16.6990   16.4900    0.9770 C.3       8 GLP5        0.0000 
     47 CA         13.8565   19.0270    5.4720 C.3       4 GLC5        0.0000 
     48 CA         13.6000   20.5110    6.5760 C.3       8 GLP5        0.0000 
     49 CA         16.2360   17.2460    4.5240 C.3       4 GLC5        0.0000 
     50 CA         18.3590   16.9490    4.6800 C.3       8 GLP5        0.0000 
     51 O          15.7295   19.0545    5.0725 O.2       1 ALC1        0.0000 
     52 O          15.3080   17.6250    4.9530 O.2       9 ALL1        0.0000 
     53 O          16.1510   20.4840    5.1920 O.2       5 ALP1        0.0000 
     54 N          13.6140   19.9600    3.9490 N.am      2 SEC2        0.0000 
     55 N          13.5920   18.6180    3.6710 N.am     10 SEL2        0.0000 
     56 N          13.6360   21.3020    4.2270 N.am      6 SEP2        0.0000 
     57 CA         10.5400   19.1135    3.3630 C.3       4 GLC5        0.0000 
     58 CA         12.3500   18.5280    3.0740 C.3      12 GLL5        0.0000 
     59 CA          8.7300   19.6990    3.6520 C.3       8 GLP5        0.0000 
     60 CA         12.2300   17.8875    1.2095 C.3       4 GLC5        0.0000 
     61 CA         12.8280   20.1565    2.4660 C.3       4 GLC5        0.0000 
     62 CA         13.3060   21.7850    1.8580 C.3       8 GLP5        0.0000 
     63 CA         12.2005   19.4565    4.8030 C.3       4 GLC5        0.0000 
     64 CA         12.0510   20.3850    6.5320 C.3       8 GLP5        0.0000 
     65 CA         10.8760   15.8395    5.4780 C.3       4 GLC5        0.0000 
     66 CA         12.1220   16.2830    3.8110 C.3      12 GLL5        0.0000 
     67 CA         12.9460    7.0850    4.9845 C.3       4 GLC5        0.0000 
     68 CA         13.1970    9.0510    5.7710 C.3      12 GLL5        0.0000 
     69 CA         12.7430    5.6890    3.6870 C.3       8 GLP5        0.0000 
     70 CA         12.7480    9.4180    7.7230 C.3       4 GLC5        0.0000 
     71 CA         13.1010    7.9110    6.7930 C.3      12 GLL5        0.0000 
     72 CA         12.3470   10.3550    9.1640 C.3       8 GLP5        0.0000 
     73 CA         12.4013    8.0512    3.1928 C.3       4 GLC5        0.0000 
     74 CA         12.3400    8.8910    4.5180 C.3      12 GLL5        0.0000 
     75 CA         12.3350    6.5940    2.5200 C.3       8 GLP5        0.0000 
     76 CA          9.3030   16.0660    2.4185 C.3       4 GLC5        0.0000 
     77 CA          8.2440   17.7770    2.0280 C.3       8 GLP5        0.0000 
@<TRIPOS>BOND
@<TRIPOS>SUBSTRUCTURE
     1 ALC1       30 GROUP        1 X    ALC  0     ROOT ALC X 1
     2 SEC2        1 GROUP        1 X    SEC  0     **** SEC X 2
     3 LYC4        4 GROUP        1 X    LYC  0     **** LYC X 4
     4 GLC5       10 GROUP        1 X    GLC  0     **** GLC X 6
     5 ALP1       32 GROUP        1 Y    ALP  0     ROOT ALP Y 8
     6 SEP2        3 GROUP        1 Y    SEP  0     **** SEP Y 9
     7 LYP4        6 GROUP        1 Y    LYP  0     **** LYP Y 11
     8 GLP5       12 GROUP        1 Y    GLP  0     **** GLP Y 13
     9 ALL1       31 GROUP        1 Z    ALL  0     ROOT ALL Z 15
    10 SEL2        2 GROUP        1 Z    SEL  0     **** SEL Z 16
    11 LYL4        5 GROUP        1 Z    LYL  0     **** LYL Z 18
    12 GLL5       11 GROUP        1 Z    GLL  0     **** GLL Z 20
@<TRIPOS>SET

