#    Name: 3nk7_SAM_2_ligand
#    Modification time : Tue Mar 25 01:43:15 2014

@<TRIPOS>MOLECULE
3nk7_SAM_2_ligand
   50    52     1     0     0
SMALL
NO_CHARGES


@<TRIPOS>ATOM
      1 N          13.7680    6.7320    6.2590 N.4       1 SAM770      0.0000 
      2 CA         13.1010    7.9110    6.7930 C.3       1 SAM770      0.0000 
      3 C          11.6660    7.5970    7.2500 C.2       1 SAM770      0.0000 
      4 O          10.6960    8.0700    6.6960 O.co2     1 SAM770      0.0000 
      5 OXT        11.4110    6.8600    8.2000 O.co2     1 SAM770      0.0000 
      6 CB         13.1970    9.0510    5.7710 C.3       1 SAM770      0.0000 
      7 CG         12.3400    8.8910    4.5180 C.3       1 SAM770      0.0000 
      8 SD         12.5950   10.1260    3.2130 S.3       1 SAM770      0.0000 
      9 CE         14.3400   10.5370    3.4110 C.3       1 SAM770      0.0000 
     10 C5'        11.8230   11.5490    4.0050 C.3       1 SAM770      0.0000 
     11 C4'        10.6490   12.1880    3.2730 C.3       1 SAM770      0.0000 
     12 O4'        10.1690   13.2120    4.1380 O.3       1 SAM770      0.0000 
     13 C3'        11.0640   12.8710    1.9680 C.3       1 SAM770      0.0000 
     14 O3'        10.6250   12.2250    0.7900 O.3       1 SAM770      0.0000 
     15 C2'        10.4030   14.2270    2.0650 C.3       1 SAM770      0.0000 
     16 O2'         9.1070   14.0730    1.5420 O.3       1 SAM770      0.0000 
     17 C1'        10.3210   14.4830    3.5530 C.3       1 SAM770      0.0000 
     18 N9         11.6220   15.0260    4.0310 N.pl3     1 SAM770      0.0000 
     19 C8         12.5830   14.3620    4.7690 C.2       1 SAM770      0.0000 
     20 N7         13.6430   15.1870    5.0090 N.2       1 SAM770      0.0000 
     21 C5         13.3770   16.3660    4.4350 C.ar      1 SAM770      0.0000 
     22 C6         14.1130   17.5430    4.3680 C.ar      1 SAM770      0.0000 
     23 N6         15.3080   17.6250    4.9530 N.pl3     1 SAM770      0.0000 
     24 N1         13.5920   18.6180    3.6710 N.ar      1 SAM770      0.0000 
     25 C2         12.3500   18.5280    3.0740 C.ar      1 SAM770      0.0000 
     26 N3         11.6150   17.3540    3.1440 N.ar      1 SAM770      0.0000 
     27 C4         12.1220   16.2830    3.8110 C.ar      1 SAM770      0.0000 
     28 H          13.6621    8.2472    7.6931 H         1 SAM770      0.0000 
     29 H          14.2583    9.1639    5.4671 H         1 SAM770      0.0000 
     30 H          12.9212   10.0005    6.2747 H         1 SAM770      0.0000 
     31 H          11.2731    8.9825    4.7132 H         1 SAM770      0.0000 
     32 H          12.5242    7.9581    3.9883 H         1 SAM770      0.0000 
     33 H          12.6675   12.2300    4.1340 H         1 SAM770      0.0000 
     34 H          11.5494   11.1500    4.9846 H         1 SAM770      0.0000 
     35 H           9.9072   11.4632    3.0815 H         1 SAM770      0.0000 
     36 H          12.1230   13.0337    2.0019 H         1 SAM770      0.0000 
     37 H          10.9874   14.9371    1.6029 H         1 SAM770      0.0000 
     38 H           9.5359   15.1295    3.7648 H         1 SAM770      0.0000 
     39 H          12.5064   13.4450    5.0677 H         1 SAM770      0.0000 
     40 H          15.7586   18.5167    4.9102 H         1 SAM770      0.0000 
     41 H          15.6463   16.7874    5.3820 H         1 SAM770      0.0000 
     42 H          11.9614   19.3435    2.5686 H         1 SAM770      0.0000 
     43 H          14.7561    6.7646    6.4087 H         1 SAM770      0.0000 
     44 H          13.4344    5.8914    6.6857 H         1 SAM770      0.0000 
     45 H          13.6237    6.6379    5.2739 H         1 SAM770      0.0000 
     46 H          14.9330    9.7759    3.1481 H         1 SAM770      0.0000 
     47 H          14.6030   11.3212    2.8489 H         1 SAM770      0.0000 
     48 H          14.5620   10.7678    4.3583 H         1 SAM770      0.0000 
     49 H           9.6926   12.5564    0.6453 H         1 SAM770      0.0000 
     50 H           9.0144   14.8002    0.8619 H         1 SAM770      0.0000 
@<TRIPOS>BOND
     1    2    1 1    
     2   43    1 1    
     3   44    1 1    
     4   45    1 1    
     5    3    2 1    
     6    6    2 1    
     7   28    2 1    
     8    4    3 ar   
     9    5    3 ar   
    10    7    6 1    
    11   29    6 1    
    12   30    6 1    
    13    8    7 1    
    14   31    7 1    
    15   32    7 1    
    16    9    8 1    
    17   10    8 1    
    18   46    9 1    
    19   47    9 1    
    20   48    9 1    
    21   11   10 1    
    22   33   10 1    
    23   34   10 1    
    24   12   11 1    
    25   13   11 1    
    26   35   11 1    
    27   17   12 1    
    28   14   13 1    
    29   15   13 1    
    30   36   13 1    
    31   49   14 1    
    32   16   15 1    
    33   17   15 1    
    34   37   15 1    
    35   50   16 1    
    36   18   17 1    
    37   38   17 1    
    38   19   18 1    
    39   27   18 1    
    40   20   19 2    
    41   39   19 1    
    42   21   20 1    
    43   22   21 ar   
    44   27   21 ar   
    45   23   22 1    
    46   24   22 ar   
    47   40   23 1    
    48   41   23 1    
    49   25   24 ar   
    50   26   25 ar   
    51   42   25 1    
    52   27   26 ar   
@<TRIPOS>SUBSTRUCTURE
     1 SAM770      1 GROUP   
@<TRIPOS>SET

