#    Name: 4lol_1YE_1_INTS_M
#    Modification time : Tue Apr  8 00:06:21 2014

@<TRIPOS>MOLECULE
4lol_1YE_1_INTS_M
   59     0     9     0     0
SMALL
NO_CHARGES


@<TRIPOS>ATOM
      1 N          23.4480  -31.5625   -9.5540 N.am      1 SEC2        0.0000 
      2 N          23.1110  -30.8760  -10.6410 N.am      7 SEL2        0.0000 
      3 N          23.7850  -32.2490   -8.4670 N.am      4 SEP2        0.0000 
      4 CA         16.7415  -27.9900   -8.0315 C.3       3 GLC5        0.0000 
      5 CA         18.7060  -27.2870   -7.6810 C.3       9 GLL5        0.0000 
      6 CA         14.7770  -28.6930   -8.3820 C.3       6 GLP5        0.0000 
      7 CA         16.4435  -28.1355   -9.4780 C.3       3 GLC5        0.0000 
      8 CA         18.1100  -27.5780  -10.5740 C.3       9 GLL5        0.0000 
      9 CA         17.9120  -25.4075  -10.1285 C.3       3 GLC5        0.0000 
     10 CA         17.7140  -23.2370   -9.6830 C.3       6 GLP5        0.0000 
     11 CA         19.6215  -26.2240  -10.6400 C.3       3 GLC5        0.0000 
     12 CA         21.1330  -24.8700  -10.7060 C.3       6 GLP5        0.0000 
     13 CA         24.5330  -31.8495  -12.8370 C.3       3 GLC5        0.0000 
     14 CA         22.6710  -30.7730  -13.2930 C.3       9 GLL5        0.0000 
     15 CA         26.3950  -32.9260  -12.3810 C.3       6 GLP5        0.0000 
     16 CA         22.9330  -32.2440  -15.9420 C.3       3 GLC5        0.0000 
     17 CA         22.3480  -30.7360  -14.6200 C.3       9 GLL5        0.0000 
     18 CA         23.5180  -33.7520  -17.2640 C.3       6 GLP5        0.0000 
     19 CA         19.7385  -27.5435  -16.1240 C.3       3 GLC5        0.0000 
     20 CA         19.1550  -28.8370  -14.6250 C.3       9 GLL5        0.0000 
     21 CA         20.3220  -26.2500  -17.6230 C.3       6 GLP5        0.0000 
     22 N          21.1895  -26.5525  -13.0560 N.am      1 SEC2        0.0000 
     23 N          20.1160  -26.6510  -14.0180 N.am      7 SEL2        0.0000 
     24 N          22.2630  -26.4540  -12.0940 N.am      4 SEP2        0.0000 
     25 NZ         16.8495  -26.3650  -13.6805 N.4       2 LYC4        0.0000 
     26 NZ         17.9630  -26.7880  -14.2440 N.4       8 LYL4        0.0000 
     27 NZ         15.8350  -24.6290  -13.1950 N.4       5 LYP4        0.0000 
     28 N          16.8495  -26.3650  -13.6805 N.am      1 SEC2        0.0000 
     29 N          17.9630  -26.7880  -14.2440 N.am      7 SEL2        0.0000 
     30 N          15.7360  -25.9420  -13.1170 N.am      4 SEP2        0.0000 
     31 N          17.4800  -25.4340  -13.8860 N.am      1 SEC2        0.0000 
     32 N          16.9970  -24.0800  -13.5280 N.am      4 SEP2        0.0000 
     33 CA         21.7425  -27.7458  -10.1380 C.3       3 GLC5        0.0000 
     34 CA         21.2720  -29.5080  -10.2110 C.3       9 GLL5        0.0000 
     35 CA         22.0770  -26.0490  -10.7390 C.3       6 GLP5        0.0000 
     36 CA         21.2417  -30.4945   -7.1182 C.3       3 GLC5        0.0000 
     37 CA         21.5440  -29.3770   -8.8630 C.3       9 GLL5        0.0000 
     38 CA         21.3750  -31.9840   -5.7650 C.3       6 GLP5        0.0000 
     39 CA         22.3158  -28.6115   -7.0017 C.3       3 GLC5        0.0000 
     40 CA         23.5230  -28.2180   -5.5320 C.3       6 GLP5        0.0000 
     41 CA         19.3593  -29.9935   -8.8637 C.3       3 GLC5        0.0000 
     42 CA         20.6730  -28.6330   -8.0800 C.3       9 GLL5        0.0000 
     43 CA         18.6200  -31.6540   -9.3930 C.3       6 GLP5        0.0000 
     44 CA         21.0877  -27.1910   -9.5368 C.3       3 GLC5        0.0000 
     45 CA         19.5240  -28.0330   -8.5890 C.3       9 GLL5        0.0000 
     46 CA         18.6490  -29.7583   -9.8298 C.3       3 GLC5        0.0000 
     47 CA         19.2460  -28.1470   -9.9590 C.3       9 GLL5        0.0000 
     48 CA         20.8807  -27.2800  -10.5388 C.3       3 GLC5        0.0000 
     49 CA         19.6928  -30.4064   -9.7602 C.3       3 GLC5        0.0000 
     50 CA         20.1230  -28.8750  -10.7180 C.3       9 GLL5        0.0000 
     51 CA         21.6555  -27.9557  -11.6790 C.3       3 GLC5        0.0000 
     52 CA         20.6480  -29.5490  -12.8470 C.3       9 GLL5        0.0000 
     53 CA         22.7218  -32.3088  -12.2975 C.3       3 GLC5        0.0000 
     54 CA         21.8200  -30.1760  -12.3910 C.3       9 GLL5        0.0000 
     55 CA         23.1980  -34.1430  -11.7530 C.3       6 GLP5        0.0000 
     56 CA         24.0173  -29.4112  -12.7990 C.3       3 GLC5        0.0000 
     57 CA         25.7890  -28.3480  -12.7560 C.3       6 GLP5        0.0000 
     58 CA         22.9395  -29.7595  -16.1568 C.3       3 GLC5        0.0000 
     59 CA         24.1110  -29.1040  -17.4810 C.3       6 GLP5        0.0000 
@<TRIPOS>BOND
@<TRIPOS>SUBSTRUCTURE
     1 SEC2        1 GROUP        1 X    SEC  0     ROOT SEC X 2
     2 LYC4       25 GROUP        1 X    LYC  0     **** LYC X 4
     3 GLC5        4 GROUP        1 X    GLC  0     **** GLC X 6
     4 SEP2        3 GROUP        1 Y    SEP  0     ROOT SEP Y 9
     5 LYP4       27 GROUP        1 Y    LYP  0     **** LYP Y 11
     6 GLP5        6 GROUP        1 Y    GLP  0     **** GLP Y 13
     7 SEL2        2 GROUP        1 Z    SEL  0     ROOT SEL Z 16
     8 LYL4       26 GROUP        1 Z    LYL  0     **** LYL Z 18
     9 GLL5        5 GROUP        1 Z    GLL  0     **** GLL Z 20
@<TRIPOS>SET

