#    Name: 4lol_1YE_1_ligand
#    Modification time : Tue Apr  8 00:06:21 2014

@<TRIPOS>MOLECULE
4lol_1YE_1_ligand
   34    36     1     0     0
SMALL
NO_CHARGES


@<TRIPOS>ATOM
      1 OAD        23.1110  -30.8760  -10.6410 O.2       1 1YE401      0.0000 
      2 CAQ        22.1300  -30.2280  -11.0450 C.2       1 1YE401      0.0000 
      3 CAS        21.2720  -29.5080  -10.2110 C.ar      1 1YE401      0.0000 
      4 CAJ        21.5440  -29.3770   -8.8630 C.ar      1 1YE401      0.0000 
      5 CAH        20.6730  -28.6330   -8.0800 C.ar      1 1YE401      0.0000 
      6 CAN        19.5240  -28.0330   -8.5890 C.ar      1 1YE401      0.0000 
      7 CAA        18.7060  -27.2870   -7.6810 C.3       1 1YE401      0.0000 
      8 CAO        19.2460  -28.1470   -9.9590 C.ar      1 1YE401      0.0000 
      9 CAB        18.1100  -27.5780  -10.5740 C.3       1 1YE401      0.0000 
     10 CAT        20.1230  -28.8750  -10.7180 C.ar      1 1YE401      0.0000 
     11 OAL        19.7800  -28.9590  -12.0050 O.3       1 1YE401      0.0000 
     12 CAU        20.6480  -29.5490  -12.8470 C.ar      1 1YE401      0.0000 
     13 CAR        21.8200  -30.1760  -12.3910 C.ar      1 1YE401      0.0000 
     14 CAI        22.6710  -30.7730  -13.2930 C.ar      1 1YE401      0.0000 
     15 CAF        22.3480  -30.7360  -14.6200 C.ar      1 1YE401      0.0000 
     16 CAG        21.1880  -30.0940  -15.0450 C.ar      1 1YE401      0.0000 
     17 CAP        20.3200  -29.4760  -14.1750 C.ar      1 1YE401      0.0000 
     18 CAK        19.1550  -28.8370  -14.6250 C.3       1 1YE401      0.0000 
     19 CAM        19.0900  -27.3080  -14.2660 C.2       1 1YE401      0.0000 
     20 OAE        20.1160  -26.6510  -14.0180 O.co2     1 1YE401      0.0000 
     21 OAC        17.9630  -26.7880  -14.2440 O.co2     1 1YE401      0.0000 
     22 H          22.3666  -29.8166   -8.4495 H         1 1YE401      0.0000 
     23 H          20.8875  -28.5162   -7.0602 H         1 1YE401      0.0000 
     24 H          23.5279  -31.2345  -12.9713 H         1 1YE401      0.0000 
     25 H          22.9616  -31.1844  -15.3224 H         1 1YE401      0.0000 
     26 H          20.9733  -30.0850  -16.0720 H         1 1YE401      0.0000 
     27 H          18.2301  -29.2884  -14.2016 H         1 1YE401      0.0000 
     28 H          19.0361  -28.8953  -15.7299 H         1 1YE401      0.0000 
     29 H          19.2072  -26.5261   -7.2690 H         1 1YE401      0.0000 
     30 H          17.9051  -26.8981   -8.1364 H         1 1YE401      0.0000 
     31 H          18.3691  -27.8563   -6.9311 H         1 1YE401      0.0000 
     32 H          18.0897  -26.5837  -10.4690 H         1 1YE401      0.0000 
     33 H          18.0836  -27.7698  -11.5551 H         1 1YE401      0.0000 
     34 H          17.2600  -27.9314  -10.1833 H         1 1YE401      0.0000 
@<TRIPOS>BOND
     1    2    1 2    
     2    3    2 1    
     3   13    2 1    
     4    4    3 ar   
     5   10    3 ar   
     6    5    4 ar   
     7   22    4 1    
     8    6    5 ar   
     9   23    5 1    
    10    7    6 1    
    11    8    6 ar   
    12   29    7 1    
    13   30    7 1    
    14   31    7 1    
    15    9    8 1    
    16   10    8 ar   
    17   32    9 1    
    18   33    9 1    
    19   34    9 1    
    20   11   10 1    
    21   12   11 1    
    22   13   12 ar   
    23   17   12 ar   
    24   14   13 ar   
    25   15   14 ar   
    26   24   14 1    
    27   16   15 ar   
    28   25   15 1    
    29   17   16 ar   
    30   26   16 1    
    31   18   17 1    
    32   19   18 1    
    33   27   18 1    
    34   28   18 1    
    35   20   19 ar   
    36   21   19 ar   
@<TRIPOS>SUBSTRUCTURE
     1 1YE401      1 GROUP   
@<TRIPOS>SET

