#    Name: 3vmm_P0D_1_INTS_M
#    Modification time : Tue Mar 25 01:10:25 2014

@<TRIPOS>MOLECULE
3vmm_P0D_1_INTS_M
   51     0    18     0     0
SMALL
NO_CHARGES


@<TRIPOS>ATOM
      1 NZ          2.0190  -46.8655  -10.1880 N.4       4 LYC4        0.0000 
      2 NZ          1.3450  -48.6950   -9.8180 N.4      16 LYL4        0.0000 
      3 NZ          2.6930  -45.0360  -10.5580 N.4      10 LYP4        0.0000 
      4 N           1.8970  -49.5475  -10.8130 N.am      2 SEC2        0.0000 
      5 N           1.3450  -48.6950   -9.8180 N.am     14 SEL2        0.0000 
      6 N           2.4490  -50.4000  -11.8080 N.am      8 SEP2        0.0000 
      7 N           0.3925  -46.0995  -11.2125 N.am      2 SEC2        0.0000 
      8 N          -1.2420  -46.4630  -10.9640 N.am     14 SEL2        0.0000 
      9 N           2.0270  -45.7360  -11.4610 N.am      8 SEP2        0.0000 
     10 N          -1.1525  -47.4125  -12.0715 N.am      2 SEC2        0.0000 
     11 N          -1.0630  -48.3620  -13.1790 N.am      8 SEP2        0.0000 
     12 CA         -4.5935  -48.6015  -10.6855 C.3       6 GLC5        0.0000 
     13 CA         -4.1840  -46.7440  -10.7830 C.3      18 GLL5        0.0000 
     14 CA         -5.0030  -50.4590  -10.5880 C.3      12 GLP5        0.0000 
     15 CA         -4.6060  -46.8500  -12.5965 C.3       6 GLC5        0.0000 
     16 CA         -5.0280  -46.9560  -14.4100 C.3      12 GLP5        0.0000 
     17 OD1        -4.4165  -43.0250  -10.3805 O.co2     3 ASC3        0.0000 
     18 OD1        -3.7840  -44.3690  -10.3950 O.co2    15 ASL3        0.0000 
     19 OD1        -5.0490  -41.6810  -10.3660 O.co2     9 ASP3        0.0000 
     20 O          -5.0960  -44.6950   -9.7905 O.2       1 ALC1        0.0000 
     21 O          -3.7840  -44.3690  -10.3950 O.2      13 ALL1        0.0000 
     22 O          -6.4080  -45.0210   -9.1860 O.2       7 ALP1        0.0000 
     23 O          -3.1160  -43.9785  -11.6425 O.2       1 ALC1        0.0000 
     24 O          -2.4480  -43.5880  -12.8900 O.2       7 ALP1        0.0000 
     25 N           0.5230  -44.5260   -9.4025 N.am      2 SEC2        0.0000 
     26 N          -0.9940  -44.7390   -9.1490 N.am     14 SEL2        0.0000 
     27 N           2.0400  -44.3130   -9.6560 N.am      8 SEP2        0.0000 
     28 N          -1.7015  -45.0150   -5.5850 N.am      2 SEC2        0.0000 
     29 N          -1.9830  -44.7910   -6.8920 N.am     14 SEL2        0.0000 
     30 N          -1.4200  -45.2390   -4.2780 N.am      8 SEP2        0.0000 
     31 N           0.0410  -41.6945   -7.4490 N.am      2 SEC2        0.0000 
     32 N          -0.3210  -42.9710   -7.4460 N.am     14 SEL2        0.0000 
     33 N           0.4030  -40.4180   -7.4520 N.am      8 SEP2        0.0000 
     34 Zn         -2.7335  -42.0820   -8.1670 Zn        5 ZIC7        0.0000 
     35 Zn         -2.5930  -42.9990   -8.5730 Zn       17 ZIL7        0.0000 
     36 Zn         -2.8740  -41.1650   -7.7610 Zn       11 ZIP7        0.0000 
     37 CA         -1.1340  -47.8860   -5.1115 C.3       6 GLC5        0.0000 
     38 CA         -0.0360  -48.3860   -6.8150 C.3      18 GLL5        0.0000 
     39 CA         -2.2320  -47.3860   -3.4080 C.3      12 GLP5        0.0000 
     40 CA          2.3893  -50.1430   -8.1082 C.3       6 GLC5        0.0000 
     41 CA          2.4830  -48.4540   -6.5450 C.3      18 GLL5        0.0000 
     42 CA          2.9110  -51.5080   -9.7170 C.3      12 GLP5        0.0000 
     43 CA          4.1285  -47.1568   -6.9230 C.3       6 GLC5        0.0000 
     44 CA          5.1970  -45.5750   -7.5600 C.3      12 GLP5        0.0000 
     45 CA          1.4617  -46.7985   -5.7334 C.3       6 GLC5        0.0000 
     46 CA          1.3780  -44.9980   -4.8770 C.3      12 GLP5        0.0000 
     47 CA          3.5710  -52.2687   -5.8502 C.3       6 GLC5        0.0000 
     48 CA          3.5780  -50.2620   -5.4010 C.3      18 GLL5        0.0000 
     49 CA          4.1740  -53.9460   -6.3520 C.3      12 GLP5        0.0000 
     50 CA          2.3462  -51.0695   -7.6353 C.3       6 GLC5        0.0000 
     51 CA          2.3580  -50.9210   -5.2960 C.3      18 GLL5        0.0000 
@<TRIPOS>BOND
@<TRIPOS>SUBSTRUCTURE
     1 ALC1       20 GROUP        1 X    ALC  0     ROOT ALC X 1
     2 SEC2        4 GROUP        1 X    SEC  0     **** SEC X 2
     3 ASC3       17 GROUP        1 X    ASC  0     **** ASC X 3
     4 LYC4        1 GROUP        1 X    LYC  0     **** LYC X 4
     5 ZIC7       34 GROUP        1 X    ZIC  0     **** ZIC X 5
     6 GLC5       12 GROUP        1 X    GLC  0     **** GLC X 6
     7 ALP1       22 GROUP        1 Y    ALP  0     ROOT ALP Y 8
     8 SEP2        6 GROUP        1 Y    SEP  0     **** SEP Y 9
     9 ASP3       19 GROUP        1 Y    ASP  0     **** ASP Y 10
    10 LYP4        3 GROUP        1 Y    LYP  0     **** LYP Y 11
    11 ZIP7       36 GROUP        1 Y    ZIP  0     **** ZIP Y 12
    12 GLP5       14 GROUP        1 Y    GLP  0     **** GLP Y 13
    13 ALL1       21 GROUP        1 Z    ALL  0     ROOT ALL Z 15
    14 SEL2        5 GROUP        1 Z    SEL  0     **** SEL Z 16
    15 ASL3       18 GROUP        1 Z    ASL  0     **** ASL Z 17
    16 LYL4        2 GROUP        1 Z    LYL  0     **** LYL Z 18
    17 ZIL7       35 GROUP        1 Z    ZIL  0     **** ZIL Z 19
    18 GLL5       13 GROUP        1 Z    GLL  0     **** GLL Z 20
@<TRIPOS>SET

