#    Name: 3vmm_P0D_1_ligand
#    Modification time : Tue Mar 25 01:10:25 2014

@<TRIPOS>MOLECULE
3vmm_P0D_1_ligand
   39    39     1     0     0
SMALL
NO_CHARGES


@<TRIPOS>ATOM
      1 O2         -0.4710  -49.9000   -9.4050 O.co2     1 P0D504      0.0000 
      2 C           0.2560  -48.8780   -9.2150 C.2       1 P0D504      0.0000 
      3 O1          1.3450  -48.6950   -9.8180 O.co2     1 P0D504      0.0000 
      4 C2'        -0.1680  -47.8250   -8.2260 C.3       1 P0D504      0.0000 
      5 C1'        -1.6210  -47.4270   -8.4780 C.3       1 P0D504      0.0000 
      6 P1         -1.8010  -46.0610   -9.6610 P.3       1 P0D504      0.0000 
      7 O1P        -1.2420  -46.4630  -10.9640 O.2       1 P0D504      0.0000 
      8 C2         -4.1840  -46.7440  -10.7830 C.3       1 P0D504      0.0000 
      9 C1         -3.5710  -45.7010   -9.8500 C.3       1 P0D504      0.0000 
     10 N1         -3.7840  -44.3690  -10.3950 N.4       1 P0D504      0.0000 
     11 O2P        -0.9940  -44.7390   -9.1490 O.3       1 P0D504      0.0000 
     12 P2         -1.4980  -43.8130   -7.9260 P.3       1 P0D504      0.0000 
     13 O4P        -1.9830  -44.7910   -6.8920 O.co2     1 P0D504      0.0000 
     14 O3P        -0.3210  -42.9710   -7.4460 O.co2     1 P0D504      0.0000 
     15 O5P        -2.5930  -42.9990   -8.5730 O.co2     1 P0D504      0.0000 
     16 C3'        -0.0360  -48.3860   -6.8150 C.3       1 P0D504      0.0000 
     17 C31         1.2520  -49.1020   -6.4540 C.ar      1 P0D504      0.0000 
     18 C33         2.4830  -48.4540   -6.5450 C.ar      1 P0D504      0.0000 
     19 C35         3.6370  -49.0230   -6.0270 C.ar      1 P0D504      0.0000 
     20 C36         3.5780  -50.2620   -5.4010 C.ar      1 P0D504      0.0000 
     21 C34         2.3580  -50.9210   -5.2960 C.ar      1 P0D504      0.0000 
     22 C32         1.2050  -50.3410   -5.8110 C.ar      1 P0D504      0.0000 
     23 H           0.4551  -46.9648   -8.3206 H         1 P0D504      0.0000 
     24 H          -2.1172  -47.0398   -7.6053 H         1 P0D504      0.0000 
     25 H          -2.2054  -48.2050   -8.9373 H         1 P0D504      0.0000 
     26 H          -3.9357  -45.8255   -8.8608 H         1 P0D504      0.0000 
     27 H          -0.8957  -49.0824   -6.6308 H         1 P0D504      0.0000 
     28 H          -0.1956  -47.5483   -6.0863 H         1 P0D504      0.0000 
     29 H           2.5337  -47.5279   -7.0100 H         1 P0D504      0.0000 
     30 H           4.5358  -48.5293   -6.1056 H         1 P0D504      0.0000 
     31 H           4.4288  -50.6884   -5.0185 H         1 P0D504      0.0000 
     32 H           2.3093  -51.8405   -4.8357 H         1 P0D504      0.0000 
     33 H           0.2994  -50.8304   -5.7186 H         1 P0D504      0.0000 
     34 H          -3.8885  -46.6149  -11.7296 H         1 P0D504      0.0000 
     35 H          -3.9274  -47.6741  -10.5200 H         1 P0D504      0.0000 
     36 H          -5.1832  -46.7036  -10.7798 H         1 P0D504      0.0000 
     37 H          -3.3842  -44.2724  -11.3065 H         1 P0D504      0.0000 
     38 H          -4.7568  -44.1526  -10.4772 H         1 P0D504      0.0000 
     39 H          -3.3740  -43.6620   -9.8188 H         1 P0D504      0.0000 
@<TRIPOS>BOND
     1    2    1 ar   
     2    3    2 ar   
     3    4    2 1    
     4    5    4 1    
     5   16    4 1    
     6   23    4 1    
     7    6    5 1    
     8   24    5 1    
     9   25    5 1    
    10    7    6 2    
    11    9    6 1    
    12   11    6 1    
    13    9    8 1    
    14   34    8 1    
    15   35    8 1    
    16   36    8 1    
    17   10    9 1    
    18   26    9 1    
    19   37   10 1    
    20   38   10 1    
    21   39   10 1    
    22   12   11 1    
    23   13   12 ar   
    24   14   12 ar   
    25   15   12 ar   
    26   17   16 1    
    27   27   16 1    
    28   28   16 1    
    29   18   17 ar   
    30   22   17 ar   
    31   19   18 ar   
    32   29   18 1    
    33   20   19 ar   
    34   30   19 1    
    35   21   20 ar   
    36   31   20 1    
    37   22   21 ar   
    38   32   21 1    
    39   33   22 1    
@<TRIPOS>SUBSTRUCTURE
     1 P0D504      1 GROUP   
@<TRIPOS>SET

