#    Name: 3fur_Z12_1_INTS_M
#    Modification time : Tue Mar 25 06:37:22 2014

@<TRIPOS>MOLECULE
3fur_Z12_1_INTS_M
   89     0     6     0     0
SMALL
NO_CHARGES


@<TRIPOS>ATOM
      1 CA          0.7280    4.6135   28.8840 C.3       2 GLC5        0.0000 
      2 CA          2.1080    5.0210   27.2770 C.3       6 GLL5        0.0000 
      3 CA         -0.6520    4.2060   30.4910 C.3       4 GLP5        0.0000 
      4 CA          2.4880    6.9185   27.7415 C.3       2 GLC5        0.0000 
      5 CA          2.8680    8.8160   28.2060 C.3       4 GLP5        0.0000 
      6 CA          2.3370    3.0080   27.2660 C.3       2 GLC5        0.0000 
      7 CA          2.5660    0.9950   27.2550 C.3       4 GLP5        0.0000 
      8 CA          3.3955    6.0295   32.2030 C.3       2 GLC5        0.0000 
      9 CA          4.7320    4.8240   31.9820 C.3       6 GLL5        0.0000 
     10 CA          2.0590    7.2350   32.4240 C.3       4 GLP5        0.0000 
     11 CA          6.4240    4.5520   33.0025 C.3       2 GLC5        0.0000 
     12 CA          8.1160    4.2800   34.0230 C.3       4 GLP5        0.0000 
     13 CA          4.6165    3.2440   33.0535 C.3       2 GLC5        0.0000 
     14 CA          4.5010    1.6640   34.1250 C.3       4 GLP5        0.0000 
     15 CA          6.3015    6.4100   31.0410 C.3       2 GLC5        0.0000 
     16 CA          6.0920    4.7980   29.5130 C.3       6 GLL5        0.0000 
     17 CA          6.5110    8.0220   32.5690 C.3       4 GLP5        0.0000 
     18 CA          7.6925    3.9510   27.3135 C.3       2 GLC5        0.0000 
     19 CA          6.1210    4.8310   28.1070 C.3       6 GLL5        0.0000 
     20 CA          9.2640    3.0710   26.5200 C.3       4 GLP5        0.0000 
     21 O           3.4945    5.8475   24.1400 O.2       1 ALC1        0.0000 
     22 O           4.4560    6.2160   25.0500 O.2       5 ALL1        0.0000 
     23 O           2.5330    5.4790   23.2300 O.2       3 ALP1        0.0000 
     24 CA          3.0190   10.6955   26.1460 C.3       2 GLC5        0.0000 
     25 CA          3.5620   11.0820   24.0410 C.3       6 GLL5        0.0000 
     26 CA          2.4760   10.3090   28.2510 C.3       4 GLP5        0.0000 
     27 CA          3.5230   12.6715   24.1805 C.3       2 GLC5        0.0000 
     28 CA          3.4840   14.2610   24.3200 C.3       4 GLP5        0.0000 
     29 CA          1.4025   11.5340   23.7425 C.3       2 GLC5        0.0000 
     30 CA         -0.7570   11.9860   23.4440 C.3       4 GLP5        0.0000 
     31 CA         10.2090    9.3590   26.1400 C.3       2 GLC5        0.0000 
     32 CA          8.2940    9.4900   26.2750 C.3       6 GLL5        0.0000 
     33 CA         12.1240    9.2280   26.0050 C.3       4 GLP5        0.0000 
     34 CA          9.2240   11.2385   26.9005 C.3       2 GLC5        0.0000 
     35 CA         10.1540   12.9870   27.5260 C.3       4 GLP5        0.0000 
     36 CA          7.7885    7.1150   24.9720 C.3       2 GLC5        0.0000 
     37 CA          6.2420    7.7410   25.6070 C.3       6 GLL5        0.0000 
     38 CA          9.3350    6.4890   24.3370 C.3       4 GLP5        0.0000 
     39 CA          5.3865   10.0565   28.1950 C.3       2 GLC5        0.0000 
     40 CA          6.1810   11.6570   27.6440 C.3       6 GLL5        0.0000 
     41 CA          4.5920    8.4560   28.7460 C.3       4 GLP5        0.0000 
     42 CA          4.3290   11.4360   28.4875 C.3       2 GLC5        0.0000 
     43 CA          6.1820   12.5630   28.7240 C.3       6 GLL5        0.0000 
     44 CA          5.3095   10.2815   29.3875 C.3       2 GLC5        0.0000 
     45 CA          6.0270   12.1070   30.0290 C.3       6 GLL5        0.0000 
     46 CA          8.3330   13.2635   26.8540 C.3       2 GLC5        0.0000 
     47 CA          6.5120   13.5400   26.1820 C.3       6 GLL5        0.0000 
     48 CA          8.3475   14.5865   30.5020 C.3       2 GLC5        0.0000 
     49 CA          6.1800   14.3840   30.8330 C.3       6 GLL5        0.0000 
     50 CA         10.5150   14.7890   30.1710 C.3       4 GLP5        0.0000 
     51 CA          4.1480    6.6940   28.7497 C.3       2 GLC5        0.0000 
     52 CA          3.6880    4.9240   29.4520 C.3       6 GLL5        0.0000 
     53 CA          4.3510    3.1615   28.3148 C.3       2 GLC5        0.0000 
     54 CA          3.7200    4.9400   28.0550 C.3       6 GLL5        0.0000 
     55 CA          4.9980    1.3910   27.8760 C.3       4 GLP5        0.0000 
     56 CA          3.1677    6.0587   31.1223 C.3       2 GLC5        0.0000 
     57 CA          5.6547    6.4272   31.8272 C.3       2 GLC5        0.0000 
     58 CA          5.0352    6.6378   29.2985 C.3       2 GLC5        0.0000 
     59 CA          4.8650    4.8410   30.1890 C.3       6 GLL5        0.0000 
     60 CA          5.2382    3.1052   28.8635 C.3       2 GLC5        0.0000 
     61 CA          7.9468    5.4838   29.5645 C.3       2 GLC5        0.0000 
     62 CA          9.7870    6.1530   30.3190 C.3       4 GLP5        0.0000 
     63 CA          5.0610    6.6605   28.2362 C.3       2 GLC5        0.0000 
     64 CA          5.2640    3.1280   27.8013 C.3       2 GLC5        0.0000 
     65 CA          4.9390    4.8990   27.3460 C.3       6 GLL5        0.0000 
     66 CA          5.1002    8.0292   27.0530 C.3       2 GLC5        0.0000 
     67 CA          4.9750    7.4640   25.1130 C.3       6 GLL5        0.0000 
     68 CA          5.9182    7.9192   23.5158 C.3       2 GLC5        0.0000 
     69 CA          7.2650    7.8580   22.1520 C.3       4 GLP5        0.0000 
     70 CA          3.6330    8.9810   26.4310 C.3       2 GLC5        0.0000 
     71 CA          4.1680    8.4970   24.6460 C.3       6 GLL5        0.0000 
     72 CA          6.2615    8.8983   23.5360 C.3       2 GLC5        0.0000 
     73 CA          4.6280    9.7950   24.6660 C.3       6 GLL5        0.0000 
     74 CA          5.4395    9.0137   27.0757 C.3       2 GLC5        0.0000 
     75 CA          5.8880   10.0820   25.1740 C.3       6 GLL5        0.0000 
     76 CA          6.8645    8.1295   23.8870 C.3       2 GLC5        0.0000 
     77 CA          6.6860    9.0610   25.6370 C.3       6 GLL5        0.0000 
     78 CA          8.4125    7.8822   25.1465 C.3       2 GLC5        0.0000 
     79 CA          4.9567   13.5567   25.2922 C.3       2 GLC5        0.0000 
     80 CA          6.3470   12.1650   26.3470 C.3       6 GLL5        0.0000 
     81 CA          8.1885   12.6120   27.6929 C.3       2 GLC5        0.0000 
     82 CA          8.1065   11.9415   30.9612 C.3       2 GLC5        0.0000 
     83 CA          6.0270   13.0150   31.0820 C.3       6 GLL5        0.0000 
     84 CA         10.1860   11.3220   31.3670 C.3       4 GLP5        0.0000 
     85 CA          8.2105   14.4492   28.3450 C.3       2 GLC5        0.0000 
     86 CA          6.3420   13.9330   28.4850 C.3       6 GLL5        0.0000 
     87 CA         10.0780   14.5080   27.6790 C.3       4 GLP5        0.0000 
     88 CA          4.2523   13.0217   31.0166 C.3       2 GLC5        0.0000 
     89 CA          2.4010   12.5710   31.3390 C.3       4 GLP5        0.0000 
@<TRIPOS>BOND
@<TRIPOS>SUBSTRUCTURE
     1 ALC1       21 GROUP        1 X    ALC  0     ROOT ALC X 1
     2 GLC5        1 GROUP        1 X    GLC  0     **** GLC X 6
     3 ALP1       23 GROUP        1 Y    ALP  0     ROOT ALP Y 8
     4 GLP5        3 GROUP        1 Y    GLP  0     **** GLP Y 13
     5 ALL1       22 GROUP        1 Z    ALL  0     ROOT ALL Z 15
     6 GLL5        2 GROUP        1 Z    GLL  0     **** GLL Z 20
@<TRIPOS>SET

