#    Name: 3fur_Z12_1_ligand
#    Modification time : Tue Mar 25 06:37:22 2014

@<TRIPOS>MOLECULE
3fur_Z12_1_ligand
   43    46     1     0     0
SMALL
NO_CHARGES


@<TRIPOS>ATOM
      1 CL32        2.1080    5.0210   27.2770 Cl        1 Z121        0.0000 
      2 C31         3.7200    4.9400   28.0550 C.ar      1 Z121        0.0000 
      3 C30         3.6880    4.9240   29.4520 C.ar      1 Z121        0.0000 
      4 C28         4.8650    4.8410   30.1890 C.ar      1 Z121        0.0000 
      5 CL29        4.7320    4.8240   31.9820 Cl        1 Z121        0.0000 
      6 C27         6.0920    4.7980   29.5130 C.ar      1 Z121        0.0000 
      7 C26         6.1210    4.8310   28.1070 C.ar      1 Z121        0.0000 
      8 C25         4.9390    4.8990   27.3460 C.ar      1 Z121        0.0000 
      9 S20         5.0330    4.8850   25.7120 S.o2      1 Z121        0.0000 
     10 O21         4.2050    3.8090   25.2180 O.2       1 Z121        0.0000 
     11 O22         6.4030    4.6910   25.3230 O.2       1 Z121        0.0000 
     12 N23         4.4560    6.2160   25.0500 N.pl3     1 Z121        0.0000 
     13 C13         4.9750    7.4640   25.1130 C.ar      1 Z121        0.0000 
     14 C14         4.1680    8.4970   24.6460 C.ar      1 Z121        0.0000 
     15 C15         4.6280    9.7950   24.6660 C.ar      1 Z121        0.0000 
     16 CL16        3.5620   11.0820   24.0410 Cl        1 Z121        0.0000 
     17 C17         5.8880   10.0820   25.1740 C.ar      1 Z121        0.0000 
     18 C18         6.6860    9.0610   25.6370 C.ar      1 Z121        0.0000 
     19 CL19        8.2940    9.4900   26.2750 Cl        1 Z121        0.0000 
     20 C12         6.2420    7.7410   25.6070 C.ar      1 Z121        0.0000 
     21 O11         6.3780   11.3610   25.2170 O.3       1 Z121        0.0000 
     22 C8          6.3470   12.1650   26.3470 C.ar      1 Z121        0.0000 
     23 C7          6.1810   11.6570   27.6440 C.ar      1 Z121        0.0000 
     24 C6          6.1820   12.5630   28.7240 C.ar      1 Z121        0.0000 
     25 C1          6.0270   12.1070   30.0290 C.ar      1 Z121        0.0000 
     26 C9          6.5120   13.5400   26.1820 C.ar      1 Z121        0.0000 
     27 N10         6.5030   14.3810   27.2240 N.ar      1 Z121        0.0000 
     28 C5          6.3420   13.9330   28.4850 C.ar      1 Z121        0.0000 
     29 C4          6.3440   14.8480   29.5370 C.ar      1 Z121        0.0000 
     30 C3          6.1800   14.3840   30.8330 C.ar      1 Z121        0.0000 
     31 C2          6.0270   13.0150   31.0820 C.ar      1 Z121        0.0000 
     32 H           2.7798    4.9744   29.9398 H         1 Z121        0.0000 
     33 H           6.9677    4.7426   30.0399 H         1 Z121        0.0000 
     34 H           7.0332    4.8047   27.6202 H         1 Z121        0.0000 
     35 H           3.5593    6.0074   24.5170 H         1 Z121        0.0000 
     36 H           3.2259    8.2839   24.2860 H         1 Z121        0.0000 
     37 H           6.8442    6.9868   25.9455 H         1 Z121        0.0000 
     38 H           6.0632   10.6650   27.8038 H         1 Z121        0.0000 
     39 H           5.9130   11.1036   30.2137 H         1 Z121        0.0000 
     40 H           6.6450   13.9013   25.2066 H         1 Z121        0.0000 
     41 H           6.4649   15.8455   29.3516 H         1 Z121        0.0000 
     42 H           6.1698   15.0464   31.6224 H         1 Z121        0.0000 
     43 H           5.9144   12.6837   32.0492 H         1 Z121        0.0000 
@<TRIPOS>BOND
     1    2    1 1    
     2    3    2 ar   
     3    8    2 ar   
     4    4    3 ar   
     5   32    3 1    
     6    5    4 1    
     7    6    4 ar   
     8    7    6 ar   
     9   33    6 1    
    10    8    7 ar   
    11   34    7 1    
    12    9    8 1    
    13   10    9 2    
    14   11    9 2    
    15   12    9 1    
    16   13   12 1    
    17   35   12 1    
    18   14   13 ar   
    19   20   13 ar   
    20   15   14 ar   
    21   36   14 1    
    22   16   15 1    
    23   17   15 ar   
    24   18   17 ar   
    25   21   17 1    
    26   19   18 1    
    27   20   18 ar   
    28   37   20 1    
    29   22   21 1    
    30   23   22 ar   
    31   26   22 ar   
    32   24   23 ar   
    33   38   23 1    
    34   25   24 ar   
    35   28   24 ar   
    36   31   25 ar   
    37   39   25 1    
    38   27   26 ar   
    39   40   26 1    
    40   28   27 ar   
    41   29   28 ar   
    42   30   29 ar   
    43   41   29 1    
    44   31   30 ar   
    45   42   30 1    
    46   43   31 1    
@<TRIPOS>SUBSTRUCTURE
     1 Z121        1 GROUP   
@<TRIPOS>SET

