#    Name: 1h8h_ATP_1_INTS_M
#    Modification time : Tue Mar 25 05:16:43 2014

@<TRIPOS>MOLECULE
1h8h_ATP_1_INTS_M
   59     0    15     0     0
SMALL
NO_CHARGES


@<TRIPOS>ATOM
      1 NZ        103.6260   66.7660   50.7455 N.4       3 LYC4        0.0000 
      2 NZ        103.2820   65.0510   50.8600 N.4      13 LYL4        0.0000 
      3 NZ        103.9700   68.4810   50.6310 N.4       8 LYP4        0.0000 
      4 N         102.0890   64.9320   51.5155 N.am      2 SEC2        0.0000 
      5 N         103.2820   65.0510   50.8600 N.am     12 SEL2        0.0000 
      6 N         100.8960   64.8130   52.1710 N.am      7 SEP2        0.0000 
      7 Zn        104.1245   65.2615   47.6220 Zn        4 ZIC7        0.0000 
      8 Zn        104.0850   64.8170   48.5830 Zn       14 ZIL7        0.0000 
      9 Zn        104.1640   65.7060   46.6610 Zn        9 ZIP7        0.0000 
     10 N         101.8570   62.1730   49.6065 N.am      2 SEC2        0.0000 
     11 N         103.1910   62.8680   49.7570 N.am     12 SEL2        0.0000 
     12 N         100.5230   61.4780   49.4560 N.am      7 SEP2        0.0000 
     13 NZ        102.4325   67.7540   50.1295 N.4       3 LYC4        0.0000 
     14 NZ        100.8950   67.0270   49.6280 N.4      13 LYL4        0.0000 
     15 N          99.7645   66.7830   50.5830 N.am      2 SEC2        0.0000 
     16 N         100.8950   67.0270   49.6280 N.am     12 SEL2        0.0000 
     17 N          98.6340   66.5390   51.5380 N.am      7 SEP2        0.0000 
     18 N          99.3730   67.2835   49.3965 N.am      2 SEC2        0.0000 
     19 N          97.8510   67.5400   49.1650 N.am      7 SEP2        0.0000 
     20 N         100.2265   67.9625   48.6275 N.am      2 SEC2        0.0000 
     21 N          99.5580   68.8980   47.6270 N.am      7 SEP2        0.0000 
     22 NZ        103.1045   67.5205   49.1335 N.4       3 LYC4        0.0000 
     23 NZ        102.2390   66.5600   47.6360 N.4      13 LYL4        0.0000 
     24 Zn        103.2015   66.1330   47.1485 Zn        4 ZIC7        0.0000 
     25 Zn        102.2390   66.5600   47.6360 Zn       14 ZIL7        0.0000 
     26 N         101.7905   67.4975   46.5185 N.am      2 SEC2        0.0000 
     27 N         102.2390   66.5600   47.6360 N.am     12 SEL2        0.0000 
     28 N         101.3420   68.4350   45.4010 N.am      7 SEP2        0.0000 
     29 N         101.2435   64.6995   50.6230 N.am      2 SEC2        0.0000 
     30 N         101.5910   64.5860   49.0750 N.am     12 SEL2        0.0000 
     31 N         101.0570   63.0320   49.2655 N.am      2 SEC2        0.0000 
     32 N          99.7060   66.5745   44.2760 N.am      2 SEC2        0.0000 
     33 N          99.7870   65.3470   45.1590 N.am     12 SEL2        0.0000 
     34 N          99.6250   67.8020   43.3930 N.am      7 SEP2        0.0000 
     35 N          98.6720   65.7995   44.6215 N.am      2 SEC2        0.0000 
     36 N          97.5570   66.2520   44.0840 N.am      7 SEP2        0.0000 
     37 CA         97.4455   65.6495   47.7470 C.3       5 GLC5        0.0000 
     38 CA         97.4360   63.5880   47.7230 C.3      15 GLL5        0.0000 
     39 CA         97.4550   67.7110   47.7710 C.3      10 GLP5        0.0000 
     40 CA         94.5890   63.2595   48.3480 C.3       5 GLC5        0.0000 
     41 CA         96.3600   62.6770   47.1520 C.3      15 GLL5        0.0000 
     42 CA         92.8180   63.8420   49.5440 C.3      10 GLP5        0.0000 
     43 CA         93.6000   63.4890   47.7965 C.3       5 GLC5        0.0000 
     44 CA         94.3820   63.1360   46.0490 C.3      15 GLL5        0.0000 
     45 CA         90.7805   67.2260   45.6045 C.3       5 GLC5        0.0000 
     46 CA         91.9150   66.7920   44.0530 C.3      15 GLL5        0.0000 
     47 CA         89.6460   67.6600   47.1560 C.3      10 GLP5        0.0000 
     48 O          90.4990   68.3395   42.8505 O.2       1 ALC1        0.0000 
     49 O          91.8910   67.9950   43.5140 O.2      11 ALL1        0.0000 
     50 O          89.1070   68.6840   42.1870 O.2       6 ALP1        0.0000 
     51 CA         90.3425   65.1310   46.4360 C.3       5 GLC5        0.0000 
     52 CA         90.7320   64.8720   44.6880 C.3      15 GLL5        0.0000 
     53 CA         89.9530   65.3900   48.1840 C.3      10 GLP5        0.0000 
     54 CA         91.7460   64.9405   42.7450 C.3       5 GLC5        0.0000 
     55 CA         92.7600   65.0090   40.8020 C.3      10 GLP5        0.0000 
     56 CA         91.4075   65.1305   46.6285 C.3       5 GLC5        0.0000 
     57 CA         92.8620   64.8710   45.0730 C.3      15 GLL5        0.0000 
     58 CA         92.7183   65.3374   42.7416 C.3       5 GLC5        0.0000 
     59 CA         93.0670   66.1290   44.5260 C.3      15 GLL5        0.0000 
@<TRIPOS>BOND
@<TRIPOS>SUBSTRUCTURE
     1 ALC1       48 GROUP        1 X    ALC  0     ROOT ALC X 1
     2 SEC2        4 GROUP        1 X    SEC  0     **** SEC X 2
     3 LYC4        1 GROUP        1 X    LYC  0     **** LYC X 4
     4 ZIC7        7 GROUP        1 X    ZIC  0     **** ZIC X 5
     5 GLC5       37 GROUP        1 X    GLC  0     **** GLC X 6
     6 ALP1       50 GROUP        1 Y    ALP  0     ROOT ALP Y 8
     7 SEP2        6 GROUP        1 Y    SEP  0     **** SEP Y 9
     8 LYP4        3 GROUP        1 Y    LYP  0     **** LYP Y 11
     9 ZIP7        9 GROUP        1 Y    ZIP  0     **** ZIP Y 12
    10 GLP5       39 GROUP        1 Y    GLP  0     **** GLP Y 13
    11 ALL1       49 GROUP        1 Z    ALL  0     ROOT ALL Z 15
    12 SEL2        5 GROUP        1 Z    SEL  0     **** SEL Z 16
    13 LYL4        2 GROUP        1 Z    LYL  0     **** LYL Z 18
    14 ZIL7        8 GROUP        1 Z    ZIL  0     **** ZIL Z 19
    15 GLL5       38 GROUP        1 Z    GLL  0     **** GLL Z 20
@<TRIPOS>SET

