#    Name: 1h8h_ATP_1_ligand
#    Modification time : Tue Mar 25 05:16:43 2014

@<TRIPOS>MOLECULE
1h8h_ATP_1_ligand
   43    45     1     0     0
SMALL
NO_CHARGES


@<TRIPOS>ATOM
      1 PG        103.1290   64.2940   49.5540 P.3       1 ATP600      0.0000 
      2 O1G       103.2820   65.0510   50.8600 O.co2     1 ATP600      0.0000 
      3 O2G       104.0850   64.8170   48.5830 O.co2     1 ATP600      0.0000 
      4 O3G       103.1910   62.8680   49.7570 O.co2     1 ATP600      0.0000 
      5 PB        101.1320   66.0900   48.5110 P.3       1 ATP600      0.0000 
      6 O1B       100.8950   67.0270   49.6280 O.co2     1 ATP600      0.0000 
      7 O2B       102.2390   66.5600   47.6360 O.co2     1 ATP600      0.0000 
      8 O3B       101.5910   64.5860   49.0750 O.3       1 ATP600      0.0000 
      9 PA         99.4710   64.8290   46.5010 P.3       1 ATP600      0.0000 
     10 O1A        99.7870   65.3470   45.1590 O.co2     1 ATP600      0.0000 
     11 O2A       100.3210   63.5710   46.5790 O.co2     1 ATP600      0.0000 
     12 O3A        99.7590   65.7800   47.7560 O.3       1 ATP600      0.0000 
     13 O5'        97.9490   64.4240   46.6270 O.3       1 ATP600      0.0000 
     14 C5'        97.4360   63.5880   47.7230 C.3       1 ATP600      0.0000 
     15 C4'        96.3600   62.6770   47.1520 C.3       1 ATP600      0.0000 
     16 O4'        95.0900   63.3130   47.2530 O.3       1 ATP600      0.0000 
     17 C3'        96.5330   62.2110   45.7120 C.3       1 ATP600      0.0000 
     18 O3'        96.5640   60.7560   45.9910 O.3       1 ATP600      0.0000 
     19 C2'        95.1970   62.3140   45.0440 C.3       1 ATP600      0.0000 
     20 O2'        94.7500   60.9180   44.9780 O.3       1 ATP600      0.0000 
     21 C1'        94.3820   63.1360   46.0490 C.3       1 ATP600      0.0000 
     22 N9         94.1130   64.4550   45.4660 N.pl3     1 ATP600      0.0000 
     23 C8         94.9890   65.4410   45.1480 C.2       1 ATP600      0.0000 
     24 N7         94.4020   66.4880   44.5620 N.2       1 ATP600      0.0000 
     25 C5         93.0670   66.1290   44.5260 C.ar      1 ATP600      0.0000 
     26 C6         91.9150   66.7920   44.0530 C.ar      1 ATP600      0.0000 
     27 N6         91.8910   67.9950   43.5140 N.pl3     1 ATP600      0.0000 
     28 N1         90.7320   66.1460   44.1390 N.ar      1 ATP600      0.0000 
     29 C2         90.7320   64.8720   44.6880 C.ar      1 ATP600      0.0000 
     30 N3         91.7180   64.1540   45.1540 N.ar      1 ATP600      0.0000 
     31 C4         92.8620   64.8710   45.0730 C.ar      1 ATP600      0.0000 
     32 H          96.9973   64.2007   48.5021 H         1 ATP600      0.0000 
     33 H          98.2257   62.9753   48.1424 H         1 ATP600      0.0000 
     34 H          96.3311   61.7598   47.7855 H         1 ATP600      0.0000 
     35 H          97.2862   62.5492   45.2548 H         1 ATP600      0.0000 
     36 H          95.2780   62.7779   44.1468 H         1 ATP600      0.0000 
     37 H          93.4454   62.6231   46.2079 H         1 ATP600      0.0000 
     38 H          95.9648   65.3799   45.3363 H         1 ATP600      0.0000 
     39 H          91.1391   68.1785   42.8808 H         1 ATP600      0.0000 
     40 H          92.6268   68.6145   43.7875 H         1 ATP600      0.0000 
     41 H          89.7168   64.4129   44.7246 H         1 ATP600      0.0000 
     42 H          96.0567   60.3373   45.2377 H         1 ATP600      0.0000 
     43 H          94.2067   60.7809   45.8063 H         1 ATP600      0.0000 
@<TRIPOS>BOND
     1    2    1 ar   
     2    3    1 ar   
     3    4    1 ar   
     4    8    1 1    
     5    6    5 ar   
     6    7    5 ar   
     7    8    5 1    
     8   12    5 1    
     9   10    9 ar   
    10   11    9 ar   
    11   12    9 1    
    12   13    9 1    
    13   14   13 1    
    14   15   14 1    
    15   32   14 1    
    16   33   14 1    
    17   16   15 1    
    18   17   15 1    
    19   34   15 1    
    20   21   16 1    
    21   18   17 1    
    22   19   17 1    
    23   35   17 1    
    24   42   18 1    
    25   20   19 1    
    26   21   19 1    
    27   36   19 1    
    28   43   20 1    
    29   22   21 1    
    30   37   21 1    
    31   23   22 1    
    32   31   22 1    
    33   24   23 2    
    34   38   23 1    
    35   25   24 1    
    36   26   25 ar   
    37   31   25 ar   
    38   27   26 1    
    39   28   26 ar   
    40   39   27 1    
    41   40   27 1    
    42   29   28 ar   
    43   30   29 ar   
    44   41   29 1    
    45   31   30 ar   
@<TRIPOS>SUBSTRUCTURE
     1 ATP600      1 GROUP   
@<TRIPOS>SET

