#    Name: 3il6_B83_1_INTS_M
#    Modification time : Tue Mar 25 16:44:29 2014

@<TRIPOS>MOLECULE
3il6_B83_1_INTS_M
   72     0     6     0     0
SMALL
NO_CHARGES


@<TRIPOS>ATOM
      1 CA       -140.1755  138.5400   90.3390 C.3       2 GLC5        0.0000 
      2 CA       -139.0470  139.5350   91.3580 C.3       6 GLL5        0.0000 
      3 CA       -141.3040  137.5450   89.3200 C.3       4 GLP5        0.0000 
      4 CA       -140.5290  139.9160   90.1970 C.3       2 GLC5        0.0000 
      5 CA       -139.4350  140.8810   91.5770 C.3       6 GLL5        0.0000 
      6 CA       -141.6230  138.9510   88.8170 C.3       4 GLP5        0.0000 
      7 CA       -139.1515  143.2875   92.8690 C.3       2 GLC5        0.0000 
      8 CA       -140.0190  141.2590   92.8070 C.3       6 GLL5        0.0000 
      9 CA       -138.2840  145.3160   92.9310 C.3       4 GLP5        0.0000 
     10 CA       -142.2415  140.0380   93.4440 C.3       2 GLC5        0.0000 
     11 CA       -140.2150  140.2930   93.8290 C.3       6 GLL5        0.0000 
     12 CA       -144.2680  139.7830   93.0590 C.3       4 GLP5        0.0000 
     13 N        -139.6355  139.3625   96.5925 N.am      1 SEC2        0.0000 
     14 N        -140.6030  138.3570   95.8710 N.am      5 SEL2        0.0000 
     15 N        -138.6680  140.3680   97.3140 N.am      3 SEP2        0.0000 
     16 N        -139.8615  137.5350   96.8480 N.am      1 SEC2        0.0000 
     17 N        -139.1200  136.7130   97.8250 N.am      3 SEP2        0.0000 
     18 CA       -140.0815  136.1260   90.9475 C.3       2 GLC5        0.0000 
     19 CA       -138.1730  135.0370   91.2590 C.3       6 GLL5        0.0000 
     20 CA       -141.9900  137.2150   90.6360 C.3       4 GLP5        0.0000 
     21 CA       -139.8240  135.8985   89.7050 C.3       2 GLC5        0.0000 
     22 CA       -138.3440  134.2520   90.0900 C.3       6 GLL5        0.0000 
     23 CA       -137.6490  135.3805   88.4990 C.3       2 GLC5        0.0000 
     24 CA       -136.9540  136.5090   86.9080 C.3       4 GLP5        0.0000 
     25 CA       -139.2075  131.1210   94.0670 C.3       2 GLC5        0.0000 
     26 CA       -138.4350  130.0920   92.7570 C.3       6 GLL5        0.0000 
     27 CA       -139.9800  132.1500   95.3770 C.3       4 GLP5        0.0000 
     28 CA       -137.6270  127.8320   95.3705 C.3       2 GLC5        0.0000 
     29 CA       -139.0860  127.9230   93.8940 C.3       6 GLL5        0.0000 
     30 CA       -136.1680  127.7410   96.8470 C.3       4 GLP5        0.0000 
     31 CA       -140.8470  127.0085   93.6175 C.3       2 GLC5        0.0000 
     32 CA       -142.6080  126.0940   93.3410 C.3       4 GLP5        0.0000 
     33 CA       -139.2885  127.0510   95.6310 C.3       2 GLC5        0.0000 
     34 CA       -139.4910  126.1790   97.3680 C.3       4 GLP5        0.0000 
     35 CA       -139.0900  129.7195   95.1650 C.3       2 GLC5        0.0000 
     36 CA       -139.0940  131.5160   96.4360 C.3       4 GLP5        0.0000 
     37 CA       -140.7625  137.9683   91.8187 C.3       2 GLC5        0.0000 
     38 CA       -139.2360  138.5250   92.3670 C.3       6 GLL5        0.0000 
     39 CA       -137.1457  138.7780   91.5873 C.3       2 GLC5        0.0000 
     40 CA       -135.1500  138.5260   91.3120 C.3       4 GLP5        0.0000 
     41 CA       -137.6685  141.0825   90.3077 C.3       2 GLC5        0.0000 
     42 CA       -136.0960  141.9570   89.1480 C.3       4 GLP5        0.0000 
     43 CA       -138.9669  140.8726   94.9674 C.3       2 GLC5        0.0000 
     44 CA       -137.9120  141.3130   96.6650 C.3       4 GLP5        0.0000 
     45 CA       -141.2375  142.1690   93.7250 C.3       2 GLC5        0.0000 
     46 CA       -142.3580  143.5620   94.1320 C.3       4 GLP5        0.0000 
     47 CA       -138.3225  138.9471   94.2956 C.3       2 GLC5        0.0000 
     48 CA       -136.7700  138.3870   95.1760 C.3       4 GLP5        0.0000 
     49 CA       -139.9005  134.3380   91.9487 C.3       2 GLC5        0.0000 
     50 CA       -137.9430  134.3930   92.5080 C.3       6 GLL5        0.0000 
     51 CA       -141.7430  133.9610   92.0140 C.3       4 GLP5        0.0000 
     52 CA       -139.8598  133.2548   91.9990 C.3       2 GLC5        0.0000 
     53 CA       -137.8890  132.9630   92.5740 C.3       6 GLL5        0.0000 
     54 CA       -136.0583  134.5180   92.7104 C.3       2 GLC5        0.0000 
     55 CA       -134.1430  135.1970   93.1920 C.3       4 GLP5        0.0000 
     56 CA       -138.9850  132.5280   93.6723 C.3       2 GLC5        0.0000 
     57 CA       -140.0297  133.7508   91.0648 C.3       2 GLC5        0.0000 
     58 CA       -138.2890  132.8290   90.1410 C.3       6 GLL5        0.0000 
     59 CA       -139.8512  133.6488   89.0902 C.3       2 GLC5        0.0000 
     60 CA       -141.3860  133.7570   88.0650 C.3       4 GLP5        0.0000 
     61 CA       -139.6005  132.8272   87.6668 C.3       2 GLC5        0.0000 
     62 CA       -137.5740  132.1680   87.8810 C.3       6 GLL5        0.0000 
     63 CA       -138.7920  133.1218   85.9723 C.3       2 GLC5        0.0000 
     64 CA       -139.7690  134.3460   84.6760 C.3       4 GLP5        0.0000 
     65 CA       -136.5713  134.5722   87.1148 C.3       2 GLC5        0.0000 
     66 CA       -135.4610  132.8060   86.7430 C.3       6 GLL5        0.0000 
     67 CA       -137.2290  132.6492   83.8790 C.3       2 GLC5        0.0000 
     68 CA       -135.9570  132.2620   85.5270 C.3       6 GLL5        0.0000 
     69 CA       -137.8540  133.3310   82.2530 C.3       4 GLP5        0.0000 
     70 CA       -135.6659  126.8649   91.9787 C.3       2 GLC5        0.0000 
     71 CA       -135.7200  127.9360   90.1380 C.3       6 GLL5        0.0000 
     72 CA       -134.8730  125.6400   93.2160 C.3       4 GLP5        0.0000 
@<TRIPOS>BOND
@<TRIPOS>SUBSTRUCTURE
     1 SEC2       13 GROUP        1 X    SEC  0     ROOT SEC X 2
     2 GLC5        1 GROUP        1 X    GLC  0     **** GLC X 6
     3 SEP2       15 GROUP        1 Y    SEP  0     ROOT SEP Y 9
     4 GLP5        3 GROUP        1 Y    GLP  0     **** GLP Y 13
     5 SEL2       14 GROUP        1 Z    SEL  0     ROOT SEL Z 16
     6 GLL5        2 GROUP        1 Z    GLL  0     **** GLL Z 20
@<TRIPOS>SET

