#    Name: 3il6_B83_1_ligand
#    Modification time : Tue Mar 25 16:44:29 2014

@<TRIPOS>MOLECULE
3il6_B83_1_ligand
   60    63     1     0     0
SMALL
NO_CHARGES


@<TRIPOS>ATOM
      1 C1       -139.8340  138.9180   93.6360 C.ar      1 B83401      0.0000 
      2 C2       -139.2360  138.5250   92.3670 C.ar      1 B83401      0.0000 
      3 C3       -139.0470  139.5350   91.3580 C.ar      1 B83401      0.0000 
      4 C4       -139.4350  140.8810   91.5770 C.ar      1 B83401      0.0000 
      5 C5       -140.0190  141.2590   92.8070 C.ar      1 B83401      0.0000 
      6 C6       -140.2150  140.2930   93.8290 C.ar      1 B83401      0.0000 
      7 C7       -140.1090  138.0050   94.8170 C.2       1 B83401      0.0000 
      8 O8       -139.7580  136.7100   94.6420 O.co2     1 B83401      0.0000 
      9 O9       -140.6030  138.3570   95.8710 O.co2     1 B83401      0.0000 
     10 N10      -138.8720  137.1640   92.1570 N.am      1 B83401      0.0000 
     11 C11      -138.2790  136.5190   91.0890 C.2       1 B83401      0.0000 
     12 O12      -137.8850  137.0300   90.0320 O.2       1 B83401      0.0000 
     13 C13      -138.1730  135.0370   91.2590 C.ar      1 B83401      0.0000 
     14 C14      -137.9430  134.3930   92.5080 C.ar      1 B83401      0.0000 
     15 C15      -137.8890  132.9630   92.5740 C.ar      1 B83401      0.0000 
     16 C16      -138.0640  132.1340   91.3940 C.ar      1 B83401      0.0000 
     17 C17      -138.2890  132.8290   90.1410 C.ar      1 B83401      0.0000 
     18 C18      -138.3440  134.2520   90.0900 C.ar      1 B83401      0.0000 
     19 O19      -138.4590  132.0650   88.9760 O.3       1 B83401      0.0000 
     20 C20      -137.5740  132.1680   87.8810 C.ar      1 B83401      0.0000 
     21 C21      -136.2580  132.7620   87.9190 C.ar      1 B83401      0.0000 
     22 C22      -135.4610  132.8060   86.7430 C.ar      1 B83401      0.0000 
     23 C23      -135.9570  132.2620   85.5270 C.ar      1 B83401      0.0000 
     24 C24      -137.2510  131.6730   85.4830 C.ar      1 B83401      0.0000 
     25 C25      -138.0560  131.6270   86.6560 C.ar      1 B83401      0.0000 
     26 N26      -138.0260  130.7120   91.4340 N.3       1 B83401      0.0000 
     27 C27      -136.7660  130.0950   90.9160 C.3       1 B83401      0.0000 
     28 C28      -136.9910  128.5800   90.6790 C.3       1 B83401      0.0000 
     29 C29      -137.4040  127.9070   92.0110 C.3       1 B83401      0.0000 
     30 C30      -138.6800  128.5700   92.5680 C.3       1 B83401      0.0000 
     31 C31      -138.4350  130.0920   92.7570 C.3       1 B83401      0.0000 
     32 C32      -139.0860  127.9230   93.8940 C.3       1 B83401      0.0000 
     33 C33      -135.7200  127.9360   90.1380 C.3       1 B83401      0.0000 
     34 H        -138.6215  139.2651   90.4643 H         1 B83401      0.0000 
     35 H        -139.2914  141.5764   90.8438 H         1 B83401      0.0000 
     36 H        -140.3013  142.2269   92.9639 H         1 B83401      0.0000 
     37 H        -140.6334  140.5702   94.7207 H         1 B83401      0.0000 
     38 H        -139.1166  136.5099   93.0223 H         1 B83401      0.0000 
     39 H        -137.8171  134.9425   93.3518 H         1 B83401      0.0000 
     40 H        -137.7227  132.5040   93.4747 H         1 B83401      0.0000 
     41 H        -138.5107  134.7151   89.1889 H         1 B83401      0.0000 
     42 H        -135.9108  133.1460   88.7922 H         1 B83401      0.0000 
     43 H        -134.5345  133.2273   86.7715 H         1 B83401      0.0000 
     44 H        -135.3846  132.2938   84.6846 H         1 B83401      0.0000 
     45 H        -137.6028  131.2831   84.6102 H         1 B83401      0.0000 
     46 H        -138.9833  131.2040   86.6183 H         1 B83401      0.0000 
     47 H        -135.9620  130.2123   91.6344 H         1 B83401      0.0000 
     48 H        -136.4799  130.5490   89.9735 H         1 B83401      0.0000 
     49 H        -137.7857  128.4582   89.9729 H         1 B83401      0.0000 
     50 H        -136.6007  128.0188   92.7273 H         1 B83401      0.0000 
     51 H        -137.5952  126.8571   91.8320 H         1 B83401      0.0000 
     52 H        -139.4732  128.4423   91.8533 H         1 B83401      0.0000 
     53 H        -139.3503  130.5473   93.1126 H         1 B83401      0.0000 
     54 H        -137.6486  130.2267   93.4884 H         1 B83401      0.0000 
     55 H        -138.3705  128.0150   94.5866 H         1 B83401      0.0000 
     56 H        -139.9142  128.3375   94.2713 H         1 B83401      0.0000 
     57 H        -139.2689  126.9454   93.7896 H         1 B83401      0.0000 
     58 H        -134.9533  128.0378   90.7718 H         1 B83401      0.0000 
     59 H        -135.8394  126.9562   89.9774 H         1 B83401      0.0000 
     60 H        -135.4381  128.3432   89.2692 H         1 B83401      0.0000 
@<TRIPOS>BOND
     1    2    1 ar   
     2    6    1 ar   
     3    7    1 1    
     4    3    2 ar   
     5   10    2 1    
     6    4    3 ar   
     7   34    3 1    
     8    5    4 ar   
     9   35    4 1    
    10    6    5 ar   
    11   36    5 1    
    12   37    6 1    
    13    8    7 ar   
    14    9    7 ar   
    15   11   10 am   
    16   38   10 1    
    17   12   11 2    
    18   13   11 1    
    19   14   13 ar   
    20   18   13 ar   
    21   15   14 ar   
    22   39   14 1    
    23   16   15 ar   
    24   40   15 1    
    25   17   16 ar   
    26   26   16 1    
    27   18   17 ar   
    28   19   17 1    
    29   41   18 1    
    30   20   19 1    
    31   21   20 ar   
    32   25   20 ar   
    33   22   21 ar   
    34   42   21 1    
    35   23   22 ar   
    36   43   22 1    
    37   24   23 ar   
    38   44   23 1    
    39   25   24 ar   
    40   45   24 1    
    41   46   25 1    
    42   27   26 1    
    43   31   26 1    
    44   28   27 1    
    45   47   27 1    
    46   48   27 1    
    47   29   28 1    
    48   33   28 1    
    49   49   28 1    
    50   30   29 1    
    51   50   29 1    
    52   51   29 1    
    53   31   30 1    
    54   32   30 1    
    55   52   30 1    
    56   53   31 1    
    57   54   31 1    
    58   55   32 1    
    59   56   32 1    
    60   57   32 1    
    61   58   33 1    
    62   59   33 1    
    63   60   33 1    
@<TRIPOS>SUBSTRUCTURE
     1 B83401      1 GROUP   
@<TRIPOS>SET

