#    Name: 2HA8_1_CAVITY_N1_ALL.mol2
#    Modification time : Mon Mar 10 16:22:04 2014

@<TRIPOS>MOLECULE
2HA8_1_CAVITY_N1_ALL.mol2
   79     0     5     0     0
SMALL
NO_CHARGES


@<TRIPOS>ATOM
      1 CA         38.4322   45.1263   21.7711 C.3       4 GLY6        0.0000 
      2 NZ         39.0543   43.0983   21.7852 N.2       3 LYS4        0.0000 
      3 DU         38.7841   44.1175   20.7183 H         5 CUB7        0.0000 
      4 N          38.5138   45.1366   19.6514 N.2       2 ALA2        0.0000 
      5 NZ         39.4061   42.0895   20.7324 N.2       3 LYS4        0.0000 
      6 DU         39.1359   43.1086   19.6655 H         5 CUB7        0.0000 
      7 N          39.7580   41.0806   19.6796 N.2       2 ALA2        0.0000 
      8 CA         36.9993   44.6864   21.7138 C.3       4 GLY6        0.0000 
      9 N          36.7291   45.7056   20.6468 N.2       2 ALA2        0.0000 
     10 NZ         37.3512   43.6776   20.6610 N.2       3 LYS4        0.0000 
     11 DU         37.0810   44.6967   19.5940 H         5 CUB7        0.0000 
     12 N          36.8108   45.7159   18.5271 N.2       2 ALA2        0.0000 
     13 N          37.9732   41.6496   20.6751 N.2       2 ALA2        0.0000 
     14 N          37.7030   42.6687   19.6082 N.2       2 ALA2        0.0000 
     15 OG         37.4328   43.6878   18.5412 O.2       1 SER1        0.0000 
     16 NZ         35.4847   44.2362   23.7762 N.2       3 LYS4        0.0000 
     17 N          35.2145   45.2554   22.7092 N.2       2 ALA2        0.0000 
     18 NZ         35.8366   43.2274   22.7234 N.2       3 LYS4        0.0000 
     19 N          35.5664   44.2465   21.6564 N.2       2 ALA2        0.0000 
     20 N          35.2962   45.2657   20.5895 N.2       2 ALA2        0.0000 
     21 NZ         36.1885   42.2185   21.6706 N.2       3 LYS4        0.0000 
     22 CA         35.9183   43.2376   20.6036 C.3       4 GLY6        0.0000 
     23 OG         35.6481   44.2568   19.5367 O.2       1 SER1        0.0000 
     24 N          35.3779   45.2759   18.4698 N.2       2 ALA2        0.0000 
     25 CA         36.2701   42.2288   19.5508 C.3       4 GLY6        0.0000 
     26 N          34.3221   42.7772   24.7858 N.2       2 ALA2        0.0000 
     27 O          34.0519   43.7963   23.7188 O.2       2 ALA2        0.0000 
     28 N          33.7817   44.8155   22.6519 N.2       2 ALA2        0.0000 
     29 N          33.5114   45.8346   21.5850 N.2       2 ALA2        0.0000 
     30 NZ         34.6739   41.7683   23.7330 N.2       3 LYS4        0.0000 
     31 NZ         34.4037   42.7874   22.6660 N.2       3 LYS4        0.0000 
     32 DU         34.1335   43.8066   21.5991 H         5 CUB7        0.0000 
     33 N          33.8633   44.8257   20.5322 N.2       2 ALA2        0.0000 
     34 N          33.5931   45.8449   19.4653 N.2       2 ALA2        0.0000 
     35 NZ         35.2960   39.7403   23.7471 N.2       3 LYS4        0.0000 
     36 NZ         35.0258   40.7594   22.6802 N.2       3 LYS4        0.0000 
     37 NZ         34.7556   41.7786   21.6132 N.2       3 LYS4        0.0000 
     38 CA         34.4854   42.7977   20.5463 C.3       4 GLY6        0.0000 
     39 OG         34.2152   43.8169   19.4794 O.2       1 SER1        0.0000 
     40 OG         33.9450   44.8360   18.4125 O.2       1 SER1        0.0000 
     41 N          33.6748   45.8552   17.3455 N.2       2 ALA2        0.0000 
     42 N          35.3776   39.7506   21.6274 N.2       2 ALA2        0.0000 
     43 N          35.1074   40.7697   20.5604 N.2       2 ALA2        0.0000 
     44 N          39.8651   45.5663   21.8284 N.2       2 ALA2        0.0000 
     45 N          39.5949   46.5854   20.7615 N.2       2 ALA2        0.0000 
     46 N          40.7574   42.5191   22.9095 N.2       2 ALA2        0.0000 
     47 DU         40.4872   43.5383   21.8426 H         5 CUB7        0.0000 
     48 N          32.8892   42.3372   24.7284 N.2       2 ALA2        0.0000 
     49 CA         32.6190   43.3564   23.6615 C.3       4 GLY6        0.0000 
     50 CA         32.3488   44.3755   22.5946 C.3       4 GLY6        0.0000 
     51 CA         32.0786   45.3947   21.5276 C.3       4 GLY6        0.0000 
     52 CA         31.8084   46.4138   20.4607 C.3       4 GLY6        0.0000 
     53 CA         31.5381   47.4330   19.3938 C.3       4 GLY6        0.0000 
     54 N          33.2410   41.3284   23.6756 N.2       2 ALA2        0.0000 
     55 OG         32.9708   42.3475   22.6087 O.2       1 SER1        0.0000 
     56 N          32.7006   43.3667   21.5418 N.2       2 ALA2        0.0000 
     57 N          32.4304   44.3858   20.4749 N.2       2 ALA2        0.0000 
     58 N          32.1602   45.4050   19.4079 N.2       2 ALA2        0.0000 
     59 N          31.8900   46.4241   18.3410 N.2       2 ALA2        0.0000 
     60 O          34.1333   38.2812   24.7567 O.2       2 ALA2        0.0000 
     61 CA         33.8631   39.3004   23.6897 C.3       4 GLY6        0.0000 
     62 OG         33.5929   40.3195   22.6228 O.2       1 SER1        0.0000 
     63 OG         33.3227   41.3387   21.5559 O.2       1 SER1        0.0000 
     64 N          33.0525   42.3578   20.4890 N.2       2 ALA2        0.0000 
     65 N          32.5121   44.3961   18.3551 N.2       2 ALA2        0.0000 
     66 O          32.2419   45.4153   17.2882 O.2       2 ALA2        0.0000 
     67 CA         34.4852   37.2723   23.7039 C.3       4 GLY6        0.0000 
     68 CA         34.2150   38.2915   22.6369 C.3       4 GLY6        0.0000 
     69 N          33.9447   39.3106   21.5700 N.2       2 ALA2        0.0000 
     70 O          33.6745   40.3298   20.5031 O.2       2 ALA2        0.0000 
     71 CA         34.5668   37.2826   21.5841 C.3       4 GLY6        0.0000 
     72 N          34.2966   38.3018   20.5172 N.2       2 ALA2        0.0000 
     73 CA         31.8081   40.8885   23.6183 C.3       4 GLY6        0.0000 
     74 CA         30.4571   45.9842   18.2837 C.3       4 GLY6        0.0000 
     75 OG         32.4302   38.8604   23.6324 O.2       1 SER1        0.0000 
     76 O          33.0523   36.8324   23.6465 O.2       2 ALA2        0.0000 
     77 CA         32.7821   37.8516   22.5796 C.3       4 GLY6        0.0000 
     78 OG         32.5119   38.8707   21.5127 O.2       1 SER1        0.0000 
     79 CA         33.1339   36.8427   21.5268 C.3       4 GLY6        0.0000 
@<TRIPOS>BOND
@<TRIPOS>SUBSTRUCTURE
     1 SER1       15 GROUP   
     2 ALA2        4 GROUP   
     3 LYS4        2 GROUP   
     4 GLY6        1 GROUP   
     5 CUB7        3 GROUP   
@<TRIPOS>SET

