#    Name: 2ha8_SAH_1_INTS_M
#    Modification time : Tue Mar 25 15:47:10 2014

@<TRIPOS>MOLECULE
2ha8_SAH_1_INTS_M
   73     0    12     0     0
SMALL
NO_CHARGES


@<TRIPOS>ATOM
      1 OD1        37.8595   42.2860   22.1395 O.co2     3 ASC3        0.0000 
      2 OD1        38.3370   43.2950   20.5620 O.co2    11 ASL3        0.0000 
      3 OD1        37.3820   41.2770   23.7170 O.co2     7 ASP3        0.0000 
      4 O          37.4835   42.2565   20.8335 O.2       1 ALC1        0.0000 
      5 O          38.3370   43.2950   20.5620 O.2       9 ALL1        0.0000 
      6 O          36.6300   41.2180   21.1050 O.2       5 ALP1        0.0000 
      7 CA         36.2930   42.5545   18.4965 C.3       4 GLC5        0.0000 
      8 CA         37.5980   43.9100   19.4160 C.3      12 GLL5        0.0000 
      9 CA         34.9880   41.1990   17.5770 C.3       8 GLP5        0.0000 
     10 CA         36.7980   45.8695   22.6140 C.3       4 GLC5        0.0000 
     11 CA         35.9980   45.3070   20.7840 C.3      12 GLL5        0.0000 
     12 CA         37.5980   46.4320   24.4440 C.3       8 GLP5        0.0000 
     13 CA         34.8370   42.6745   18.9495 C.3       4 GLC5        0.0000 
     14 CA         34.6860   44.1500   20.3220 C.3      12 GLL5        0.0000 
     15 N          39.8335   43.1885   16.5355 N.am      2 SEC2        0.0000 
     16 N          39.6380   43.6420   18.1950 N.am     10 SEL2        0.0000 
     17 N          40.0290   42.7350   14.8760 N.am      6 SEP2        0.0000 
     18 CA         33.4475   46.9315   21.2780 C.3       4 GLC5        0.0000 
     19 CA         33.6510   44.9180   21.5930 C.3      12 GLL5        0.0000 
     20 CA         33.2440   48.9450   20.9630 C.3       8 GLP5        0.0000 
     21 CA         31.7015   45.1105   22.1010 C.3       4 GLC5        0.0000 
     22 CA         29.7520   45.3030   22.6090 C.3       8 GLP5        0.0000 
     23 CA         31.7010   44.5505   23.4455 C.3       4 GLC5        0.0000 
     24 CA         33.3310   44.0240   22.7810 C.3      12 GLL5        0.0000 
     25 CA         30.0710   45.0770   24.1100 C.3       8 GLP5        0.0000 
     26 O          36.5025   43.6470   24.5495 O.2       1 ALC1        0.0000 
     27 O          35.2810   44.1290   24.2780 O.2       9 ALL1        0.0000 
     28 O          37.7240   43.1650   24.8210 O.2       5 ALP1        0.0000 
     29 CA         35.1725   40.8155   25.0955 C.3       4 GLC5        0.0000 
     30 CA         33.8390   42.1840   24.1530 C.3      12 GLL5        0.0000 
     31 CA         36.5060   39.4470   26.0380 C.3       8 GLP5        0.0000 
     32 N          33.2230   43.8485   26.1985 N.am      2 SEC2        0.0000 
     33 N          33.2440   42.6240   25.3760 N.am     10 SEL2        0.0000 
     34 N          33.2020   45.0730   27.0210 N.am      6 SEP2        0.0000 
     35 O          33.8430   41.8015   26.1450 O.2       1 ALC1        0.0000 
     36 O          33.2440   42.6240   25.3760 O.2       9 ALL1        0.0000 
     37 O          34.4420   40.9790   26.9140 O.2       5 ALP1        0.0000 
     38 CA         31.4070   43.4585   23.6325 C.3       4 GLC5        0.0000 
     39 CA         32.7430   41.8400   23.1550 C.3      12 GLL5        0.0000 
     40 CA         31.1035   40.9075   23.0925 C.3       4 GLC5        0.0000 
     41 CA         29.4640   39.9750   23.0300 C.3       8 GLP5        0.0000 
     42 N          32.7525   39.6345   18.9775 N.am      2 SEC2        0.0000 
     43 N          33.2650   39.5010   20.3950 N.am     10 SEL2        0.0000 
     44 N          32.2400   39.7680   17.5600 N.am      6 SEP2        0.0000 
     45 CA         31.7840   38.8850   19.9795 C.3       4 GLC5        0.0000 
     46 CA         33.4620   38.6830   21.4600 C.3      12 GLL5        0.0000 
     47 CA         30.1060   39.0870   18.4990 C.3       8 GLP5        0.0000 
     48 CA         32.6490   35.7340   21.9145 C.3       4 GLC5        0.0000 
     49 CA         33.7560   37.3330   21.6180 C.3      12 GLL5        0.0000 
     50 CA         31.5420   34.1350   22.2110 C.3       8 GLP5        0.0000 
     51 O          34.0090   35.0080   20.7515 O.2       1 ALC1        0.0000 
     52 O          33.9250   36.5000   20.5830 O.2       9 ALL1        0.0000 
     53 O          34.0930   33.5160   20.9200 O.2       5 ALP1        0.0000 
     54 O          33.9585   36.6780   19.1790 O.2       1 ALC1        0.0000 
     55 O          33.9920   36.8560   17.7750 O.2       5 ALP1        0.0000 
     56 N          33.6965   35.4025   23.2655 N.am      2 SEC2        0.0000 
     57 N          33.8690   36.8180   22.8970 N.am     10 SEL2        0.0000 
     58 N          33.5240   33.9870   23.6340 N.am      6 SEP2        0.0000 
     59 CA         32.6780   38.3300   25.4410 C.3       4 GLC5        0.0000 
     60 CA         33.7030   37.6050   24.0130 C.3      12 GLL5        0.0000 
     61 CA         31.6530   39.0550   26.8690 C.3       8 GLP5        0.0000 
     62 CA         35.1045   38.5260   25.0255 C.3       4 GLC5        0.0000 
     63 CA         35.4365   37.5880   22.7635 C.3       4 GLC5        0.0000 
     64 CA         37.1700   37.5710   21.5140 C.3       8 GLP5        0.0000 
     65 CA         34.4465   35.9890   24.6615 C.3       4 GLC5        0.0000 
     66 CA         35.1900   34.3730   25.3100 C.3       8 GLP5        0.0000 
     67 CA         31.8740   36.8355   23.5205 C.3       4 GLC5        0.0000 
     68 CA         30.0450   36.0660   23.0280 C.3       8 GLP5        0.0000 
     69 CA         34.0700   44.8500   24.8460 C.3       4 GLC5        0.0000 
     70 CA         34.2170   46.0290   26.5920 C.3       8 GLP5        0.0000 
     71 CA         31.4245   39.5228   22.5330 C.3       4 GLC5        0.0000 
     72 CA         35.3143   38.1520   21.7948 C.3       4 GLC5        0.0000 
     73 CA         33.3080   39.4580   22.6120 C.3      12 GLL5        0.0000 
@<TRIPOS>BOND
@<TRIPOS>SUBSTRUCTURE
     1 ALC1        4 GROUP        1 X    ALC  0     ROOT ALC X 1
     2 SEC2       15 GROUP        1 X    SEC  0     **** SEC X 2
     3 ASC3        1 GROUP        1 X    ASC  0     **** ASC X 3
     4 GLC5        7 GROUP        1 X    GLC  0     **** GLC X 6
     5 ALP1        6 GROUP        1 Y    ALP  0     ROOT ALP Y 8
     6 SEP2       17 GROUP        1 Y    SEP  0     **** SEP Y 9
     7 ASP3        3 GROUP        1 Y    ASP  0     **** ASP Y 10
     8 GLP5        9 GROUP        1 Y    GLP  0     **** GLP Y 13
     9 ALL1        5 GROUP        1 Z    ALL  0     ROOT ALL Z 15
    10 SEL2       16 GROUP        1 Z    SEL  0     **** SEL Z 16
    11 ASL3        2 GROUP        1 Z    ASL  0     **** ASL Z 17
    12 GLL5        8 GROUP        1 Z    GLL  0     **** GLL Z 20
@<TRIPOS>SET

