#    Name: 2ha8_SAH_1_ligand
#    Modification time : Tue Mar 25 15:47:10 2014

@<TRIPOS>MOLECULE
2ha8_SAH_1_ligand
   46    48     1     0     0
SMALL
NO_CHARGES


@<TRIPOS>ATOM
      1 N          38.3370   43.2950   20.5620 N.4       1 SAH401      0.0000 
      2 CA         37.5980   43.9100   19.4160 C.3       1 SAH401      0.0000 
      3 CB         37.1440   45.3130   19.7940 C.3       1 SAH401      0.0000 
      4 CG         35.9980   45.3070   20.7840 C.3       1 SAH401      0.0000 
      5 SD         34.6860   44.1500   20.3220 S.3       1 SAH401      0.0000 
      6 C          38.4470   43.9570   18.1490 C.2       1 SAH401      0.0000 
      7 O          39.6380   43.6420   18.1950 O.co2     1 SAH401      0.0000 
      8 OXT        37.9690   44.3140   17.0630 O.co2     1 SAH401      0.0000 
      9 C5'        33.6510   44.9180   21.5930 C.3       1 SAH401      0.0000 
     10 C4'        33.3310   44.0240   22.7810 C.3       1 SAH401      0.0000 
     11 O4'        32.4480   43.0010   22.3920 O.3       1 SAH401      0.0000 
     12 C3'        34.5150   43.3180   23.4190 C.3       1 SAH401      0.0000 
     13 O3'        35.2810   44.1290   24.2780 O.3       1 SAH401      0.0000 
     14 C2'        33.8390   42.1840   24.1530 C.3       1 SAH401      0.0000 
     15 O2'        33.2440   42.6240   25.3760 O.3       1 SAH401      0.0000 
     16 C1'        32.7430   41.8400   23.1550 C.3       1 SAH401      0.0000 
     17 N9         33.0460   40.7310   22.2280 N.pl3     1 SAH401      0.0000 
     18 C8         33.0080   40.7500   20.8330 C.2       1 SAH401      0.0000 
     19 N7         33.2650   39.5010   20.3950 N.2       1 SAH401      0.0000 
     20 C5         33.4620   38.6830   21.4600 C.ar      1 SAH401      0.0000 
     21 C6         33.7560   37.3330   21.6180 C.ar      1 SAH401      0.0000 
     22 N6         33.9250   36.5000   20.5830 N.pl3     1 SAH401      0.0000 
     23 N1         33.8690   36.8180   22.8970 N.ar      1 SAH401      0.0000 
     24 C2         33.7030   37.6050   24.0130 C.ar      1 SAH401      0.0000 
     25 N3         33.4340   38.9380   23.8730 N.ar      1 SAH401      0.0000 
     26 C4         33.3080   39.4580   22.6120 C.ar      1 SAH401      0.0000 
     27 H          36.7080   43.3181   19.2083 H         1 SAH401      0.0000 
     28 H          36.8353   45.8460   18.8845 H         1 SAH401      0.0000 
     29 H          37.9936   45.8595   20.2254 H         1 SAH401      0.0000 
     30 H          35.4689   46.2407   20.8398 H         1 SAH401      0.0000 
     31 H          36.2732   44.9599   21.7631 H         1 SAH401      0.0000 
     32 H          32.7750   45.2128   21.0276 H         1 SAH401      0.0000 
     33 H          34.2276   45.7962   21.8579 H         1 SAH401      0.0000 
     34 H          32.8566   44.6348   23.5581 H         1 SAH401      0.0000 
     35 H          35.0871   42.8725   22.6166 H         1 SAH401      0.0000 
     36 H          34.4864   41.3788   24.2308 H         1 SAH401      0.0000 
     37 H          31.8435   41.5717   23.7405 H         1 SAH401      0.0000 
     38 H          32.8291   41.5251   20.3071 H         1 SAH401      0.0000 
     39 H          34.1062   35.5438   20.8128 H         1 SAH401      0.0000 
     40 H          33.8548   36.9089   19.6731 H         1 SAH401      0.0000 
     41 H          33.7823   37.1853   24.9547 H         1 SAH401      0.0000 
     42 H          39.2750   43.0541   20.3126 H         1 SAH401      0.0000 
     43 H          38.3919   43.9154   21.3444 H         1 SAH401      0.0000 
     44 H          37.8946   42.4574   20.8826 H         1 SAH401      0.0000 
     45 H          36.1441   43.6379   24.3961 H         1 SAH401      0.0000 
     46 H          33.9283   42.4333   26.0798 H         1 SAH401      0.0000 
@<TRIPOS>BOND
     1    2    1 1    
     2   42    1 1    
     3   43    1 1    
     4   44    1 1    
     5    3    2 1    
     6    6    2 1    
     7   27    2 1    
     8    4    3 1    
     9   28    3 1    
    10   29    3 1    
    11    5    4 1    
    12   30    4 1    
    13   31    4 1    
    14    9    5 1    
    15    7    6 ar   
    16    8    6 ar   
    17   10    9 1    
    18   32    9 1    
    19   33    9 1    
    20   11   10 1    
    21   12   10 1    
    22   34   10 1    
    23   16   11 1    
    24   13   12 1    
    25   14   12 1    
    26   35   12 1    
    27   45   13 1    
    28   15   14 1    
    29   16   14 1    
    30   36   14 1    
    31   46   15 1    
    32   17   16 1    
    33   37   16 1    
    34   18   17 1    
    35   26   17 1    
    36   19   18 2    
    37   38   18 1    
    38   20   19 1    
    39   21   20 ar   
    40   26   20 ar   
    41   22   21 1    
    42   23   21 ar   
    43   39   22 1    
    44   40   22 1    
    45   24   23 ar   
    46   25   24 ar   
    47   41   24 1    
    48   26   25 ar   
@<TRIPOS>SUBSTRUCTURE
     1 SAH401      1 GROUP   
@<TRIPOS>SET

