#    Name: 2ffq_GSP_1_INTS_M
#    Modification time : Tue Mar 25 12:32:40 2014

@<TRIPOS>MOLECULE
2ffq_GSP_1_INTS_M
   98     0    15     0     0
SMALL
NO_CHARGES


@<TRIPOS>ATOM
      1 N          11.5965   32.3430   28.2360 N.am      2 SEC2        0.0000 
      2 N          12.8310   32.9900   27.8380 N.am     12 SEL2        0.0000 
      3 N          10.3620   31.6960   28.6340 N.am      7 SEP2        0.0000 
      4 CA          9.5665   34.4545   28.1015 C.3       5 GLC5        0.0000 
      5 CA         11.1810   35.1060   28.2000 C.3      15 GLL5        0.0000 
      6 CA          7.9520   33.8030   28.0030 C.3      10 GLP5        0.0000 
      7 CA         11.4500   35.0105   30.1990 C.3       5 GLC5        0.0000 
      8 CA         11.7190   34.9150   32.1980 C.3      10 GLP5        0.0000 
      9 CA         11.9195   36.6300   29.5020 C.3       5 GLC5        0.0000 
     10 CA         12.6580   38.1540   30.8040 C.3      10 GLP5        0.0000 
     11 CA         10.4205   35.1060   26.1085 C.3       5 GLC5        0.0000 
     12 CA          9.6600   35.1060   24.0170 C.3      10 GLP5        0.0000 
     13 CA          9.7935   36.5360   28.2120 C.3       5 GLC5        0.0000 
     14 CA          8.4060   37.9660   28.2240 C.3      10 GLP5        0.0000 
     15 Zn         14.9175   34.7965   27.0735 Zn        4 ZIC7        0.0000 
     16 Zn         13.9260   35.0800   27.3450 Zn       14 ZIL7        0.0000 
     17 Zn         15.9090   34.5130   26.8020 Zn        9 ZIP7        0.0000 
     18 N          14.3540   36.4635   27.8260 N.am      2 SEC2        0.0000 
     19 N          13.9260   35.0800   27.3450 N.am     12 SEL2        0.0000 
     20 N          14.7820   37.8470   28.3070 N.am      7 SEP2        0.0000 
     21 N          11.9670   33.1710   25.0010 N.am      2 SEC2        0.0000 
     22 N          12.0120   34.3750   25.8170 N.am     12 SEL2        0.0000 
     23 N          11.9220   31.9670   24.1850 N.am      7 SEP2        0.0000 
     24 N          11.4475   35.1305   24.9275 N.am      2 SEC2        0.0000 
     25 N          10.8830   35.8860   24.0380 N.am      7 SEP2        0.0000 
     26 NZ         12.5920   31.5275   25.2695 N.4       3 LYC4        0.0000 
     27 NZ         13.2620   31.0880   26.3540 N.4      13 LYL4        0.0000 
     28 NZ         11.9220   31.9670   24.1850 N.4       8 LYP4        0.0000 
     29 N          12.1835   30.0545   27.1260 N.am      2 SEC2        0.0000 
     30 N          13.2620   31.0880   26.3540 N.am     12 SEL2        0.0000 
     31 N          11.1050   29.0210   27.8980 N.am      7 SEP2        0.0000 
     32 N          13.4455   29.6215   26.9150 N.am      2 SEC2        0.0000 
     33 N          13.6290   28.1550   27.4760 N.am      7 SEP2        0.0000 
     34 N          14.3425   30.1060   25.9250 N.am      2 SEC2        0.0000 
     35 N          15.4230   29.1240   25.4960 N.am      7 SEP2        0.0000 
     36 N          12.5920   31.5275   25.2695 N.am      2 SEC2        0.0000 
     37 Zn         15.6170   33.4065   26.8680 Zn        4 ZIC7        0.0000 
     38 Zn         15.3250   32.3000   26.9340 Zn       14 ZIL7        0.0000 
     39 N          16.4500   31.7055   26.2645 N.am      2 SEC2        0.0000 
     40 N          15.3250   32.3000   26.9340 N.am     12 SEL2        0.0000 
     41 N          17.5750   31.1110   25.5950 N.am      7 SEP2        0.0000 
     42 N          17.9240   30.1505   28.2335 N.am      2 SEC2        0.0000 
     43 N          16.6850   30.4210   28.9020 N.am     12 SEL2        0.0000 
     44 N          19.1630   29.8800   27.5650 N.am      7 SEP2        0.0000 
     45 N          17.6285   29.7350   29.5915 N.am      2 SEC2        0.0000 
     46 N          18.5720   29.0490   30.2810 N.am      7 SEP2        0.0000 
     47 N          13.9330   29.5695   28.0905 N.am      2 SEC2        0.0000 
     48 N          14.2370   30.9840   28.7050 N.am     12 SEL2        0.0000 
     49 CA         12.3880   30.4930   30.6060 C.3       5 GLC5        0.0000 
     50 CA         13.8550   30.2160   31.6040 C.3      15 GLL5        0.0000 
     51 CA         10.9210   30.7700   29.6080 C.3      10 GLP5        0.0000 
     52 N          13.0070   27.2405   32.3595 N.am      2 SEC2        0.0000 
     53 N          14.2660   28.1300   32.7530 N.am     12 SEL2        0.0000 
     54 N          11.7480   26.3510   31.9660 N.am      7 SEP2        0.0000 
     55 CA         15.5620   31.8155   34.4270 C.3       5 GLC5        0.0000 
     56 CA         15.4400   30.0490   33.6150 C.3      15 GLL5        0.0000 
     57 CA         15.6840   33.5820   35.2390 C.3      10 GLP5        0.0000 
     58 O          16.1955   29.8850   36.0805 O.2       1 ALC1        0.0000 
     59 O          15.2030   30.1330   35.0400 O.2      11 ALL1        0.0000 
     60 O          17.1880   29.6370   37.1210 O.2       6 ALP1        0.0000 
     61 O          18.8785   29.3705   34.5280 O.2       1 ALC1        0.0000 
     62 O          17.5110   28.7500   34.2480 O.2      11 ALL1        0.0000 
     63 O          20.2460   29.9910   34.8080 O.2       6 ALP1        0.0000 
     64 O          18.3260   29.7665   33.3820 O.2       1 ALC1        0.0000 
     65 O          19.1410   30.7830   32.5160 O.2       6 ALP1        0.0000 
     66 CA         14.0220   26.5480   32.1500 C.3       5 GLC5        0.0000 
     67 CA         15.5220   27.6290   33.2670 C.3      15 GLL5        0.0000 
     68 CA         12.5220   25.4670   31.0330 C.3      10 GLP5        0.0000 
     69 N          16.0715   24.8665   29.1560 N.am      2 SEC2        0.0000 
     70 N          16.6950   25.4880   30.4530 N.am     12 SEL2        0.0000 
     71 N          15.4480   24.2450   27.8590 N.am      7 SEP2        0.0000 
     72 CA         14.8590   23.8590   30.9860 C.3       5 GLC5        0.0000 
     73 CA         16.4440   24.5980   31.4990 C.3      15 GLL5        0.0000 
     74 CA         13.2740   23.1200   30.4730 C.3      10 GLP5        0.0000 
     75 CA         18.1390   24.6470   30.1475 C.3       5 GLC5        0.0000 
     76 CA         19.8340   24.6960   28.7960 C.3      10 GLP5        0.0000 
     77 CA         18.0155   23.5070   32.6050 C.3       5 GLC5        0.0000 
     78 CA         19.5870   22.4160   33.7110 C.3      10 GLP5        0.0000 
     79 N          18.1830   22.4240   29.7450 N.am      2 SEC2        0.0000 
     80 N          17.0210   22.5440   30.5310 N.am     12 SEL2        0.0000 
     81 N          19.3450   22.3040   28.9590 N.am      7 SEP2        0.0000 
     82 N          18.6450   22.6600   30.9565 N.am      2 SEC2        0.0000 
     83 N          20.2690   22.7760   31.3820 N.am      7 SEP2        0.0000 
     84 O          16.4115   21.2860   32.7985 O.2       1 ALC1        0.0000 
     85 O          16.2710   22.6430   32.7710 O.2      11 ALL1        0.0000 
     86 O          16.5520   19.9290   32.8260 O.2       6 ALP1        0.0000 
     87 O          16.3240   21.3545   33.8940 O.2       1 ALC1        0.0000 
     88 O          16.3770   20.0660   35.0170 O.2       6 ALP1        0.0000 
     89 O          15.9465   21.4015   35.0180 O.2       1 ALC1        0.0000 
     90 O          15.5160   22.7370   35.0190 O.2      11 ALL1        0.0000 
     91 CA         14.2625   25.3670   31.8350 C.3       5 GLC5        0.0000 
     92 CA         16.0030   25.2670   32.6370 C.3      15 GLL5        0.0000 
     93 CA         13.7863   31.7428   32.5907 C.3       5 GLC5        0.0000 
     94 CA         14.0940   29.5790   32.9490 C.3      15 GLL5        0.0000 
     95 CA         13.5980   33.5880   32.9050 C.3      10 GLP5        0.0000 
     96 CA         17.6472   27.1932   33.6540 C.3       5 GLC5        0.0000 
     97 CA         16.4510   28.8800   33.2910 C.3      15 GLL5        0.0000 
     98 CA         19.3080   26.1320   34.0290 C.3      10 GLP5        0.0000 
@<TRIPOS>BOND
@<TRIPOS>SUBSTRUCTURE
     1 ALC1       58 GROUP        1 X    ALC  0     ROOT ALC X 1
     2 SEC2        1 GROUP        1 X    SEC  0     **** SEC X 2
     3 LYC4       26 GROUP        1 X    LYC  0     **** LYC X 4
     4 ZIC7       15 GROUP        1 X    ZIC  0     **** ZIC X 5
     5 GLC5        4 GROUP        1 X    GLC  0     **** GLC X 6
     6 ALP1       60 GROUP        1 Y    ALP  0     ROOT ALP Y 8
     7 SEP2        3 GROUP        1 Y    SEP  0     **** SEP Y 9
     8 LYP4       28 GROUP        1 Y    LYP  0     **** LYP Y 11
     9 ZIP7       17 GROUP        1 Y    ZIP  0     **** ZIP Y 12
    10 GLP5        6 GROUP        1 Y    GLP  0     **** GLP Y 13
    11 ALL1       59 GROUP        1 Z    ALL  0     ROOT ALL Z 15
    12 SEL2        2 GROUP        1 Z    SEL  0     **** SEL Z 16
    13 LYL4       27 GROUP        1 Z    LYL  0     **** LYL Z 18
    14 ZIL7       16 GROUP        1 Z    ZIL  0     **** ZIL Z 19
    15 GLL5        5 GROUP        1 Z    GLL  0     **** GLL Z 20
@<TRIPOS>SET

