#    Name: 2ffq_GSP_1_ligand
#    Modification time : Tue Mar 25 12:32:40 2014

@<TRIPOS>MOLECULE
2ffq_GSP_1_ligand
   45    47     1     0     0
SMALL
NO_CHARGES


@<TRIPOS>ATOM
      1 PG         12.6140   34.4780   27.1750 P.3       1 GSP355      0.0000 
      2 O3B        12.8310   32.9900   27.8380 O.3       1 GSP355      0.0000 
      3 S1G        11.1810   35.1060   28.2000 S.2       1 GSP355      0.0000 
      4 O2G        13.9260   35.0800   27.3450 O.3       1 GSP355      0.0000 
      5 O3G        12.0120   34.3750   25.8170 O.3       1 GSP355      0.0000 
      6 PB         13.9810   31.8550   27.3760 P.3       1 GSP355      0.0000 
      7 O1B        13.2620   31.0880   26.3540 O.co2     1 GSP355      0.0000 
      8 O2B        15.3250   32.3000   26.9340 O.co2     1 GSP355      0.0000 
      9 PA         15.5020   30.9870   29.6190 P.3       1 GSP355      0.0000 
     10 O1A        16.6850   30.4210   28.9020 O.co2     1 GSP355      0.0000 
     11 O2A        15.5310   32.3180   30.2790 O.co2     1 GSP355      0.0000 
     12 O3A        14.2370   30.9840   28.7050 O.3       1 GSP355      0.0000 
     13 O5'        15.0130   29.9140   30.7480 O.3       1 GSP355      0.0000 
     14 C5'        13.8550   30.2160   31.6040 C.3       1 GSP355      0.0000 
     15 C4'        14.0940   29.5790   32.9490 C.3       1 GSP355      0.0000 
     16 O4'        14.2660   28.1300   32.7530 O.3       1 GSP355      0.0000 
     17 C3'        15.4400   30.0490   33.6150 C.3       1 GSP355      0.0000 
     18 O3'        15.2030   30.1330   35.0400 O.3       1 GSP355      0.0000 
     19 C2'        16.4510   28.8800   33.2910 C.3       1 GSP355      0.0000 
     20 O2'        17.5110   28.7500   34.2480 O.3       1 GSP355      0.0000 
     21 C1'        15.5220   27.6290   33.2670 C.3       1 GSP355      0.0000 
     22 N9         15.9540   26.5900   32.3030 N.pl3     1 GSP355      0.0000 
     23 C8         16.3800   26.6340   30.9840 C.2       1 GSP355      0.0000 
     24 N7         16.6950   25.4880   30.4530 N.2       1 GSP355      0.0000 
     25 C5         16.4440   24.5980   31.4990 C.2       1 GSP355      0.0000 
     26 C6         16.6270   23.1660   31.5120 C.2       1 GSP355      0.0000 
     27 O6         17.0210   22.5440   30.5310 O.2       1 GSP355      0.0000 
     28 N1         16.2710   22.6430   32.7710 N.am      1 GSP355      0.0000 
     29 C2         15.8100   23.3650   33.8910 C.2       1 GSP355      0.0000 
     30 N2         15.5160   22.7370   35.0190 N.pl3     1 GSP355      0.0000 
     31 N3         15.6600   24.7190   33.8640 N.2       1 GSP355      0.0000 
     32 C4         16.0030   25.2670   32.6370 C.2       1 GSP355      0.0000 
     33 H          12.9457   29.8084   31.1739 H         1 GSP355      0.0000 
     34 H          13.7447   31.2880   31.7327 H         1 GSP355      0.0000 
     35 H          13.3061   29.7700   33.6183 H         1 GSP355      0.0000 
     36 H          15.7525   30.9139   33.1643 H         1 GSP355      0.0000 
     37 H          16.7834   29.0358   32.2849 H         1 GSP355      0.0000 
     38 H          15.4100   27.2578   34.2343 H         1 GSP355      0.0000 
     39 H          16.4285   27.5257   30.4995 H         1 GSP355      0.0000 
     40 H          16.3602   21.5807   32.8908 H         1 GSP355      0.0000 
     41 H          15.6349   21.7441   35.0137 H         1 GSP355      0.0000 
     42 H          15.2017   23.3125   35.7740 H         1 GSP355      0.0000 
     43 H          12.7887   34.3958   25.1875 H         1 GSP355      0.0000 
     44 H          15.8283   29.4666   35.4459 H         1 GSP355      0.0000 
     45 H          18.2620   29.2971   33.8782 H         1 GSP355      0.0000 
@<TRIPOS>BOND
     1    2    1 1    
     2    3    1 2    
     3    4    1 1    
     4    5    1 1    
     5    6    2 1    
     6   43    5 1    
     7    7    6 ar   
     8    8    6 ar   
     9   12    6 1    
    10   10    9 ar   
    11   11    9 ar   
    12   12    9 1    
    13   13    9 1    
    14   14   13 1    
    15   15   14 1    
    16   33   14 1    
    17   34   14 1    
    18   16   15 1    
    19   17   15 1    
    20   35   15 1    
    21   21   16 1    
    22   18   17 1    
    23   19   17 1    
    24   36   17 1    
    25   44   18 1    
    26   20   19 1    
    27   21   19 1    
    28   37   19 1    
    29   45   20 1    
    30   22   21 1    
    31   38   21 1    
    32   23   22 1    
    33   32   22 1    
    34   24   23 2    
    35   39   23 1    
    36   25   24 1    
    37   26   25 1    
    38   32   25 2    
    39   27   26 2    
    40   28   26 am   
    41   29   28 1    
    42   40   28 1    
    43   30   29 1    
    44   31   29 2    
    45   41   30 1    
    46   42   30 1    
    47   32   31 1    
@<TRIPOS>SUBSTRUCTURE
     1 GSP355      1 GROUP   
@<TRIPOS>SET

