#    Name: 2g70_SAM_1_INTS_M
#    Modification time : Tue Mar 25 13:36:40 2014

@<TRIPOS>MOLECULE
2g70_SAM_1_INTS_M
   77     0     9     0     0
SMALL
NO_CHARGES


@<TRIPOS>ATOM
      1 O          25.3825   53.4570   18.4755 O.2       1 ALC1        0.0000 
      2 O          25.8810   52.4820   17.4090 O.2       7 ALL1        0.0000 
      3 O          24.8840   54.4320   19.5420 O.2       4 ALP1        0.0000 
      4 O          24.9240   51.6105   18.0860 O.2       1 ALC1        0.0000 
      5 O          23.9670   50.7390   18.7630 O.2       4 ALP1        0.0000 
      6 CA         28.0045   51.8085   15.1680 C.3       3 GLC5        0.0000 
      7 CA         27.0160   51.7730   16.8330 C.3       9 GLL5        0.0000 
      8 CA         28.9930   51.8440   13.5030 C.3       6 GLP5        0.0000 
      9 N          24.5575   49.6665   14.6375 N.am      2 SEC2        0.0000 
     10 N          25.4030   50.4520   15.6370 N.am      8 SEL2        0.0000 
     11 N          23.7120   48.8810   13.6380 N.am      5 SEP2        0.0000 
     12 N          28.2690   49.0070   16.5725 N.am      2 SEC2        0.0000 
     13 N          27.4630   49.6770   15.7320 N.am      8 SEL2        0.0000 
     14 N          29.0750   48.3370   17.4130 N.am      5 SEP2        0.0000 
     15 N          27.1635   48.9300   14.7525 N.am      2 SEC2        0.0000 
     16 N          26.8640   48.1830   13.7730 N.am      5 SEP2        0.0000 
     17 CA         28.8895   53.3225   18.0190 C.3       3 GLC5        0.0000 
     18 CA         28.0480   51.4330   17.9420 C.3       9 GLL5        0.0000 
     19 CA         29.7310   55.2120   18.0960 C.3       6 GLP5        0.0000 
     20 CA         26.2930   49.3340   19.2095 C.3       3 GLC5        0.0000 
     21 CA         27.5220   50.7250   19.2040 C.3       9 GLL5        0.0000 
     22 CA         25.0640   47.9430   19.2150 C.3       6 GLP5        0.0000 
     23 CA         29.6345   49.4825   18.8915 C.3       3 GLC5        0.0000 
     24 CA         28.8420   50.4150   20.4710 C.3       9 GLL5        0.0000 
     25 CA         30.4270   48.5500   17.3120 C.3       6 GLP5        0.0000 
     26 CA         30.1785   48.2735   19.4275 C.3       3 GLC5        0.0000 
     27 CA         29.0470   48.6790   20.7190 C.3       9 GLL5        0.0000 
     28 CA         31.3100   47.8680   18.1360 C.3       6 GLP5        0.0000 
     29 CA         27.0555   48.3110   19.9670 C.3       3 GLC5        0.0000 
     30 CA         28.1135   48.2010   22.5265 C.3       3 GLC5        0.0000 
     31 CA         27.1800   47.7230   24.3340 C.3       6 GLP5        0.0000 
     32 CA         30.3245   47.8650   21.7455 C.3       3 GLC5        0.0000 
     33 CA         31.6020   47.0510   22.7720 C.3       6 GLP5        0.0000 
     34 CA         26.3545   51.0160   22.5875 C.3       3 GLC5        0.0000 
     35 CA         28.4310   51.2060   22.1050 C.3       9 GLL5        0.0000 
     36 CA         24.2780   50.8260   23.0700 C.3       6 GLP5        0.0000 
     37 CA         27.8055   49.4645   23.2195 C.3       3 GLC5        0.0000 
     38 CA         29.9205   54.1625   20.0470 C.3       3 GLC5        0.0000 
     39 CA         30.1100   53.1130   21.9980 C.3       9 GLL5        0.0000 
     40 O          29.5810   55.2115   21.1105 O.2       1 ALC1        0.0000 
     41 O          30.2410   54.0360   20.9230 O.2       7 ALL1        0.0000 
     42 O          28.9210   56.3870   21.2980 O.2       4 ALP1        0.0000 
     43 O          31.2020   55.9475   22.1660 O.2       1 ALC1        0.0000 
     44 O          31.4230   54.7770   23.2690 O.2       7 ALL1        0.0000 
     45 O          30.9810   57.1180   21.0630 O.2       4 ALP1        0.0000 
     46 CA         29.6535   56.0530   24.9080 C.3       3 GLC5        0.0000 
     47 CA         29.1280   54.2740   23.8190 C.3       9 GLL5        0.0000 
     48 CA         30.1790   57.8320   25.9970 C.3       6 GLP5        0.0000 
     49 CA         28.3655   52.9490   25.2395 C.3       3 GLC5        0.0000 
     50 CA         27.6030   51.6240   26.6600 C.3       6 GLP5        0.0000 
     51 CA         26.6270   57.5460   28.6760 C.3       3 GLC5        0.0000 
     52 CA         27.4800   55.7240   28.2000 C.3       9 GLL5        0.0000 
     53 CA         25.7740   59.3680   29.1520 C.3       6 GLP5        0.0000 
     54 CA         25.4035   55.2965   28.4225 C.3       3 GLC5        0.0000 
     55 CA         23.3270   54.8690   28.6450 C.3       6 GLP5        0.0000 
     56 CA         27.2390   53.5780   28.1185 C.3       3 GLC5        0.0000 
     57 CA         26.9980   51.4320   28.0370 C.3       6 GLP5        0.0000 
     58 N          25.1405   57.0175   28.3105 N.am      2 SEC2        0.0000 
     59 N          26.3190   56.2550   27.7170 N.am      8 SEL2        0.0000 
     60 N          23.9620   57.7800   28.9040 N.am      5 SEP2        0.0000 
     61 CA         28.1295   57.0055   26.1890 C.3       3 GLC5        0.0000 
     62 CA         26.0800   56.1790   26.3810 C.3       9 GLL5        0.0000 
     63 CA         25.7670   58.1370   25.3340 C.3       3 GLC5        0.0000 
     64 CA         25.4540   60.0950   24.2870 C.3       6 GLP5        0.0000 
     65 CA         25.9270   57.7735   27.7665 C.3       3 GLC5        0.0000 
     66 CA         24.2565   56.2665   26.6125 C.3       3 GLC5        0.0000 
     67 CA         22.4330   56.3540   26.8440 C.3       6 GLP5        0.0000 
     68 CA         25.2110   54.7945   25.2555 C.3       3 GLC5        0.0000 
     69 CA         24.3420   53.4100   24.1300 C.3       6 GLP5        0.0000 
     70 CA         26.1675   54.2630   25.0285 C.3       3 GLC5        0.0000 
     71 CA         27.9930   55.1160   25.9270 C.3       9 GLL5        0.0000 
     72 CA         29.1060   49.8145   17.9425 C.3       3 GLC5        0.0000 
     73 CA         31.1863   52.0407   23.7662 C.3       3 GLC5        0.0000 
     74 CA         32.0800   50.6590   24.8600 C.3       6 GLP5        0.0000 
     75 CA         27.8897   53.3720   26.6283 C.3       3 GLC5        0.0000 
     76 CA         28.3600   55.1240   27.2660 C.3       9 GLL5        0.0000 
     77 CA         29.0678   56.5510   26.4135 C.3       3 GLC5        0.0000 
@<TRIPOS>BOND
@<TRIPOS>SUBSTRUCTURE
     1 ALC1        1 GROUP        1 X    ALC  0     ROOT ALC X 1
     2 SEC2        9 GROUP        1 X    SEC  0     **** SEC X 2
     3 GLC5        6 GROUP        1 X    GLC  0     **** GLC X 6
     4 ALP1        3 GROUP        1 Y    ALP  0     ROOT ALP Y 8
     5 SEP2       11 GROUP        1 Y    SEP  0     **** SEP Y 9
     6 GLP5        8 GROUP        1 Y    GLP  0     **** GLP Y 13
     7 ALL1        2 GROUP        1 Z    ALL  0     ROOT ALL Z 15
     8 SEL2       10 GROUP        1 Z    SEL  0     **** SEL Z 16
     9 GLL5        7 GROUP        1 Z    GLL  0     **** GLL Z 20
@<TRIPOS>SET

