#    Name: 2g70_SAM_1_ligand
#    Modification time : Tue Mar 25 13:36:40 2014

@<TRIPOS>MOLECULE
2g70_SAM_1_ligand
   50    52     1     0     0
SMALL
NO_CHARGES


@<TRIPOS>ATOM
      1 N          25.8810   52.4820   17.4090 N.4       1 SAM2001     0.0000 
      2 CA         27.0160   51.7730   16.8330 C.3       1 SAM2001     0.0000 
      3 C          26.5960   50.5340   16.0170 C.2       1 SAM2001     0.0000 
      4 O          25.4030   50.4520   15.6370 O.co2     1 SAM2001     0.0000 
      5 OXT        27.4630   49.6770   15.7320 O.co2     1 SAM2001     0.0000 
      6 CB         28.0480   51.4330   17.9420 C.3       1 SAM2001     0.0000 
      7 CG         27.5220   50.7250   19.2040 C.3       1 SAM2001     0.0000 
      8 SD         28.8420   50.4150   20.4710 S.3       1 SAM2001     0.0000 
      9 CE         29.0470   48.6790   20.7190 C.3       1 SAM2001     0.0000 
     10 C5'        28.4310   51.2060   22.1050 C.3       1 SAM2001     0.0000 
     11 C4'        28.6450   52.7070   22.1720 C.3       1 SAM2001     0.0000 
     12 O4'        28.1960   53.2890   23.4260 O.3       1 SAM2001     0.0000 
     13 C3'        30.1100   53.1130   21.9980 C.3       1 SAM2001     0.0000 
     14 O3'        30.2410   54.0360   20.9230 O.3       1 SAM2001     0.0000 
     15 C2'        30.4750   53.7320   23.3470 C.3       1 SAM2001     0.0000 
     16 O2'        31.4230   54.7770   23.2690 O.3       1 SAM2001     0.0000 
     17 C1'        29.1280   54.2740   23.8190 C.3       1 SAM2001     0.0000 
     18 N9         29.0300   54.4930   25.2670 N.pl3     1 SAM2001     0.0000 
     19 C8         29.9680   54.1460   26.2890 C.2       1 SAM2001     0.0000 
     20 N7         29.5890   54.5170   27.4890 N.2       1 SAM2001     0.0000 
     21 C5         28.3600   55.1240   27.2660 C.ar      1 SAM2001     0.0000 
     22 C6         27.4800   55.7240   28.2000 C.ar      1 SAM2001     0.0000 
     23 N6         27.7250   55.7980   29.5090 N.pl3     1 SAM2001     0.0000 
     24 N1         26.3190   56.2550   27.7170 N.ar      1 SAM2001     0.0000 
     25 C2         26.0800   56.1790   26.3810 C.ar      1 SAM2001     0.0000 
     26 N3         26.8510   55.6330   25.4100 N.ar      1 SAM2001     0.0000 
     27 C4         27.9930   55.1160   25.9270 C.ar      1 SAM2001     0.0000 
     28 H          27.5424   52.4573   16.1300 H         1 SAM2001     0.0000 
     29 H          28.5514   52.3781   18.2482 H         1 SAM2001     0.0000 
     30 H          28.8485   50.8047   17.4894 H         1 SAM2001     0.0000 
     31 H          27.1606   49.7331   19.0247 H         1 SAM2001     0.0000 
     32 H          26.8194   51.3064   19.7651 H         1 SAM2001     0.0000 
     33 H          29.0648   50.6365   22.7744 H         1 SAM2001     0.0000 
     34 H          27.3994   50.8983   22.2288 H         1 SAM2001     0.0000 
     35 H          28.0904   53.1762   21.3460 H         1 SAM2001     0.0000 
     36 H          30.6793   52.2233   21.8737 H         1 SAM2001     0.0000 
     37 H          30.7432   52.9409   24.0104 H         1 SAM2001     0.0000 
     38 H          28.9395   55.1918   23.2785 H         1 SAM2001     0.0000 
     39 H          30.8050   53.6719   26.0512 H         1 SAM2001     0.0000 
     40 H          27.0158   56.2307   30.0656 H         1 SAM2001     0.0000 
     41 H          28.5958   55.4141   29.8161 H         1 SAM2001     0.0000 
     42 H          25.1301   56.6219   26.0437 H         1 SAM2001     0.0000 
     43 H          26.1246   52.9409   18.2635 H         1 SAM2001     0.0000 
     44 H          25.5282   53.1835   16.7898 H         1 SAM2001     0.0000 
     45 H          25.1223   51.8638   17.6142 H         1 SAM2001     0.0000 
     46 H          29.3093   48.2117   19.8747 H         1 SAM2001     0.0000 
     47 H          29.7563   48.4817   21.3958 H         1 SAM2001     0.0000 
     48 H          28.2048   48.2481   21.0430 H         1 SAM2001     0.0000 
     49 H          29.7351   54.8474   21.2157 H         1 SAM2001     0.0000 
     50 H          31.1039   55.3606   22.5223 H         1 SAM2001     0.0000 
@<TRIPOS>BOND
     1    2    1 1    
     2   43    1 1    
     3   44    1 1    
     4   45    1 1    
     5    3    2 1    
     6    6    2 1    
     7   28    2 1    
     8    4    3 ar   
     9    5    3 ar   
    10    7    6 1    
    11   29    6 1    
    12   30    6 1    
    13    8    7 1    
    14   31    7 1    
    15   32    7 1    
    16    9    8 1    
    17   10    8 1    
    18   46    9 1    
    19   47    9 1    
    20   48    9 1    
    21   11   10 1    
    22   33   10 1    
    23   34   10 1    
    24   12   11 1    
    25   13   11 1    
    26   35   11 1    
    27   17   12 1    
    28   14   13 1    
    29   15   13 1    
    30   36   13 1    
    31   49   14 1    
    32   16   15 1    
    33   17   15 1    
    34   37   15 1    
    35   50   16 1    
    36   18   17 1    
    37   38   17 1    
    38   19   18 1    
    39   27   18 1    
    40   20   19 2    
    41   39   19 1    
    42   21   20 1    
    43   22   21 ar   
    44   27   21 ar   
    45   23   22 1    
    46   24   22 ar   
    47   40   23 1    
    48   41   23 1    
    49   25   24 ar   
    50   26   25 ar   
    51   42   25 1    
    52   27   26 ar   
@<TRIPOS>SUBSTRUCTURE
     1 SAM2001     1 GROUP   
@<TRIPOS>SET

