#    Name: 2ano_817_1_INTS_M
#    Modification time : Mon Mar 24 19:30:44 2014

@<TRIPOS>MOLECULE
2ano_817_1_INTS_M
   44     0     9     0     0
SMALL
NO_CHARGES


@<TRIPOS>ATOM
      1 O          33.0050   37.6425   11.7400 O.2       1 ALC1        0.0000 
      2 O          32.1430   38.6540   11.6440 O.2       7 ALL1        0.0000 
      3 O          33.8670   36.6310   11.8360 O.2       4 ALP1        0.0000 
      4 O          31.5855   35.9100   11.9690 O.2       1 ALC1        0.0000 
      5 O          30.6610   36.8790   11.8270 O.2       7 ALL1        0.0000 
      6 O          32.5100   34.9410   12.1110 O.2       4 ALP1        0.0000 
      7 O          32.2640   36.7550   11.8315 O.2       1 ALC1        0.0000 
      8 O          29.4080   36.0785   12.6430 O.2       1 ALC1        0.0000 
      9 O          28.1550   35.2780   13.4590 O.2       4 ALP1        0.0000 
     10 OD1        32.2640   36.7550   11.8315 O.co2     2 ASC3        0.0000 
     11 OD1        30.9230   38.2280   11.8090 O.co2     8 ASL3        0.0000 
     12 OD1        32.5100   34.9410   12.1110 O.co2     5 ASP3        0.0000 
     13 OD1        32.3950   37.4295   11.8225 O.co2     2 ASC3        0.0000 
     14 OD1        33.8670   36.6310   11.8360 O.co2     5 ASP3        0.0000 
     15 CA         33.2185   41.5525   11.6695 C.3       3 GLC5        0.0000 
     16 CA         31.6020   40.9950   10.9470 C.3       9 GLL5        0.0000 
     17 CA         34.8350   42.1100   12.3920 C.3       6 GLP5        0.0000 
     18 CA         30.3865   40.2925    9.6570 C.3       3 GLC5        0.0000 
     19 CA         29.1710   39.5900    8.3670 C.3       6 GLP5        0.0000 
     20 CA         29.8640   41.7430    9.2760 C.3       3 GLC5        0.0000 
     21 CA         31.0870   42.6070   10.3090 C.3       9 GLL5        0.0000 
     22 CA         28.6410   40.8790    8.2430 C.3       6 GLP5        0.0000 
     23 CA         29.0635   43.3285    9.9360 C.3       3 GLC5        0.0000 
     24 CA         27.0400   44.0500    9.5630 C.3       6 GLP5        0.0000 
     25 CA         31.7245   40.4055    6.1205 C.3       3 GLC5        0.0000 
     26 CA         33.3080   41.0520    6.0450 C.3       9 GLL5        0.0000 
     27 CA         30.1410   39.7590    6.1960 C.3       6 GLP5        0.0000 
     28 CA         33.2263   42.4938   11.1203 C.3       3 GLC5        0.0000 
     29 CA         32.1480   43.1480    9.3880 C.3       9 GLL5        0.0000 
     30 CA         34.1205   43.2935   10.8747 C.3       3 GLC5        0.0000 
     31 CA         32.9190   44.2290    9.7800 C.3       9 GLL5        0.0000 
     32 CA         33.6448   46.1073    7.3190 C.3       3 GLC5        0.0000 
     33 CA         33.8930   44.7250    8.9350 C.3       9 GLL5        0.0000 
     34 CA         33.2940   47.7810    6.3220 C.3       6 GLP5        0.0000 
     35 CA         31.3558   41.8845    5.7720 C.3       3 GLC5        0.0000 
     36 CA         33.5500   42.4290    5.9560 C.3       9 GLL5        0.0000 
     37 CA         29.5970   41.0570    6.0540 C.3       6 GLP5        0.0000 
     38 CA         32.0192   43.6680    4.3175 C.3       3 GLC5        0.0000 
     39 CA         32.6790   42.9950    5.0240 C.3       9 GLL5        0.0000 
     40 CA         30.9240   44.6240    3.1450 C.3       6 GLP5        0.0000 
     41 CA         30.9972   42.9125   12.2245 C.3       3 GLC5        0.0000 
     42 CA         30.6500   44.0240   13.8210 C.3       6 GLP5        0.0000 
     43 CA         34.6792   40.4860    6.7460 C.3       3 GLC5        0.0000 
     44 CA         35.5990   39.1780    7.5920 C.3       6 GLP5        0.0000 
@<TRIPOS>BOND
@<TRIPOS>SUBSTRUCTURE
     1 ALC1        1 GROUP        1 X    ALC  0     ROOT ALC X 1
     2 ASC3       10 GROUP        1 X    ASC  0     **** ASC X 3
     3 GLC5       15 GROUP        1 X    GLC  0     **** GLC X 6
     4 ALP1        3 GROUP        1 Y    ALP  0     ROOT ALP Y 8
     5 ASP3       12 GROUP        1 Y    ASP  0     **** ASP Y 10
     6 GLP5       17 GROUP        1 Y    GLP  0     **** GLP Y 13
     7 ALL1        2 GROUP        1 Z    ALL  0     ROOT ALL Z 15
     8 ASL3       11 GROUP        1 Z    ASL  0     **** ASL Z 17
     9 GLL5       16 GROUP        1 Z    GLL  0     **** GLL Z 20
@<TRIPOS>SET

