#    Name: 2ano_817_1_ligand
#    Modification time : Mon Mar 24 19:30:44 2014

@<TRIPOS>MOLECULE
2ano_817_1_ligand
   29    29     1     0     0
SMALL
NO_CHARGES


@<TRIPOS>ATOM
      1 N1         32.1430   38.6540   11.6440 N.pl3     1 817400      0.0000 
      2 C2         30.0980   40.4700   11.7010 C.2       1 817400      0.0000 
      3 N2         30.6610   36.8790   11.8270 N.pl3     1 817400      0.0000 
      4 N3         29.8920   39.1320   11.9740 N.pl3     1 817400      0.0000 
      5 C4         32.1480   43.1480    9.3880 C.ar      1 817400      0.0000 
      6 C6         33.8930   44.7250    8.9350 C.ar      1 817400      0.0000 
      7 C7         34.0980   44.1420    7.6970 C.ar      1 817400      0.0000 
      8 C9         33.5500   42.4290    5.9560 C.3       1 817400      0.0000 
      9 C10        32.3560   42.5650    8.1510 C.ar      1 817400      0.0000 
     10 C1         30.9230   38.2280   11.8090 C.cat     1 817400      0.0000 
     11 N4         29.1800   41.3440   12.0030 N.2       1 817400      0.0000 
     12 S1         31.6020   40.9950   10.9470 S.3       1 817400      0.0000 
     13 C3         31.0870   42.6070   10.3090 C.3       1 817400      0.0000 
     14 C5         32.9190   44.2290    9.7800 C.ar      1 817400      0.0000 
     15 C8         33.3280   43.0640    7.3040 C.ar      1 817400      0.0000 
     16 F1         34.8720   42.6430    5.5540 F         1 817400      0.0000 
     17 F2         33.3080   41.0520    6.0450 F         1 817400      0.0000 
     18 F3         32.6790   42.9950    5.0240 F         1 817400      0.0000 
     19 H          32.8414   37.9498   11.5160 H         1 817400      0.0000 
     20 H          32.2687   39.6459   11.6606 H         1 817400      0.0000 
     21 H          29.7154   36.6169   12.0198 H         1 817400      0.0000 
     22 H          31.4388   36.2772   11.6457 H         1 817400      0.0000 
     23 H          28.9692   38.8081   12.3007 H         1 817400      0.0000 
     24 H          34.4679   45.5299    9.2262 H         1 817400      0.0000 
     25 H          34.8260   44.5128    7.0679 H         1 817400      0.0000 
     26 H          31.7848   41.7567    7.8604 H         1 817400      0.0000 
     27 H          30.1683   42.3752    9.8268 H         1 817400      0.0000 
     28 H          30.9555   43.1705   11.2008 H         1 817400      0.0000 
     29 H          32.7654   44.6628   10.7023 H         1 817400      0.0000 
@<TRIPOS>BOND
     1   10    1 ar   
     2   19    1 1    
     3   20    1 1    
     4    4    2 1    
     5   11    2 2    
     6   12    2 1    
     7   10    3 ar   
     8   21    3 1    
     9   22    3 1    
    10   10    4 ar   
    11   23    4 1    
    12    9    5 ar   
    13   13    5 1    
    14   14    5 ar   
    15    7    6 ar   
    16   14    6 ar   
    17   24    6 1    
    18   15    7 ar   
    19   25    7 1    
    20   15    8 1    
    21   16    8 1    
    22   17    8 1    
    23   18    8 1    
    24   15    9 ar   
    25   26    9 1    
    26   13   12 1    
    27   27   13 1    
    28   28   13 1    
    29   29   14 1    
@<TRIPOS>SUBSTRUCTURE
     1 817400      1 GROUP   
@<TRIPOS>SET

