#    Name: 3mxd_K53_1_INTS_M
#    Modification time : Tue Mar 25 00:10:54 2014

@<TRIPOS>MOLECULE
3mxd_K53_1_INTS_M
   98     0     9     0     0
SMALL
NO_CHARGES


@<TRIPOS>ATOM
      1 CA         16.4160   33.0630   18.8380 C.3       3 GLC5        0.0000 
      2 CA         15.5940   34.6280   17.5780 C.3       9 GLL5        0.0000 
      3 CA         17.2380   31.4980   20.0980 C.3       6 GLP5        0.0000 
      4 CA         13.9315   34.9700   18.8730 C.3       3 GLC5        0.0000 
      5 CA         12.2690   35.3120   20.1680 C.3       6 GLP5        0.0000 
      6 CA         15.3490   30.9120   15.4080 C.3       3 GLC5        0.0000 
      7 CA         16.1670   32.5700   16.4850 C.3       9 GLL5        0.0000 
      8 CA         14.5310   29.2540   14.3310 C.3       6 GLP5        0.0000 
      9 CA         23.0840   34.3290   14.4385 C.3       3 GLC5        0.0000 
     10 CA         22.2490   32.3900   14.8830 C.3       9 GLL5        0.0000 
     11 CA         23.9190   36.2680   13.9940 C.3       6 GLP5        0.0000 
     12 CA         23.9360   30.9035   14.9050 C.3       3 GLC5        0.0000 
     13 CA         25.6230   29.4170   14.9270 C.3       6 GLP5        0.0000 
     14 CA         21.3575   34.0205   13.6260 C.3       3 GLC5        0.0000 
     15 CA         20.4660   35.6510   12.3690 C.3       6 GLP5        0.0000 
     16 CA         23.3170   32.4255   12.9225 C.3       3 GLC5        0.0000 
     17 CA         24.3850   32.4610   10.9620 C.3       6 GLP5        0.0000 
     18 CA         22.9860   32.8110   18.9550 C.3       3 GLC5        0.0000 
     19 CA         22.4090   33.4180   17.1830 C.3       9 GLL5        0.0000 
     20 CA         23.5630   32.2040   20.7270 C.3       6 GLP5        0.0000 
     21 CA         23.9325   34.1135   17.5860 C.3       3 GLC5        0.0000 
     22 CA         25.4560   34.8090   17.9890 C.3       6 GLP5        0.0000 
     23 CA         24.1375   32.2865   17.2580 C.3       3 GLC5        0.0000 
     24 CA         25.8660   31.1550   17.3330 C.3       6 GLP5        0.0000 
     25 CA         17.6230   30.5885   17.8025 C.3       3 GLC5        0.0000 
     26 CA         19.1040   30.4620   16.1770 C.3       9 GLL5        0.0000 
     27 CA         16.1420   30.7150   19.4280 C.3       6 GLP5        0.0000 
     28 CA         15.9860   36.3015   20.2730 C.3       3 GLC5        0.0000 
     29 CA         15.6290   36.8020   18.2740 C.3       9 GLL5        0.0000 
     30 CA         16.3430   35.8010   22.2720 C.3       6 GLP5        0.0000 
     31 CA         13.9490   36.0570   19.2210 C.3       3 GLC5        0.0000 
     32 CA         14.4415   37.7395   17.0870 C.3       3 GLC5        0.0000 
     33 CA         13.2540   38.6770   15.9000 C.3       6 GLP5        0.0000 
     34 N          19.4310   27.7920   17.7660 N.am      2 SEC2        0.0000 
     35 N          19.9740   28.2150   16.4760 N.am      8 SEL2        0.0000 
     36 N          18.8880   27.3690   19.0560 N.am      5 SEP2        0.0000 
     37 O          20.8205   27.8710   17.3990 O.2       1 ALC1        0.0000 
     38 O          19.9740   28.2150   16.4760 O.2       7 ALL1        0.0000 
     39 O          21.6670   27.5270   18.3220 O.2       4 ALP1        0.0000 
     40 O          21.5015   28.5995   16.9245 O.2       1 ALC1        0.0000 
     41 O          23.0290   28.9840   17.3730 O.2       4 ALP1        0.0000 
     42 N          14.5175   34.7930   19.8400 N.am      2 SEC2        0.0000 
     43 N          14.9790   35.5160   18.4070 N.am      8 SEL2        0.0000 
     44 N          14.0560   34.0700   21.2730 N.am      5 SEP2        0.0000 
     45 O          20.4920   26.7095   14.1670 O.2       1 ALC1        0.0000 
     46 O          20.7970   28.2280   13.6030 O.2       7 ALL1        0.0000 
     47 O          20.1870   25.1910   14.7310 O.2       4 ALP1        0.0000 
     48 CA         21.4695   29.0990    9.5015 C.3       3 GLC5        0.0000 
     49 CA         22.6210   27.5950   10.5190 C.3       9 GLL5        0.0000 
     50 CA         20.3180   30.6030    8.4840 C.3       6 GLP5        0.0000 
     51 N          22.9050   23.6965   12.5495 N.am      2 SEC2        0.0000 
     52 N          22.2060   24.2530   11.4270 N.am      8 SEL2        0.0000 
     53 N          23.6040   23.1400   13.6720 N.am      5 SEP2        0.0000 
     54 CA         23.2860   26.8295   13.7680 C.3       3 GLC5        0.0000 
     55 CA         22.5720   27.6530   12.0490 C.3       9 GLL5        0.0000 
     56 CA         24.0000   26.0060   15.4870 C.3       6 GLP5        0.0000 
     57 CA         17.3955   25.4050   13.3885 C.3       3 GLC5        0.0000 
     58 CA         18.5270   26.6040   12.1230 C.3       9 GLL5        0.0000 
     59 CA         16.2640   24.2060   14.6540 C.3       6 GLP5        0.0000 
     60 CA         17.3045   30.4160    9.8390 C.3       3 GLC5        0.0000 
     61 CA         17.5120   28.4750   10.3520 C.3       9 GLL5        0.0000 
     62 CA         17.0970   32.3570    9.3260 C.3       6 GLP5        0.0000 
     63 CA         17.1565   30.8185   11.2145 C.3       3 GLC5        0.0000 
     64 CA         17.6540   28.8020   11.6920 C.3       9 GLL5        0.0000 
     65 CA         16.6590   32.8350   10.7370 C.3       6 GLP5        0.0000 
     66 CA         24.6710   25.9925    6.4985 C.3       3 GLC5        0.0000 
     67 CA         23.2920   24.4370    6.5160 C.3       9 GLL5        0.0000 
     68 CA         26.0500   27.5480    6.4810 C.3       6 GLP5        0.0000 
     69 CA         25.7195   25.5010    6.9920 C.3       3 GLC5        0.0000 
     70 CA         24.2980   24.5140    7.4800 C.3       9 GLL5        0.0000 
     71 CA         27.1410   26.4880    6.5040 C.3       6 GLP5        0.0000 
     72 CA         25.0410   26.3240    7.5995 C.3       3 GLC5        0.0000 
     73 CA         24.0320   25.1000    8.7180 C.3       9 GLL5        0.0000 
     74 O          25.8750   24.1795    9.5860 O.2       1 ALC1        0.0000 
     75 O          25.0070   25.1830    9.6750 O.2       7 ALL1        0.0000 
     76 O          26.7430   23.1760    9.4970 O.2       4 ALP1        0.0000 
     77 CA         14.6152   35.4170   15.8338 C.3       3 GLC5        0.0000 
     78 CA         13.1420   35.8850   14.4320 C.3       6 GLP5        0.0000 
     79 CA         15.6562   32.9085   14.2100 C.3       3 GLC5        0.0000 
     80 CA         14.6350   32.9220   12.2930 C.3       6 GLP5        0.0000 
     81 CA         15.9525   31.8187   18.1852 C.3       3 GLC5        0.0000 
     82 CA         13.8639   33.1784   16.4660 C.3       3 GLC5        0.0000 
     83 CA         15.3590   33.2750   17.4000 C.3       9 GLL5        0.0000 
     84 CA         11.9060   33.0960   15.9450 C.3       6 GLP5        0.0000 
     85 CA         23.6612   29.3195   11.2880 C.3       3 GLC5        0.0000 
     86 CA         24.7260   31.0150   11.2920 C.3       6 GLP5        0.0000 
     87 CA         16.5460   26.3495   11.6065 C.3       3 GLC5        0.0000 
     88 CA         14.6360   26.2600   11.7580 C.3       6 GLP5        0.0000 
     89 CA         19.0040   29.2225    9.3050 C.3       3 GLC5        0.0000 
     90 CA         17.8680   27.2090    9.9000 C.3       9 GLL5        0.0000 
     91 CA         16.3295   28.1445    8.9420 C.3       3 GLC5        0.0000 
     92 CA         14.9690   28.4470    7.7580 C.3       6 GLP5        0.0000 
     93 CA         16.1630   27.0510   10.9420 C.3       3 GLC5        0.0000 
     94 CA         16.2722   27.2978   11.9477 C.3       3 GLC5        0.0000 
     95 CA         16.2449   28.8398   13.4160 C.3       3 GLC5        0.0000 
     96 CA         21.8935   27.0433    6.4600 C.3       3 GLC5        0.0000 
     97 CA         21.7590   25.5100    8.0270 C.3       9 GLL5        0.0000 
     98 CA         21.9000   28.8660    5.5090 C.3       6 GLP5        0.0000 
@<TRIPOS>BOND
@<TRIPOS>SUBSTRUCTURE
     1 ALC1       37 GROUP        1 X    ALC  0     ROOT ALC X 1
     2 SEC2       34 GROUP        1 X    SEC  0     **** SEC X 2
     3 GLC5        1 GROUP        1 X    GLC  0     **** GLC X 6
     4 ALP1       39 GROUP        1 Y    ALP  0     ROOT ALP Y 8
     5 SEP2       36 GROUP        1 Y    SEP  0     **** SEP Y 9
     6 GLP5        3 GROUP        1 Y    GLP  0     **** GLP Y 13
     7 ALL1       38 GROUP        1 Z    ALL  0     ROOT ALL Z 15
     8 SEL2       35 GROUP        1 Z    SEL  0     **** SEL Z 16
     9 GLL5        2 GROUP        1 Z    GLL  0     **** GLL Z 20
@<TRIPOS>SET

