#    Name: 3mxd_K53_1_ligand
#    Modification time : Tue Mar 25 00:10:54 2014

@<TRIPOS>MOLECULE
3mxd_K53_1_ligand
   79    83     1     0     0
SMALL
NO_CHARGES


@<TRIPOS>ATOM
      1 C2         15.5940   34.6280   17.5780 C.ar      1 K53200      0.0000 
      2 C3         16.5830   35.2700   16.8930 C.ar      1 K53200      0.0000 
      3 C4         17.3850   34.5920   15.9820 C.ar      1 K53200      0.0000 
      4 C5         17.1880   33.2200   15.7690 C.ar      1 K53200      0.0000 
      5 C6         16.1670   32.5700   16.4850 C.ar      1 K53200      0.0000 
      6 C7         15.3590   33.2750   17.4000 C.ar      1 K53200      0.0000 
      7 S8         18.1320   32.3950   14.7330 S.o2      1 K53200      0.0000 
      8 O9         17.4070   31.3060   14.1440 O.2       1 K53200      0.0000 
      9 O10        18.6610   33.2660   13.7250 O.2       1 K53200      0.0000 
     10 N11        19.4170   31.7280   15.4680 N.pl3     1 K53200      0.0000 
     11 C12        20.1590   32.6990   16.3170 C.3       1 K53200      0.0000 
     12 C13        21.6660   32.4110   16.2990 C.3       1 K53200      0.0000 
     13 C14        22.2490   32.3900   14.8830 C.3       1 K53200      0.0000 
     14 C15        22.4090   33.4180   17.1830 C.3       1 K53200      0.0000 
     15 C16        19.1040   30.4620   16.1770 C.3       1 K53200      0.0000 
     16 C17        20.0240   29.3670   15.6180 C.3       1 K53200      0.0000 
     17 C18        15.6290   36.8020   18.2740 C.3       1 K53200      0.0000 
     18 O18        19.9740   28.2150   16.4760 O.3       1 K53200      0.0000 
     19 C19        19.6900   28.9930   14.1710 C.3       1 K53200      0.0000 
     20 O19        14.9790   35.5160   18.4070 O.3       1 K53200      0.0000 
     21 N20        20.7970   28.2280   13.6030 N.am      1 K53200      0.0000 
     22 C21        21.5540   28.6340   12.5730 C.2       1 K53200      0.0000 
     23 O22        21.4530   29.7310   12.0450 O.2       1 K53200      0.0000 
     24 N24        22.5400   26.1590   10.2400 N.am      1 K53200      0.0000 
     25 C25        22.6210   27.5950   10.5190 C.3       1 K53200      0.0000 
     26 C26        22.3000   25.4650   11.3380 C.2       1 K53200      0.0000 
     27 O27        22.2060   24.2530   11.4270 O.2       1 K53200      0.0000 
     28 O28        22.2200   26.3240   12.4740 O.3       1 K53200      0.0000 
     29 C29        22.5720   27.6530   12.0490 C.3       1 K53200      0.0000 
     30 O29        16.6050   36.5940   17.2460 O.3       1 K53200      0.0000 
     31 C32        18.3640   28.2290   14.0370 C.3       1 K53200      0.0000 
     32 C33        18.5270   26.6040   12.1230 C.ar      1 K53200      0.0000 
     33 C34        18.3850   26.2740   10.7870 C.ar      1 K53200      0.0000 
     34 C35        17.8680   27.2090    9.9000 C.ar      1 K53200      0.0000 
     35 C36        17.5120   28.4750   10.3520 C.ar      1 K53200      0.0000 
     36 C37        17.6540   28.8020   11.6920 C.ar      1 K53200      0.0000 
     37 C38        18.1630   27.8690   12.5830 C.ar      1 K53200      0.0000 
     38 C40        23.2920   24.4370    6.5160 C.ar      1 K53200      0.0000 
     39 C41        24.2980   24.5140    7.4800 C.ar      1 K53200      0.0000 
     40 C42        24.0320   25.1000    8.7180 C.ar      1 K53200      0.0000 
     41 C43        22.7680   25.5820    8.9870 C.ar      1 K53200      0.0000 
     42 C44        21.7590   25.5100    8.0270 C.ar      1 K53200      0.0000 
     43 C45        22.0150   24.9310    6.7950 C.ar      1 K53200      0.0000 
     44 O46        25.0070   25.1830    9.6750 O.3       1 K53200      0.0000 
     45 H          18.1181   35.0876   15.4659 H         1 K53200      0.0000 
     46 H          16.0059   31.5633   16.3397 H         1 K53200      0.0000 
     47 H          14.6264   32.7926   17.9099 H         1 K53200      0.0000 
     48 H          19.8086   32.6433   17.3517 H         1 K53200      0.0000 
     49 H          19.9975   33.7190   15.9563 H         1 K53200      0.0000 
     50 H          21.8193   31.4156   16.7418 H         1 K53200      0.0000 
     51 H          18.0771   30.1714   16.0054 H         1 K53200      0.0000 
     52 H          19.2898   30.5615   17.2372 H         1 K53200      0.0000 
     53 H          21.0476   29.7793   15.6222 H         1 K53200      0.0000 
     54 H          16.1019   37.0829   19.2053 H         1 K53200      0.0000 
     55 H          14.9127   37.5573   17.9803 H         1 K53200      0.0000 
     56 H          19.5866   29.9347   13.6086 H         1 K53200      0.0000 
     57 H          20.9765   27.2946   14.0698 H         1 K53200      0.0000 
     58 H          21.7791   28.1168   10.1292 H         1 K53200      0.0000 
     59 H          23.5465   28.0052   10.1900 H         1 K53200      0.0000 
     60 H          23.5496   27.9095   12.4070 H         1 K53200      0.0000 
     61 H          17.5574   28.8621   14.3760 H         1 K53200      0.0000 
     62 H          18.4126   27.3321   14.6365 H         1 K53200      0.0000 
     63 H          18.9052   25.9112   12.7889 H         1 K53200      0.0000 
     64 H          18.6598   25.3431   10.4507 H         1 K53200      0.0000 
     65 H          17.7479   26.9658    8.9075 H         1 K53200      0.0000 
     66 H          17.1420   29.1705    9.6882 H         1 K53200      0.0000 
     67 H          17.3817   29.7371   12.0255 H         1 K53200      0.0000 
     68 H          23.4896   24.0168    5.6000 H         1 K53200      0.0000 
     69 H          25.2321   24.1402    7.2786 H         1 K53200      0.0000 
     70 H          20.8260   25.8881    8.2379 H         1 K53200      0.0000 
     71 H          21.2754   24.8627    6.0881 H         1 K53200      0.0000 
     72 H          23.2302   32.1972   14.8882 H         1 K53200      0.0000 
     73 H          21.8160   31.6913   14.3134 H         1 K53200      0.0000 
     74 H          22.1249   33.2662   14.4172 H         1 K53200      0.0000 
     75 H          23.3952   33.2524   17.1865 H         1 K53200      0.0000 
     76 H          22.2708   34.3582   16.8718 H         1 K53200      0.0000 
     77 H          22.1013   33.3757   18.1335 H         1 K53200      0.0000 
     78 H          20.8840   28.1587   16.8868 H         1 K53200      0.0000 
     79 H          25.5741   24.3709    9.5377 H         1 K53200      0.0000 
@<TRIPOS>BOND
     1    2    1 ar   
     2    6    1 ar   
     3   20    1 1    
     4    3    2 ar   
     5   30    2 1    
     6    4    3 ar   
     7   45    3 1    
     8    5    4 ar   
     9    7    4 1    
    10    6    5 ar   
    11   46    5 1    
    12   47    6 1    
    13    8    7 2    
    14    9    7 2    
    15   10    7 1    
    16   11   10 1    
    17   15   10 1    
    18   12   11 1    
    19   48   11 1    
    20   49   11 1    
    21   13   12 1    
    22   14   12 1    
    23   50   12 1    
    24   72   13 1    
    25   73   13 1    
    26   74   13 1    
    27   75   14 1    
    28   76   14 1    
    29   77   14 1    
    30   16   15 1    
    31   51   15 1    
    32   52   15 1    
    33   18   16 1    
    34   19   16 1    
    35   53   16 1    
    36   20   17 1    
    37   30   17 1    
    38   54   17 1    
    39   55   17 1    
    40   78   18 1    
    41   21   19 1    
    42   31   19 1    
    43   56   19 1    
    44   22   21 am   
    45   57   21 1    
    46   23   22 2    
    47   29   22 1    
    48   25   24 1    
    49   26   24 am   
    50   41   24 1    
    51   29   25 1    
    52   58   25 1    
    53   59   25 1    
    54   27   26 2    
    55   28   26 1    
    56   29   28 1    
    57   60   29 1    
    58   37   31 1    
    59   61   31 1    
    60   62   31 1    
    61   33   32 ar   
    62   37   32 ar   
    63   63   32 1    
    64   34   33 ar   
    65   64   33 1    
    66   35   34 ar   
    67   65   34 1    
    68   36   35 ar   
    69   66   35 1    
    70   37   36 ar   
    71   67   36 1    
    72   39   38 ar   
    73   43   38 ar   
    74   68   38 1    
    75   40   39 ar   
    76   69   39 1    
    77   41   40 ar   
    78   44   40 1    
    79   42   41 ar   
    80   43   42 ar   
    81   70   42 1    
    82   71   43 1    
    83   79   44 1    
@<TRIPOS>SUBSTRUCTURE
     1 K53200      1 GROUP   
@<TRIPOS>SET

