#    Name: 4i9i_1DY_3_INTS_M
#    Modification time : Tue Mar 25 02:41:23 2014

@<TRIPOS>MOLECULE
4i9i_1DY_3_INTS_M
   83     0     9     0     0
SMALL
NO_CHARGES


@<TRIPOS>ATOM
      1 O          80.7670   14.6700   57.5050 O.2       1 ALC1        0.0000 
      2 O          81.6350   14.2670   56.6330 O.2       7 ALL1        0.0000 
      3 O          79.8990   15.0730   58.3770 O.2       4 ALP1        0.0000 
      4 N          79.9730   16.4910   55.9480 N.am      2 SEC2        0.0000 
      5 N          80.8390   15.7810   55.1140 N.am      8 SEL2        0.0000 
      6 N          79.1070   17.2010   56.7820 N.am      5 SEP2        0.0000 
      7 N          80.0075   16.4230   53.9940 N.am      2 SEC2        0.0000 
      8 N          79.1760   17.0650   52.8740 N.am      5 SEP2        0.0000 
      9 CA         79.8765   14.8620   53.1405 C.3       3 GLC5        0.0000 
     10 CA         82.0360   14.5550   53.0350 C.3       9 GLL5        0.0000 
     11 CA         77.7170   15.1690   53.2460 C.3       6 GLP5        0.0000 
     12 CA         81.8060   11.4630   51.4490 C.3       3 GLC5        0.0000 
     13 CA         83.3510   12.5620   52.2730 C.3       9 GLL5        0.0000 
     14 CA         80.2610   10.3640   50.6250 C.3       6 GLP5        0.0000 
     15 CA         80.6370   12.2275   57.7730 C.3       3 GLC5        0.0000 
     16 CA         82.4770   12.5640   58.3600 C.3       9 GLL5        0.0000 
     17 CA         78.7970   11.8910   57.1860 C.3       6 GLP5        0.0000 
     18 CA         85.4590   11.6140   59.4100 C.3       3 GLC5        0.0000 
     19 CA         83.9600   12.4570   58.6860 C.3       9 GLL5        0.0000 
     20 CA         86.9580   10.7710   60.1340 C.3       6 GLP5        0.0000 
     21 CA         85.7100   12.6605   57.5000 C.3       3 GLC5        0.0000 
     22 CA         87.4600   12.8640   56.3140 C.3       6 GLP5        0.0000 
     23 N          85.8255   15.2445   57.5955 N.am      2 SEC2        0.0000 
     24 N          84.9650   14.6140   58.5690 N.am      8 SEL2        0.0000 
     25 N          86.6860   15.8750   56.6220 N.am      5 SEP2        0.0000 
     26 CA         82.7215   16.1800   64.9290 C.3       3 GLC5        0.0000 
     27 CA         84.4340   15.6330   63.8720 C.3       9 GLL5        0.0000 
     28 CA         81.0090   16.7270   65.9860 C.3       6 GLP5        0.0000 
     29 CA         85.9940   15.6180   65.4545 C.3       3 GLC5        0.0000 
     30 CA         87.5540   15.6030   67.0370 C.3       6 GLP5        0.0000 
     31 CA         83.5780   18.1690   63.3115 C.3       3 GLC5        0.0000 
     32 CA         85.1450   16.8410   63.4390 C.3       9 GLL5        0.0000 
     33 CA         82.0110   19.4970   63.1840 C.3       6 GLP5        0.0000 
     34 N          87.1345   19.9035   64.1530 N.am      2 SEC2        0.0000 
     35 N          85.8800   19.0720   63.9600 N.am      8 SEL2        0.0000 
     36 N          88.3890   20.7350   64.3460 N.am      5 SEP2        0.0000 
     37 CA         86.2010   21.1880   64.9180 C.3       3 GLC5        0.0000 
     38 CA         85.4560   20.0300   66.6230 C.3       9 GLL5        0.0000 
     39 CA         86.9460   22.3460   63.2130 C.3       6 GLP5        0.0000 
     40 CA         85.3520   22.6420   68.7775 C.3       3 GLC5        0.0000 
     41 CA         85.5200   20.8340   67.8130 C.3       9 GLL5        0.0000 
     42 CA         85.1840   24.4500   69.7420 C.3       6 GLP5        0.0000 
     43 CA         84.7390   21.7150   70.4290 C.3       3 GLC5        0.0000 
     44 CA         85.2200   20.2860   69.0950 C.3       9 GLL5        0.0000 
     45 CA         84.2580   23.1440   71.7630 C.3       6 GLP5        0.0000 
     46 CA         82.3315   15.5585   68.3980 C.3       3 GLC5        0.0000 
     47 CA         83.6390   16.2170   69.0900 C.3       9 GLL5        0.0000 
     48 CA         81.0240   14.9000   67.7060 C.3       6 GLP5        0.0000 
     49 CA         85.4525   15.8600   69.3485 C.3       3 GLC5        0.0000 
     50 CA         87.2660   15.5030   69.6070 C.3       6 GLP5        0.0000 
     51 CA         83.8770   14.2698   54.4132 C.3       3 GLC5        0.0000 
     52 CA         82.1140   14.0300   54.3560 C.3       9 GLL5        0.0000 
     53 CA         85.6790   14.2470   55.1310 C.3       6 GLP5        0.0000 
     54 CA         83.2348   16.0448   52.7253 C.3       3 GLC5        0.0000 
     55 CA         84.1170   17.9080   52.9310 C.3       6 GLP5        0.0000 
     56 CA         81.7087   15.2513   51.2343 C.3       3 GLC5        0.0000 
     57 CA         81.0650   16.3210   49.9490 C.3       6 GLP5        0.0000 
     58 CA         81.0357   13.4132   51.1192 C.3       3 GLC5        0.0000 
     59 CA         82.6690   13.8080   52.0040 C.3       9 GLL5        0.0000 
     60 CA         79.7190   12.6450   49.7190 C.3       6 GLP5        0.0000 
     61 CA         84.3445   13.7160   53.6347 C.3       3 GLC5        0.0000 
     62 CA         84.3415   13.1275   50.8658 C.3       3 GLC5        0.0000 
     63 CA         85.6730   13.0700   49.5930 C.3       6 GLP5        0.0000 
     64 CA         84.3920   13.3345   54.6360 C.3       3 GLC5        0.0000 
     65 CA         83.4230   12.0400   53.6160 C.3       9 GLL5        0.0000 
     66 CA         82.3738   14.9850   61.7750 C.3       3 GLC5        0.0000 
     67 CA         84.6630   14.7780   61.5490 C.3       9 GLL5        0.0000 
     68 CA         80.3220   15.2920   61.3270 C.3       6 GLP5        0.0000 
     69 CA         86.1552   17.4712   60.3597 C.3       3 GLC5        0.0000 
     70 CA         85.3740   15.9560   61.1250 C.3       9 GLL5        0.0000 
     71 CA         86.8160   18.4630   59.1130 C.3       6 GLP5        0.0000 
     72 CA         83.9120   19.9198   65.4300 C.3       3 GLC5        0.0000 
     73 CA         85.0840   18.6430   66.7390 C.3       9 GLL5        0.0000 
     74 CA         82.5540   20.5030   64.1790 C.3       6 GLP5        0.0000 
     75 CA         83.3365   20.3420   68.7750 C.3       3 GLC5        0.0000 
     76 CA         81.3030   20.1240   69.0960 C.3       6 GLP5        0.0000 
     77 CA         87.3100   20.1571   66.9270 C.3       3 GLC5        0.0000 
     78 CA         89.2250   20.2290   66.6070 C.3       6 GLP5        0.0000 
     79 CA         83.0570   19.3180   68.8698 C.3       3 GLC5        0.0000 
     80 CA         84.7770   18.1010   68.0420 C.3       9 GLL5        0.0000 
     81 CA         86.2219   17.3812   68.3774 C.3       3 GLC5        0.0000 
     82 CA         84.8450   18.9230   69.2450 C.3       9 GLL5        0.0000 
     83 CA         87.5560   16.1150   68.4370 C.3       6 GLP5        0.0000 
@<TRIPOS>BOND
@<TRIPOS>SUBSTRUCTURE
     1 ALC1        1 GROUP        1 X    ALC  0     ROOT ALC X 1
     2 SEC2        4 GROUP        1 X    SEC  0     **** SEC X 2
     3 GLC5        9 GROUP        1 X    GLC  0     **** GLC X 6
     4 ALP1        3 GROUP        1 Y    ALP  0     ROOT ALP Y 8
     5 SEP2        6 GROUP        1 Y    SEP  0     **** SEP Y 9
     6 GLP5       11 GROUP        1 Y    GLP  0     **** GLP Y 13
     7 ALL1        2 GROUP        1 Z    ALL  0     ROOT ALL Z 15
     8 SEL2        5 GROUP        1 Z    SEL  0     **** SEL Z 16
     9 GLL5       10 GROUP        1 Z    GLL  0     **** GLL Z 20
@<TRIPOS>SET

