#    Name: 4i9i_1DY_3_ligand
#    Modification time : Tue Mar 25 02:41:23 2014

@<TRIPOS>MOLECULE
4i9i_1DY_3_ligand
   55    58     1     0     0
SMALL
NO_CHARGES


@<TRIPOS>ATOM
      1 N1         81.6350   14.2670   56.6330 N.am      1 1DY1402     0.0000 
      2 C1         81.4920   14.7780   55.3960 C.2       1 1DY1402     0.0000 
      3 O1         80.8390   15.7810   55.1140 O.2       1 1DY1402     0.0000 
      4 C2         82.1140   14.0300   54.3560 C.ar      1 1DY1402     0.0000 
      5 C3         82.0360   14.5550   53.0350 C.ar      1 1DY1402     0.0000 
      6 C4         82.6690   13.8080   52.0040 C.ar      1 1DY1402     0.0000 
      7 C5         83.3510   12.5620   52.2730 C.ar      1 1DY1402     0.0000 
      8 C6         83.4230   12.0400   53.6160 C.ar      1 1DY1402     0.0000 
      9 C7         82.7870   12.8040   54.6660 C.ar      1 1DY1402     0.0000 
     10 N2         82.8520   12.4020   55.9580 N.2       1 1DY1402     0.0000 
     11 C8         82.2920   13.1080   56.9420 C.2       1 1DY1402     0.0000 
     12 C9         82.4770   12.5640   58.3600 C.3       1 1DY1402     0.0000 
     13 C10        83.9600   12.4570   58.6860 C.3       1 1DY1402     0.0000 
     14 C11        84.4900   13.7430   59.2910 C.2       1 1DY1402     0.0000 
     15 O2         84.9650   14.6140   58.5690 O.2       1 1DY1402     0.0000 
     16 N3         84.3680   13.8060   60.6630 N.am      1 1DY1402     0.0000 
     17 C12        84.6630   14.7780   61.5490 C.ar      1 1DY1402     0.0000 
     18 C13        84.1880   14.5780   62.8970 C.ar      1 1DY1402     0.0000 
     19 C14        84.4340   15.6330   63.8720 C.ar      1 1DY1402     0.0000 
     20 C15        85.3740   15.9560   61.1250 C.ar      1 1DY1402     0.0000 
     21 C16        85.6150   17.0030   62.0880 C.ar      1 1DY1402     0.0000 
     22 C17        85.1450   16.8410   63.4390 C.ar      1 1DY1402     0.0000 
     23 C18        85.3940   18.0050   64.3460 C.2       1 1DY1402     0.0000 
     24 O3         85.8800   19.0720   63.9600 O.2       1 1DY1402     0.0000 
     25 N4         85.0300   17.7950   65.6640 N.am      1 1DY1402     0.0000 
     26 C19        85.0840   18.6430   66.7390 C.ar      1 1DY1402     0.0000 
     27 C20        85.4560   20.0300   66.6230 C.ar      1 1DY1402     0.0000 
     28 C21        85.5200   20.8340   67.8130 C.ar      1 1DY1402     0.0000 
     29 C22        85.2200   20.2860   69.0950 C.ar      1 1DY1402     0.0000 
     30 C23        84.8450   18.9230   69.2450 C.ar      1 1DY1402     0.0000 
     31 C24        84.7770   18.1010   68.0420 C.ar      1 1DY1402     0.0000 
     32 O4         84.4170   16.7660   68.0270 O.3       1 1DY1402     0.0000 
     33 C25        83.6390   16.2170   69.0900 C.3       1 1DY1402     0.0000 
     34 H          81.1982   14.8104   57.4546 H         1 1DY1402     0.0000 
     35 H          81.5587   15.4083   52.8423 H         1 1DY1402     0.0000 
     36 H          82.6467   14.1550   51.0372 H         1 1DY1402     0.0000 
     37 H          83.7823   12.0512   51.5098 H         1 1DY1402     0.0000 
     38 H          83.8918   11.1874   53.8136 H         1 1DY1402     0.0000 
     39 H          82.0189   11.5823   58.4284 H         1 1DY1402     0.0000 
     40 H          81.9982   13.2358   59.0654 H         1 1DY1402     0.0000 
     41 H          84.5133   12.2322   57.7702 H         1 1DY1402     0.0000 
     42 H          84.1141   11.6347   59.3899 H         1 1DY1402     0.0000 
     43 H          83.9444   12.8715   61.1154 H         1 1DY1402     0.0000 
     44 H          83.7073   13.7488   63.1589 H         1 1DY1402     0.0000 
     45 H          84.1275   15.5399   64.8139 H         1 1DY1402     0.0000 
     46 H          85.6954   16.0481   60.1808 H         1 1DY1402     0.0000 
     47 H          86.1072   17.8382   61.8164 H         1 1DY1402     0.0000 
     48 H          84.6353   16.7864   65.8784 H         1 1DY1402     0.0000 
     49 H          85.6668   20.4272   65.7252 H         1 1DY1402     0.0000 
     50 H          85.7869   21.8195   67.7334 H         1 1DY1402     0.0000 
     51 H          85.2765   20.8886   69.9237 H         1 1DY1402     0.0000 
     52 H          84.6327   18.5267   70.1334 H         1 1DY1402     0.0000 
     53 H          83.4521   15.2447   68.9497 H         1 1DY1402     0.0000 
     54 H          84.1027   16.3020   69.9719 H         1 1DY1402     0.0000 
     55 H          82.7548   16.6757   69.1783 H         1 1DY1402     0.0000 
@<TRIPOS>BOND
     1    2    1 am   
     2   11    1 1    
     3   34    1 1    
     4    3    2 2    
     5    4    2 1    
     6    5    4 ar   
     7    9    4 ar   
     8    6    5 ar   
     9   35    5 1    
    10    7    6 ar   
    11   36    6 1    
    12    8    7 ar   
    13   37    7 1    
    14    9    8 ar   
    15   38    8 1    
    16   10    9 1    
    17   11   10 2    
    18   12   11 1    
    19   13   12 1    
    20   39   12 1    
    21   40   12 1    
    22   14   13 1    
    23   41   13 1    
    24   42   13 1    
    25   15   14 2    
    26   16   14 am   
    27   17   16 1    
    28   43   16 1    
    29   18   17 ar   
    30   20   17 ar   
    31   19   18 ar   
    32   44   18 1    
    33   22   19 ar   
    34   45   19 1    
    35   21   20 ar   
    36   46   20 1    
    37   22   21 ar   
    38   47   21 1    
    39   23   22 1    
    40   24   23 2    
    41   25   23 am   
    42   26   25 1    
    43   48   25 1    
    44   27   26 ar   
    45   31   26 ar   
    46   28   27 ar   
    47   49   27 1    
    48   29   28 ar   
    49   50   28 1    
    50   30   29 ar   
    51   51   29 1    
    52   31   30 ar   
    53   52   30 1    
    54   32   31 1    
    55   33   32 1    
    56   53   33 1    
    57   54   33 1    
    58   55   33 1    
@<TRIPOS>SUBSTRUCTURE
     1 1DY1402     1 GROUP   
@<TRIPOS>SET

