#    Name: 3C3N_1_CAVITY_N1_6.mol2
#    Modification time : Tue Mar 11 12:51:04 2014

@<TRIPOS>MOLECULE
3C3N_1_CAVITY_N1_6.mol2
   79     0     6     0     0
SMALL
NO_CHARGES


@<TRIPOS>ATOM
      1 CA          0.1179   17.2820   43.7309 C.3       5 GLY6        0.0000 
      2 CA         -1.0569   18.2080   43.6190 C.3       5 GLY6        0.0000 
      3 OG          2.1164   11.7457   37.2614 O.2       1 SER1        0.0000 
      4 CZ          0.9416   12.6717   37.1495 C.ar      4 PHE5        0.0000 
      5 CZ         -0.2332   13.5976   37.0375 C.ar      4 PHE5        0.0000 
      6 CA         -1.4080   14.5235   36.9256 C.3       5 GLY6        0.0000 
      7 CZ          1.3434   10.6785   36.5448 C.ar      4 PHE5        0.0000 
      8 CZ          0.1687   11.6044   36.4329 C.ar      4 PHE5        0.0000 
      9 N          -1.0061   12.5303   36.3210 N.2       2 ALA2        0.0000 
     10 N          -2.1809   13.4562   36.2091 N.2       2 ALA2        0.0000 
     11 O          -1.1770   15.7112   44.3274 O.2       2 ALA2        0.0000 
     12 OG         -2.3518   16.6371   44.2155 O.2       1 SER1        0.0000 
     13 OG          1.0417   15.7924   41.8133 O.2       1 SER1        0.0000 
     14 DU         -0.1331   16.7183   41.7014 H         6 CUB7        0.0000 
     15 OD1        -1.3079   17.6442   41.5894 O.3       3 ASP3        0.0000 
     16 OG          1.4435   13.7992   41.2086 O.2       1 SER1        0.0000 
     17 O           0.2688   14.7251   41.0967 O.2       2 ALA2        0.0000 
     18 O           0.5397   14.6649   37.7541 O.2       2 ALA2        0.0000 
     19 N           0.3889   17.2218   40.3883 N.2       2 ALA2        0.0000 
     20 N           0.7907   15.2286   39.7837 N.2       2 ALA2        0.0000 
     21 N          -0.3841   16.1546   39.6718 N.2       2 ALA2        0.0000 
     22 OG          3.5421   11.3835   39.4029 O.2       1 SER1        0.0000 
     23 O           2.3674   12.3095   39.2910 O.2       2 ALA2        0.0000 
     24 O           1.1926   13.2354   39.1790 O.2       2 ALA2        0.0000 
     25 O           0.0178   14.1613   39.0671 O.2       2 ALA2        0.0000 
     26 CA         -1.1570   15.0873   38.9552 C.3       5 GLY6        0.0000 
     27 OG          2.7692   10.3163   38.6863 O.2       1 SER1        0.0000 
     28 OG          1.5944   11.2422   38.5744 O.2       1 SER1        0.0000 
     29 CA          0.4196   12.1681   38.4625 C.3       5 GLY6        0.0000 
     30 CA         -0.7552   13.0941   38.3506 C.3       5 GLY6        0.0000 
     31 N          -1.9299   14.0200   38.2386 N.2       2 ALA2        0.0000 
     32 N          -3.1047   14.9459   38.1267 N.2       2 ALA2        0.0000 
     33 O           0.8215   10.1749   37.8578 O.2       2 ALA2        0.0000 
     34 CA         -0.3533   11.1008   37.7459 C.3       5 GLY6        0.0000 
     35 N          -2.7029   12.9527   37.5221 N.2       2 ALA2        0.0000 
     36 O           2.7492   10.9402   44.0585 O.2       2 ALA2        0.0000 
     37 N           1.5744   11.8661   43.9466 N.2       2 ALA2        0.0000 
     38 N          -0.7752   13.7180   43.7227 N.2       2 ALA2        0.0000 
     39 N          -1.9500   14.6439   43.6108 N.2       2 ALA2        0.0000 
     40 OG         -3.1247   15.5699   43.4989 O.2       1 SER1        0.0000 
     41 CA          3.1510    8.9470   43.4538 C.3       5 GLY6        0.0000 
     42 CA          1.9763    9.8729   43.3419 C.3       5 GLY6        0.0000 
     43 CA          0.8015   10.7988   43.2300 C.3       5 GLY6        0.0000 
     44 N          -0.3733   11.7248   43.1181 N.2       2 ALA2        0.0000 
     45 CA          2.3781    7.8797   42.7373 C.3       5 GLY6        0.0000 
     46 CA          1.2033    8.8056   42.6253 C.3       5 GLY6        0.0000 
     47 N           0.5197   15.2888   43.1263 N.2       2 ALA2        0.0000 
     48 DU         -0.6551   16.2148   43.0144 H         6 CUB7        0.0000 
     49 OD1        -1.8298   17.1407   42.9025 O.3       3 ASP3        0.0000 
     50 CA          4.4459   10.5178   42.8574 C.3       5 GLY6        0.0000 
     51 OG          0.9216   13.2956   42.5216 O.2       1 SER1        0.0000 
     52 N          -0.2532   14.2215   42.4097 N.2       2 ALA2        0.0000 
     53 N          -1.4280   15.1475   42.2978 N.2       2 ALA2        0.0000 
     54 OD1        -2.6028   16.0734   42.1859 O.3       3 ASP3        0.0000 
     55 CA          4.8478    8.5246   42.2527 C.3       5 GLY6        0.0000 
     56 CA          3.6730    9.4505   42.1408 C.3       5 GLY6        0.0000 
     57 OG          2.4982   10.3765   42.0289 O.2       1 SER1        0.0000 
     58 OG          1.3234   11.3024   41.9170 O.2       1 SER1        0.0000 
     59 N           0.1486   12.2283   41.8051 N.2       2 ALA2        0.0000 
     60 N          -1.0261   13.1543   41.6931 N.2       2 ALA2        0.0000 
     61 O           4.0749    7.4573   41.5362 O.2       2 ALA2        0.0000 
     62 O           2.9001    8.3832   41.4242 O.2       2 ALA2        0.0000 
     63 CA          1.7253    9.3092   41.3123 C.3       5 GLY6        0.0000 
     64 CA          0.5505   10.2351   41.2004 C.3       5 GLY6        0.0000 
     65 CA         -0.6243   11.1610   41.0885 C.3       5 GLY6        0.0000 
     66 O           3.3019    6.3900   40.8196 O.2       2 ALA2        0.0000 
     67 OD1        -0.9060   15.6510   40.9848 O.3       3 ASP3        0.0000 
     68 OG          3.0202   10.8800   40.7159 O.2       1 SER1        0.0000 
     69 OG          1.8454   11.8059   40.6040 O.2       1 SER1        0.0000 
     70 OG          0.6706   12.7319   40.4921 O.2       1 SER1        0.0000 
     71 N          -0.5042   13.6578   40.3801 N.2       2 ALA2        0.0000 
     72 CA         -1.6790   14.5837   40.2682 C.3       5 GLY6        0.0000 
     73 OG          3.4220    8.8868   40.1112 O.2       1 SER1        0.0000 
     74 OG          2.2472    9.8127   39.9993 O.2       1 SER1        0.0000 
     75 CA          1.0725   10.7387   39.8874 C.3       5 GLY6        0.0000 
     76 CA         -0.1023   11.6646   39.7755 C.3       5 GLY6        0.0000 
     77 CA         -1.2771   12.5905   39.6636 C.3       5 GLY6        0.0000 
     78 CA         -2.4519   13.5164   39.5516 C.3       5 GLY6        0.0000 
     79 O           0.2995    9.6714   39.1708 O.2       2 ALA2        0.0000 
@<TRIPOS>BOND
@<TRIPOS>SUBSTRUCTURE
     1 SER1        3 GROUP   
     2 ALA2        9 GROUP   
     3 ASP3       15 GROUP   
     4 PHE5        4 GROUP   
     5 GLY6        1 GROUP   
     6 CUB7       14 GROUP   
@<TRIPOS>SET

