#    Name: 3c3n_FMN_1_INTS_M
#    Modification time : Mon Mar 24 20:26:34 2014

@<TRIPOS>MOLECULE
3c3n_FMN_1_INTS_M
   74     0     9     0     0
SMALL
NO_CHARGES


@<TRIPOS>ATOM
      1 N          -0.9490   12.7855   45.4360 N.am      2 SEC2        0.0000 
      2 N          -0.9500   14.0190   44.3210 N.am      8 SEL2        0.0000 
      3 N          -0.9480   11.5520   46.5510 N.am      5 SEP2        0.0000 
      4 N          -1.3090   13.0025   46.4650 N.am      2 SEC2        0.0000 
      5 N          -1.6700   14.4530   46.3790 N.am      8 SEL2        0.0000 
      6 O          -3.6995   16.1490   45.3660 O.2       1 ALC1        0.0000 
      7 O          -2.8420   15.4110   44.6790 O.2       7 ALL1        0.0000 
      8 O          -4.5570   16.8870   46.0530 O.2       4 ALP1        0.0000 
      9 N          -3.8725   16.8800   41.5310 N.am      2 SEC2        0.0000 
     10 N          -3.9030   16.2910   42.8670 N.am      8 SEL2        0.0000 
     11 N          -3.8420   17.4690   40.1950 N.am      5 SEP2        0.0000 
     12 N          -5.3300   16.4735   43.3615 N.am      2 SEC2        0.0000 
     13 N          -6.7570   16.6560   43.8560 N.am      5 SEP2        0.0000 
     14 N          -3.0140   16.3025   40.6365 N.am      2 SEC2        0.0000 
     15 N          -2.1860   15.1360   41.0780 N.am      8 SEL2        0.0000 
     16 CA          0.2090   13.4870   35.3740 C.3       3 GLC5        0.0000 
     17 CA         -1.2650   13.6380   36.6620 C.3       9 GLL5        0.0000 
     18 CA          1.6830   13.3360   34.0860 C.3       6 GLP5        0.0000 
     19 CA          1.4495   12.0795   35.8870 C.3       3 GLC5        0.0000 
     20 CA          1.0510   12.1960   37.5250 C.3       9 GLL5        0.0000 
     21 CA          1.8480   11.9630   34.2490 C.3       6 GLP5        0.0000 
     22 CA          3.0275   13.3190   42.6630 C.3       3 GLC5        0.0000 
     23 CA          0.8850   12.7080   42.6920 C.3       9 GLL5        0.0000 
     24 CA          5.1700   13.9300   42.6340 C.3       6 GLP5        0.0000 
     25 N          -0.8795   11.4305   45.0185 N.am      2 SEC2        0.0000 
     26 N          -0.8110   11.3090   43.4860 N.am      8 SEL2        0.0000 
     27 O          -2.0280   11.7505   43.0485 O.2       1 ALC1        0.0000 
     28 O          -0.8110   11.3090   43.4860 O.2       7 ALL1        0.0000 
     29 O          -3.2450   12.1920   42.6110 O.2       4 ALP1        0.0000 
     30 CA          0.8805    8.8930   44.3465 C.3       3 GLC5        0.0000 
     31 CA          1.2850   10.2840   43.2650 C.3       9 GLL5        0.0000 
     32 CA          0.4760    7.5020   45.4280 C.3       6 GLP5        0.0000 
     33 N           0.2800   11.0695   45.5905 N.am      2 SEC2        0.0000 
     34 N           1.5080   10.5870   44.6300 N.am      8 SEL2        0.0000 
     35 CA          4.9100    9.2860   41.3770 C.3       3 GLC5        0.0000 
     36 CA          3.5090    9.1940   42.9400 C.3       9 GLL5        0.0000 
     37 CA          6.3110    9.3780   39.8140 C.3       6 GLP5        0.0000 
     38 CA          5.2475    7.9575   43.3315 C.3       3 GLC5        0.0000 
     39 CA          6.9860    6.7210   43.7230 C.3       6 GLP5        0.0000 
     40 CA          1.9925    8.3480   44.1840 C.3       3 GLC5        0.0000 
     41 CA          3.9545    7.3345   43.7325 C.3       3 GLC5        0.0000 
     42 CA          4.4000    5.4750   44.5250 C.3       6 GLP5        0.0000 
     43 N           5.3625    6.8730   40.4915 N.am      2 SEC2        0.0000 
     44 N           4.5670    6.7620   41.5040 N.am      8 SEL2        0.0000 
     45 N           6.1580    6.9840   39.4790 N.am      5 SEP2        0.0000 
     46 N           4.9500    5.5405   42.0695 N.am      2 SEC2        0.0000 
     47 N           5.3330    4.3190   42.6350 N.am      5 SEP2        0.0000 
     48 N           2.0065    7.5655   39.2970 N.am      2 SEC2        0.0000 
     49 N           2.8620    7.9750   40.1540 N.am      8 SEL2        0.0000 
     50 N           1.1510    7.1560   38.4400 N.am      5 SEP2        0.0000 
     51 N           3.3110    8.0505   38.9470 N.am      2 SEC2        0.0000 
     52 N           3.7600    8.1260   37.7400 N.am      5 SEP2        0.0000 
     53 N           0.8185    5.9080   41.1595 N.am      2 SEC2        0.0000 
     54 N           2.1910    5.9550   41.4450 N.am      8 SEL2        0.0000 
     55 N          -0.5540    5.8610   40.8740 N.am      5 SEP2        0.0000 
     56 N           1.6710    6.5555   39.9425 N.am      2 SEC2        0.0000 
     57 CA         -3.1052   14.1158   40.2212 C.3       3 GLC5        0.0000 
     58 CA         -1.3070   14.4920   40.2160 C.3       9 GLL5        0.0000 
     59 CA         -4.8420   13.6620   40.9090 C.3       6 GLP5        0.0000 
     60 CA         -1.6670   11.9475   38.0130 C.3       3 GLC5        0.0000 
     61 CA         -0.5870   14.0440   37.9340 C.3       9 GLL5        0.0000 
     62 CA         -2.4080   10.0540   38.7280 C.3       6 GLP5        0.0000 
     63 CA         -0.8764   15.7389   37.2051 C.3       3 GLC5        0.0000 
     64 CA         -0.6160   17.4860   36.8830 C.3       6 GLP5        0.0000 
     65 CA          1.8673   14.3656   37.1151 C.3       3 GLC5        0.0000 
     66 CA          3.2450   15.8110   36.3790 C.3       6 GLP5        0.0000 
     67 CA         -0.8745   11.4764   38.8098 C.3       3 GLC5        0.0000 
     68 CA          0.4430   13.2450   38.4210 C.3       9 GLL5        0.0000 
     69 CA         -0.6112    9.6223   43.0475 C.3       3 GLC5        0.0000 
     70 CA          0.3280   11.2970   42.6950 C.3       9 GLL5        0.0000 
     71 CA         -2.0290    8.4540   43.1150 C.3       6 GLP5        0.0000 
     72 CA          4.2890   11.3842   43.2625 C.3       3 GLC5        0.0000 
     73 CA          2.5970   10.3270   42.4940 C.3       9 GLL5        0.0000 
     74 CA          5.5250   13.0080   43.8080 C.3       6 GLP5        0.0000 
@<TRIPOS>BOND
@<TRIPOS>SUBSTRUCTURE
     1 ALC1        6 GROUP        1 X    ALC  0     ROOT ALC X 1
     2 SEC2        1 GROUP        1 X    SEC  0     **** SEC X 2
     3 GLC5       16 GROUP        1 X    GLC  0     **** GLC X 6
     4 ALP1        8 GROUP        1 Y    ALP  0     ROOT ALP Y 8
     5 SEP2        3 GROUP        1 Y    SEP  0     **** SEP Y 9
     6 GLP5       18 GROUP        1 Y    GLP  0     **** GLP Y 13
     7 ALL1        7 GROUP        1 Z    ALL  0     ROOT ALL Z 15
     8 SEL2        2 GROUP        1 Z    SEL  0     **** SEL Z 16
     9 GLL5       17 GROUP        1 Z    GLL  0     **** GLL Z 20
@<TRIPOS>SET

