#    Name: 3c3n_FMN_1_ligand
#    Modification time : Mon Mar 24 20:26:34 2014

@<TRIPOS>MOLECULE
3c3n_FMN_1_ligand
   50    52     1     0     0
SMALL
NO_CHARGES


@<TRIPOS>ATOM
      1 N1         -0.9500   14.0190   44.3210 N.2       1 FMN315      0.0000 
      2 C2         -1.8210   14.6290   45.1750 C.2       1 FMN315      0.0000 
      3 O2         -1.6700   14.4530   46.3790 O.2       1 FMN315      0.0000 
      4 N3         -2.8420   15.4110   44.6790 N.am      1 FMN315      0.0000 
      5 C4         -2.9880   15.5880   43.3140 C.2       1 FMN315      0.0000 
      6 O4         -3.9030   16.2910   42.8670 O.2       1 FMN315      0.0000 
      7 C4A        -2.0940   14.9700   42.4440 C.2       1 FMN315      0.0000 
      8 N5         -2.1860   15.1360   41.0780 N.2       1 FMN315      0.0000 
      9 C5A        -1.3070   14.4920   40.2160 C.ar      1 FMN315      0.0000 
     10 C6         -1.4300   14.6470   38.8510 C.ar      1 FMN315      0.0000 
     11 C7         -0.5870   14.0440   37.9340 C.ar      1 FMN315      0.0000 
     12 C7M        -1.2650   13.6380   36.6620 C.3       1 FMN315      0.0000 
     13 C8          0.4430   13.2450   38.4210 C.ar      1 FMN315      0.0000 
     14 C8M         1.0510   12.1960   37.5250 C.3       1 FMN315      0.0000 
     15 C9          0.5710   13.0770   39.8100 C.ar      1 FMN315      0.0000 
     16 C9A        -0.2930   13.7010   40.7160 C.ar      1 FMN315      0.0000 
     17 N10        -0.1740   13.5660   42.0930 N.pl3     1 FMN315      0.0000 
     18 C10        -1.0740   14.1830   42.9520 C.2       1 FMN315      0.0000 
     19 C1'         0.8850   12.7080   42.6920 C.3       1 FMN315      0.0000 
     20 C2'         0.3280   11.2970   42.6950 C.3       1 FMN315      0.0000 
     21 O2'        -0.8110   11.3090   43.4860 O.3       1 FMN315      0.0000 
     22 C3'         1.2850   10.2840   43.2650 C.3       1 FMN315      0.0000 
     23 O3'         1.5080   10.5870   44.6300 O.3       1 FMN315      0.0000 
     24 C4'         2.5970   10.3270   42.4940 C.3       1 FMN315      0.0000 
     25 O4'         2.3260   10.2310   41.1110 O.3       1 FMN315      0.0000 
     26 C5'         3.5090    9.1940   42.9400 C.3       1 FMN315      0.0000 
     27 O5'         2.7860    8.0110   42.7080 O.3       1 FMN315      0.0000 
     28 P           3.0940    7.1520   41.3960 P.3       1 FMN315      0.0000 
     29 O1P         4.5670    6.7620   41.5040 O.co2     1 FMN315      0.0000 
     30 O2P         2.8620    7.9750   40.1540 O.co2     1 FMN315      0.0000 
     31 O3P         2.1910    5.9550   41.4450 O.co2     1 FMN315      0.0000 
     32 H          -3.5038   15.8690   45.3281 H         1 FMN315      0.0000 
     33 H          -2.2089   15.2585   38.4839 H         1 FMN315      0.0000 
     34 H           1.3320   12.4698   40.1730 H         1 FMN315      0.0000 
     35 H           1.0886   13.0122   43.7023 H         1 FMN315      0.0000 
     36 H           1.7764   12.7373   42.0926 H         1 FMN315      0.0000 
     37 H           0.0927   11.0230   41.6773 H         1 FMN315      0.0000 
     38 H           0.8539    9.3029   43.1439 H         1 FMN315      0.0000 
     39 H           3.0875   11.2660   42.7330 H         1 FMN315      0.0000 
     40 H           3.7388    9.3439   43.9881 H         1 FMN315      0.0000 
     41 H           4.4190    9.2485   42.3547 H         1 FMN315      0.0000 
     42 H          -0.6289   13.2036   36.0244 H         1 FMN315      0.0000 
     43 H          -2.0052   12.9862   36.8273 H         1 FMN315      0.0000 
     44 H          -1.6654   14.4222   36.1879 H         1 FMN315      0.0000 
     45 H           1.4519   12.5978   36.7017 H         1 FMN315      0.0000 
     46 H           1.7782   11.6887   37.9875 H         1 FMN315      0.0000 
     47 H           0.3723   11.5262   37.2237 H         1 FMN315      0.0000 
     48 H          -1.5283   11.6873   42.9009 H         1 FMN315      0.0000 
     49 H           2.4752   10.8349   44.6853 H         1 FMN315      0.0000 
     50 H           2.9980    9.5788   40.7604 H         1 FMN315      0.0000 
@<TRIPOS>BOND
     1    2    1 1    
     2   18    1 2    
     3    3    2 2    
     4    4    2 am   
     5    5    4 am   
     6   32    4 1    
     7    6    5 2    
     8    7    5 1    
     9    8    7 2    
    10   18    7 1    
    11    9    8 1    
    12   10    9 ar   
    13   16    9 ar   
    14   11   10 ar   
    15   33   10 1    
    16   12   11 1    
    17   13   11 ar   
    18   42   12 1    
    19   43   12 1    
    20   44   12 1    
    21   14   13 1    
    22   15   13 ar   
    23   45   14 1    
    24   46   14 1    
    25   47   14 1    
    26   16   15 ar   
    27   34   15 1    
    28   17   16 1    
    29   18   17 1    
    30   19   17 1    
    31   20   19 1    
    32   35   19 1    
    33   36   19 1    
    34   21   20 1    
    35   22   20 1    
    36   37   20 1    
    37   48   21 1    
    38   23   22 1    
    39   24   22 1    
    40   38   22 1    
    41   49   23 1    
    42   25   24 1    
    43   26   24 1    
    44   39   24 1    
    45   50   25 1    
    46   27   26 1    
    47   40   26 1    
    48   41   26 1    
    49   28   27 1    
    50   29   28 ar   
    51   30   28 ar   
    52   31   28 ar   
@<TRIPOS>SUBSTRUCTURE
     1 FMN315      1 GROUP   
@<TRIPOS>SET

