#    Name: 3rwp_ABQ_1_INTS_M
#    Modification time : Tue Mar 25 12:04:16 2014

@<TRIPOS>MOLECULE
3rwp_ABQ_1_INTS_M
   86     0     9     0     0
SMALL
NO_CHARGES


@<TRIPOS>ATOM
      1 CA         38.8150   25.2180   31.9690 C.3       3 GLC5        0.0000 
      2 CA         39.6120   26.2120   30.3420 C.3       9 GLL5        0.0000 
      3 CA         38.0180   24.2240   33.5960 C.3       6 GLP5        0.0000 
      4 CA         38.0195   31.5690   28.2370 C.3       3 GLC5        0.0000 
      5 CA         37.4060   30.1140   26.9890 C.3       9 GLL5        0.0000 
      6 CA         38.6330   33.0240   29.4850 C.3       6 GLP5        0.0000 
      7 CA         35.8400   31.5355   27.4990 C.3       3 GLC5        0.0000 
      8 CA         34.2740   32.9570   28.0090 C.3       6 GLP5        0.0000 
      9 CA         38.3425   30.4100   24.9860 C.3       3 GLC5        0.0000 
     10 CA         39.2790   30.7060   22.9830 C.3       6 GLP5        0.0000 
     11 CA         39.6530   30.7790   27.7730 C.3       3 GLC5        0.0000 
     12 CA         39.3320   29.0070   26.4450 C.3       9 GLL5        0.0000 
     13 CA         39.9740   32.5510   29.1010 C.3       6 GLP5        0.0000 
     14 CA         31.2970   26.4990   31.0635 C.3       3 GLC5        0.0000 
     15 CA         31.0370   26.2560   29.0630 C.3       9 GLL5        0.0000 
     16 CA         31.5570   26.7420   33.0640 C.3       6 GLP5        0.0000 
     17 CA         31.0410   28.1450   30.0085 C.3       3 GLC5        0.0000 
     18 CA         31.0450   30.0340   30.9540 C.3       6 GLP5        0.0000 
     19 CA         30.0505   26.1625   27.3615 C.3       3 GLC5        0.0000 
     20 CA         29.0640   26.0690   25.6600 C.3       6 GLP5        0.0000 
     21 CA         31.9660   26.3330   27.1530 C.3       3 GLC5        0.0000 
     22 CA         32.8950   26.4100   25.2430 C.3       6 GLP5        0.0000 
     23 CA         32.3905   26.4490   31.0045 C.3       3 GLC5        0.0000 
     24 CA         33.2240   26.1560   28.9450 C.3       9 GLL5        0.0000 
     25 CA         37.2220   27.9685   25.0960 C.3       3 GLC5        0.0000 
     26 CA         38.6730   27.7930   26.4730 C.3       9 GLL5        0.0000 
     27 CA         35.7710   28.1440   23.7190 C.3       6 GLP5        0.0000 
     28 CA         30.5845   27.0660   26.8950 C.3       3 GLC5        0.0000 
     29 CA         32.1050   28.0630   28.1300 C.3       9 GLL5        0.0000 
     30 CA         40.7450   22.9210   26.0015 C.3       3 GLC5        0.0000 
     31 CA         41.7010   24.5070   26.9190 C.3       9 GLL5        0.0000 
     32 CA         39.7890   21.3350   25.0840 C.3       6 GLP5        0.0000 
     33 CA         41.9990   24.7285   23.4070 C.3       3 GLC5        0.0000 
     34 CA         40.8750   25.3420   24.8890 C.3       9 GLL5        0.0000 
     35 CA         43.1230   24.1150   21.9250 C.3       6 GLP5        0.0000 
     36 CA         40.3320   23.3385   24.9865 C.3       3 GLC5        0.0000 
     37 CA         39.7080   25.6975   23.3935 C.3       3 GLC5        0.0000 
     38 CA         38.5410   26.0530   21.8980 C.3       6 GLP5        0.0000 
     39 CA         37.1320   24.2475   31.8965 C.3       3 GLC5        0.0000 
     40 CA         36.2460   24.2710   30.1970 C.3       9 GLL5        0.0000 
     41 CA         35.1495   22.1230   27.2400 C.3       3 GLC5        0.0000 
     42 CA         34.5760   23.3780   28.5110 C.3       9 GLL5        0.0000 
     43 CA         35.7230   20.8680   25.9690 C.3       6 GLP5        0.0000 
     44 CA         34.2935   23.8195   26.5530 C.3       3 GLC5        0.0000 
     45 CA         34.0110   24.2610   24.5950 C.3       6 GLP5        0.0000 
     46 N          39.3985   31.2670   27.1610 N.am      2 SEC2        0.0000 
     47 N          38.7370   30.1990   26.6770 N.am      8 SEL2        0.0000 
     48 N          40.0600   32.3350   27.6450 N.am      5 SEP2        0.0000 
     49 N          29.5240   27.3740   28.0415 N.am      2 SEC2        0.0000 
     50 N          30.9600   27.4510   28.4900 N.am      8 SEL2        0.0000 
     51 N          28.0880   27.2970   27.5930 N.am      5 SEP2        0.0000 
     52 O          30.6410   29.9415   27.6185 O.2       1 ALC1        0.0000 
     53 O          31.9790   29.3190   27.5510 O.2       7 ALL1        0.0000 
     54 O          29.3030   30.5640   27.6860 O.2       4 ALP1        0.0000 
     55 N          35.0160   30.1155   25.5410 N.am      2 SEC2        0.0000 
     56 N          34.5730   29.6890   26.8550 N.am      8 SEL2        0.0000 
     57 N          35.4590   30.5420   24.2270 N.am      5 SEP2        0.0000 
     58 CA         38.9200   26.0510   32.8045 C.3       3 GLC5        0.0000 
     59 CA         39.8220   27.8780   32.0130 C.3       9 GLL5        0.0000 
     60 CA         39.8985   28.8190   33.4880 C.3       3 GLC5        0.0000 
     61 CA         39.9750   29.7600   34.9630 C.3       6 GLP5        0.0000 
     62 CA         42.7178   27.3710   30.6752 C.3       3 GLC5        0.0000 
     63 CA         41.1640   28.0650   30.1260 C.3       9 GLL5        0.0000 
     64 CA         44.0450   26.9150   31.8290 C.3       6 GLP5        0.0000 
     65 CA         37.0632   29.5102   29.1673 C.3       3 GLC5        0.0000 
     66 CA         36.7590   28.9050   27.0380 C.3       9 GLL5        0.0000 
     67 CA         37.0440   29.5110   31.3210 C.3       6 GLP5        0.0000 
     68 CA         36.4267   28.8267   25.3663 C.3       3 GLC5        0.0000 
     69 CA         39.3732   28.8175   24.7160 C.3       3 GLC5        0.0000 
     70 CA         39.7440   29.2350   22.9730 C.3       6 GLP5        0.0000 
     71 CA         33.9820   26.7632   26.7892 C.3       3 GLC5        0.0000 
     72 CA         34.7290   27.6740   28.0890 C.3       9 GLL5        0.0000 
     73 CA         31.8780   28.8835   29.5922 C.3       3 GLC5        0.0000 
     74 CA         33.3170   27.4030   28.3310 C.3       9 GLL5        0.0000 
     75 CA         42.0235   27.2698   31.6217 C.3       3 GLC5        0.0000 
     76 CA         40.1820   27.3710   30.8160 C.3       9 GLL5        0.0000 
     77 CA         32.7914   26.9156   26.8135 C.3       3 GLC5        0.0000 
     78 CA         40.2695   27.5792   24.1765 C.3       3 GLC5        0.0000 
     79 CA         40.7150   26.5050   25.8710 C.3       9 GLL5        0.0000 
     80 CA         34.5353   24.8430   31.7252 C.3       3 GLC5        0.0000 
     81 CA         33.5530   25.3870   33.5100 C.3       6 GLP5        0.0000 
     82 CA         40.6643   26.4824   32.7845 C.3       3 GLC5        0.0000 
     83 CA         41.4690   25.6300   34.2730 C.3       6 GLP5        0.0000 
     84 CA         38.4518   28.4229   31.3085 C.3       3 GLC5        0.0000 
     85 CA         34.3829   27.9825   30.2744 C.3       3 GLC5        0.0000 
     86 CA         34.5960   29.0170   32.0620 C.3       6 GLP5        0.0000 
@<TRIPOS>BOND
@<TRIPOS>SUBSTRUCTURE
     1 ALC1       52 GROUP        1 X    ALC  0     ROOT ALC X 1
     2 SEC2       46 GROUP        1 X    SEC  0     **** SEC X 2
     3 GLC5        1 GROUP        1 X    GLC  0     **** GLC X 6
     4 ALP1       54 GROUP        1 Y    ALP  0     ROOT ALP Y 8
     5 SEP2       48 GROUP        1 Y    SEP  0     **** SEP Y 9
     6 GLP5        3 GROUP        1 Y    GLP  0     **** GLP Y 13
     7 ALL1       53 GROUP        1 Z    ALL  0     ROOT ALL Z 15
     8 SEL2       47 GROUP        1 Z    SEL  0     **** SEL Z 16
     9 GLL5        2 GROUP        1 Z    GLL  0     **** GLL Z 20
@<TRIPOS>SET

