#    Name: 3rwp_ABQ_1_ligand
#    Modification time : Tue Mar 25 12:04:16 2014

@<TRIPOS>MOLECULE
3rwp_ABQ_1_ligand
   58    62     1     0     0
SMALL
NO_CHARGES


@<TRIPOS>ATOM
      1 C1         41.6170   27.5890   28.9170 C.ar      1 ABQ360      0.0000 
      2 C2         40.0570   25.7320   29.1040 C.ar      1 ABQ360      0.0000 
      3 C3         41.1640   28.0650   30.1260 C.ar      1 ABQ360      0.0000 
      4 C4         39.6120   26.2120   30.3420 C.ar      1 ABQ360      0.0000 
      5 C5         37.4060   30.1140   26.9890 C.ar      1 ABQ360      0.0000 
      6 C6         39.3320   29.0070   26.4450 C.ar      1 ABQ360      0.0000 
      7 C7         35.4090   26.5590   28.5820 C.2       1 ABQ360      0.0000 
      8 C8         31.0370   26.2560   29.0630 C.ar      1 ABQ360      0.0000 
      9 C9         33.3170   27.4030   28.3310 C.ar      1 ABQ360      0.0000 
     10 C10        34.7290   27.6740   28.0890 C.2       1 ABQ360      0.0000 
     11 C11        41.0610   26.4230   28.4020 C.ar      1 ABQ360      0.0000 
     12 C12        40.1820   27.3710   30.8160 C.ar      1 ABQ360      0.0000 
     13 C13        36.7590   28.9050   27.0380 C.ar      1 ABQ360      0.0000 
     14 C14        33.2240   26.1560   28.9450 C.ar      1 ABQ360      0.0000 
     15 C15        38.6730   27.7930   26.4730 C.ar      1 ABQ360      0.0000 
     16 C16        32.1050   28.0630   28.1300 C.ar      1 ABQ360      0.0000 
     17 C17        35.3080   28.8290   27.3920 C.2       1 ABQ360      0.0000 
     18 C18        41.7010   24.5070   26.9190 C.3       1 ABQ360      0.0000 
     19 C19        40.8750   25.3420   24.8890 C.3       1 ABQ360      0.0000 
     20 C20        41.5930   26.0210   27.0630 C.3       1 ABQ360      0.0000 
     21 C21        40.7150   26.5050   25.8710 C.3       1 ABQ360      0.0000 
     22 C22        36.2460   24.2710   30.1970 C.3       1 ABQ360      0.0000 
     23 C23        34.5760   23.3780   28.5110 C.3       1 ABQ360      0.0000 
     24 C24        34.7890   24.3270   29.6840 C.3       1 ABQ360      0.0000 
     25 N25        38.7370   30.1990   26.6770 N.ar      1 ABQ360      0.0000 
     26 N26        32.1030   25.5240   29.3220 N.ar      1 ABQ360      0.0000 
     27 N27        30.9600   27.4510   28.4900 N.ar      1 ABQ360      0.0000 
     28 N28        37.3590   27.7190   26.7800 N.ar      1 ABQ360      0.0000 
     29 N29        34.5120   25.6500   29.0970 N.pl3     1 ABQ360      0.0000 
     30 N30        31.9790   29.3190   27.5510 N.pl3     1 ABQ360      0.0000 
     31 N31        39.2760   26.5560   26.1520 N.pl3     1 ABQ360      0.0000 
     32 O32        34.5730   29.6890   26.8550 O.2       1 ABQ360      0.0000 
     33 O33        41.5790   24.2310   25.5000 O.3       1 ABQ360      0.0000 
     34 F34        39.8220   27.8780   32.0130 F         1 ABQ360      0.0000 
     35 H          42.3509   28.0802   28.4000 H         1 ABQ360      0.0000 
     36 H          39.6534   24.8786   28.7077 H         1 ABQ360      0.0000 
     37 H          41.5505   28.9342   30.5213 H         1 ABQ360      0.0000 
     38 H          38.8976   25.7166   30.8595 H         1 ABQ360      0.0000 
     39 H          36.8713   30.9875   27.1941 H         1 ABQ360      0.0000 
     40 H          40.3741   28.9904   26.2258 H         1 ABQ360      0.0000 
     41 H          36.3644   26.4515   28.5602 H         1 ABQ360      0.0000 
     42 H          30.0626   25.8118   29.3666 H         1 ABQ360      0.0000 
     43 H          40.9017   24.0513   27.4814 H         1 ABQ360      0.0000 
     44 H          42.6589   24.1936   27.3026 H         1 ABQ360      0.0000 
     45 H          41.4148   25.7160   24.0074 H         1 ABQ360      0.0000 
     46 H          39.8716   25.0401   24.5564 H         1 ABQ360      0.0000 
     47 H          42.5878   26.4340   26.9093 H         1 ABQ360      0.0000 
     48 H          41.1085   27.3518   25.4494 H         1 ABQ360      0.0000 
     49 H          34.1121   24.1047   30.4479 H         1 ABQ360      0.0000 
     50 H          31.0454   29.6572   27.4323 H         1 ABQ360      0.0000 
     51 H          32.8327   29.7768   27.3028 H         1 ABQ360      0.0000 
     52 H          38.7422   25.7014   26.1102 H         1 ABQ360      0.0000 
     53 H          36.9005   24.5244   29.4847 H         1 ABQ360      0.0000 
     54 H          36.3934   24.8937   30.9655 H         1 ABQ360      0.0000 
     55 H          36.4943   23.3545   30.5106 H         1 ABQ360      0.0000 
     56 H          35.1707   23.6024   27.7390 H         1 ABQ360      0.0000 
     57 H          34.7668   22.4289   28.7617 H         1 ABQ360      0.0000 
     58 H          33.6348   23.4087   28.1746 H         1 ABQ360      0.0000 
@<TRIPOS>BOND
     1    3    1 ar   
     2   11    1 ar   
     3   35    1 1    
     4    4    2 ar   
     5   11    2 ar   
     6   36    2 1    
     7   12    3 ar   
     8   37    3 1    
     9   12    4 ar   
    10   38    4 1    
    11   13    5 ar   
    12   25    5 ar   
    13   39    5 1    
    14   15    6 ar   
    15   25    6 ar   
    16   40    6 1    
    17   10    7 2    
    18   29    7 1    
    19   41    7 1    
    20   26    8 ar   
    21   27    8 ar   
    22   42    8 1    
    23   10    9 1    
    24   14    9 ar   
    25   16    9 ar   
    26   17   10 1    
    27   20   11 1    
    28   34   12 1    
    29   17   13 1    
    30   28   13 ar   
    31   26   14 ar   
    32   29   14 1    
    33   28   15 ar   
    34   31   15 1    
    35   27   16 ar   
    36   30   16 1    
    37   32   17 2    
    38   20   18 1    
    39   33   18 1    
    40   43   18 1    
    41   44   18 1    
    42   21   19 1    
    43   33   19 1    
    44   45   19 1    
    45   46   19 1    
    46   21   20 1    
    47   47   20 1    
    48   31   21 1    
    49   48   21 1    
    50   24   22 1    
    51   53   22 1    
    52   54   22 1    
    53   55   22 1    
    54   24   23 1    
    55   56   23 1    
    56   57   23 1    
    57   58   23 1    
    58   29   24 1    
    59   49   24 1    
    60   50   30 1    
    61   51   30 1    
    62   52   31 1    
@<TRIPOS>SUBSTRUCTURE
     1 ABQ360      1 GROUP   
@<TRIPOS>SET

