#    Name: 1wb9_ADP_1_INTS_M
#    Modification time : Tue Mar 25 08:52:22 2014

@<TRIPOS>MOLECULE
1wb9_ADP_1_INTS_M
   62     0    15     0     0
SMALL
NO_CHARGES


@<TRIPOS>ATOM
      1 NZ        134.8430   45.7825    5.9000 N.4       3 LYC4        0.0000 
      2 NZ        133.7270   45.6220    7.4140 N.4      13 LYL4        0.0000 
      3 NZ        135.9590   45.9430    4.3860 N.4       8 LYP4        0.0000 
      4 N         133.9040   44.2535    7.4490 N.am      2 SEC2        0.0000 
      5 N         133.7270   45.6220    7.4140 N.am     12 SEL2        0.0000 
      6 N         134.0810   42.8850    7.4840 N.am      7 SEP2        0.0000 
      7 Zn        133.7180   48.5645    7.5310 Zn        4 ZIC7        0.0000 
      8 Zn        134.4890   47.9660    7.8640 Zn       14 ZIL7        0.0000 
      9 Zn        132.9470   49.1630    7.1980 Zn        9 ZIP7        0.0000 
     10 N         135.5170   49.0750    8.0830 N.am      2 SEC2        0.0000 
     11 N         134.4890   47.9660    7.8640 N.am     12 SEL2        0.0000 
     12 N         136.5450   50.1840    8.3020 N.am      7 SEP2        0.0000 
     13 NZ        135.9850   46.0990    5.6975 N.4       3 LYC4        0.0000 
     14 NZ        136.0110   46.2550    7.0090 N.4      13 LYL4        0.0000 
     15 N         137.1020   45.7265    8.1430 N.am      2 SEC2        0.0000 
     16 N         136.0110   46.2550    7.0090 N.am     12 SEL2        0.0000 
     17 N         138.1930   45.1980    9.2770 N.am      7 SEP2        0.0000 
     18 N         137.1095   47.0020    7.6100 N.am      2 SEC2        0.0000 
     19 N         138.2080   47.7490    8.2110 N.am      7 SEP2        0.0000 
     20 N         135.9850   46.0990    5.6975 N.am      2 SEC2        0.0000 
     21 N         135.9590   45.9430    4.3860 N.am      7 SEP2        0.0000 
     22 N         136.3695   49.4550   11.0255 N.am      2 SEC2        0.0000 
     23 N         135.8480   48.1520   10.9750 N.am     12 SEL2        0.0000 
     24 N         136.8910   50.7580   11.0760 N.am      7 SEP2        0.0000 
     25 N         136.1255   48.6355   12.1990 N.am      2 SEC2        0.0000 
     26 N         136.4030   49.1190   13.4230 N.am      7 SEP2        0.0000 
     27 N         136.8070   45.6665    9.3515 N.am      2 SEC2        0.0000 
     28 N         135.4210   46.1350    9.4260 N.am     12 SEL2        0.0000 
     29 N         136.8145   46.9420    8.8185 N.am      2 SEC2        0.0000 
     30 CA        134.6110   43.6875   10.5365 C.3       5 GLC5        0.0000 
     31 CA        134.7090   44.7720   12.2100 C.3      15 GLL5        0.0000 
     32 CA        134.5130   42.6030    8.8630 C.3      10 GLP5        0.0000 
     33 CA        136.3225   46.8430   17.2260 C.3       5 GLC5        0.0000 
     34 CA        135.7110   45.5840   15.5740 C.3      15 GLL5        0.0000 
     35 CA        136.9340   48.1020   18.8780 C.3      10 GLP5        0.0000 
     36 CA        139.2695   47.9310   14.7890 C.3       5 GLC5        0.0000 
     37 CA        140.1820   45.9290   15.0810 C.3      15 GLL5        0.0000 
     38 CA        138.3570   49.9330   14.4970 C.3      10 GLP5        0.0000 
     39 CA        143.3700   45.0690   15.7955 C.3       5 GLC5        0.0000 
     40 CA        141.4620   45.8720   15.6270 C.3      15 GLL5        0.0000 
     41 CA        145.2780   44.2660   15.9640 C.3      10 GLP5        0.0000 
     42 O         143.8180   46.8675   15.5255 O.2       1 ALC1        0.0000 
     43 O         142.4520   46.5840   15.1020 O.2      11 ALL1        0.0000 
     44 O         145.1840   47.1510   15.9490 O.2       6 ALP1        0.0000 
     45 N         143.0260   45.0865   17.3525 N.am      2 SEC2        0.0000 
     46 N         141.7170   44.9700   16.6410 N.am     12 SEL2        0.0000 
     47 N         144.3350   45.2030   18.0640 N.am      7 SEP2        0.0000 
     48 CA        139.6510   44.2585   18.5205 C.3       5 GLC5        0.0000 
     49 CA        140.7300   44.1320   17.1060 C.3      15 GLL5        0.0000 
     50 CA        138.5720   44.3850   19.9350 C.3      10 GLP5        0.0000 
     51 CA        141.9015   44.8090   18.6070 C.3       5 GLC5        0.0000 
     52 CA        143.0730   45.4860   20.1080 C.3      10 GLP5        0.0000 
     53 CA        142.6735   43.5330   16.7165 C.3       5 GLC5        0.0000 
     54 CA        144.6170   42.9340   16.3270 C.3      10 GLP5        0.0000 
     55 CA        140.6515   42.9770   15.7625 C.3       5 GLC5        0.0000 
     56 CA        140.5730   41.8220   14.4190 C.3      10 GLP5        0.0000 
     57 CA        138.8850   44.7165   17.7445 C.3       5 GLC5        0.0000 
     58 CA        139.1980   45.0480   15.5540 C.3      15 GLL5        0.0000 
     59 CA        140.0560   43.8955   14.5185 C.3       5 GLC5        0.0000 
     60 CA        140.9140   42.7430   13.4830 C.3      10 GLP5        0.0000 
     61 CA        141.5055   44.7028   14.3070 C.3       5 GLC5        0.0000 
     62 CA        142.1890   43.5050   13.2600 C.3      10 GLP5        0.0000 
@<TRIPOS>BOND
@<TRIPOS>SUBSTRUCTURE
     1 ALC1       42 GROUP        1 X    ALC  0     ROOT ALC X 1
     2 SEC2        4 GROUP        1 X    SEC  0     **** SEC X 2
     3 LYC4        1 GROUP        1 X    LYC  0     **** LYC X 4
     4 ZIC7        7 GROUP        1 X    ZIC  0     **** ZIC X 5
     5 GLC5       30 GROUP        1 X    GLC  0     **** GLC X 6
     6 ALP1       44 GROUP        1 Y    ALP  0     ROOT ALP Y 8
     7 SEP2        6 GROUP        1 Y    SEP  0     **** SEP Y 9
     8 LYP4        3 GROUP        1 Y    LYP  0     **** LYP Y 11
     9 ZIP7        9 GROUP        1 Y    ZIP  0     **** ZIP Y 12
    10 GLP5       32 GROUP        1 Y    GLP  0     **** GLP Y 13
    11 ALL1       43 GROUP        1 Z    ALL  0     ROOT ALL Z 15
    12 SEL2        5 GROUP        1 Z    SEL  0     **** SEL Z 16
    13 LYL4        2 GROUP        1 Z    LYL  0     **** LYL Z 18
    14 ZIL7        8 GROUP        1 Z    ZIL  0     **** ZIL Z 19
    15 GLL5       31 GROUP        1 Z    GLL  0     **** GLL Z 20
@<TRIPOS>SET

