#    Name: 1wb9_ADP_1_ligand
#    Modification time : Tue Mar 25 08:52:22 2014

@<TRIPOS>MOLECULE
1wb9_ADP_1_ligand
   39    41     1     0     0
SMALL
NO_CHARGES


@<TRIPOS>ATOM
      1 PB        134.8930   46.4970    7.9490 P.3       1 ADP1801     0.0000 
      2 O1B       133.7270   45.6220    7.4140 O.co2     1 ADP1801     0.0000 
      3 O2B       134.4890   47.9660    7.8640 O.co2     1 ADP1801     0.0000 
      4 O3B       136.0110   46.2550    7.0090 O.co2     1 ADP1801     0.0000 
      5 PA        135.0000   46.9110   10.7670 P.3       1 ADP1801     0.0000 
      6 O1A       133.5310   47.1490   10.8290 O.co2     1 ADP1801     0.0000 
      7 O2A       135.8480   48.1520   10.9750 O.co2     1 ADP1801     0.0000 
      8 O3A       135.4210   46.1350    9.4260 O.3       1 ADP1801     0.0000 
      9 O5'       135.4030   45.9750   11.9850 O.3       1 ADP1801     0.0000 
     10 C5'       134.7090   44.7720   12.2100 C.3       1 ADP1801     0.0000 
     11 C4'       134.9140   44.3810   13.6530 C.3       1 ADP1801     0.0000 
     12 O4'       136.2810   44.0760   13.8330 O.3       1 ADP1801     0.0000 
     13 C3'       134.5640   45.5130   14.6050 C.3       1 ADP1801     0.0000 
     14 O3'       133.3950   45.1780   15.2990 O.3       1 ADP1801     0.0000 
     15 C2'       135.7110   45.5840   15.5740 C.3       1 ADP1801     0.0000 
     16 O2'       135.2350   45.1750   16.8320 O.3       1 ADP1801     0.0000 
     17 C1'       136.7610   44.6040   15.0470 C.3       1 ADP1801     0.0000 
     18 N9        138.0590   45.2870   14.8400 N.pl3     1 ADP1801     0.0000 
     19 C8        138.3450   46.2960   13.9440 C.2       1 ADP1801     0.0000 
     20 N7        139.6370   46.6740   14.0940 N.2       1 ADP1801     0.0000 
     21 C5        140.1820   45.9290   15.0810 C.ar      1 ADP1801     0.0000 
     22 C6        141.4620   45.8720   15.6270 C.ar      1 ADP1801     0.0000 
     23 N6        142.4520   46.5840   15.1020 N.pl3     1 ADP1801     0.0000 
     24 N1        141.7170   44.9700   16.6410 N.ar      1 ADP1801     0.0000 
     25 C2        140.7300   44.1320   17.1060 C.ar      1 ADP1801     0.0000 
     26 N3        139.4600   44.1720   16.5470 N.ar      1 ADP1801     0.0000 
     27 C4        139.1980   45.0480   15.5540 C.ar      1 ADP1801     0.0000 
     28 H         135.0801   43.9574   11.5824 H         1 ADP1801     0.0000 
     29 H         133.6346   44.8762   12.0367 H         1 ADP1801     0.0000 
     30 H         134.2951   43.5351   13.8806 H         1 ADP1801     0.0000 
     31 H         134.5042   46.4103   14.0625 H         1 ADP1801     0.0000 
     32 H         136.1129   46.5578   15.5635 H         1 ADP1801     0.0000 
     33 H         136.8760   43.8264   15.7908 H         1 ADP1801     0.0000 
     34 H         137.7139   46.6649   13.3149 H         1 ADP1801     0.0000 
     35 H         143.3479   46.4766   15.5330 H         1 ADP1801     0.0000 
     36 H         142.2123   47.1634   14.3230 H         1 ADP1801     0.0000 
     37 H         140.9288   43.4696   17.8725 H         1 ADP1801     0.0000 
     38 H         133.0461   46.0460   15.6521 H         1 ADP1801     0.0000 
     39 H         134.2674   44.9679   16.6876 H         1 ADP1801     0.0000 
@<TRIPOS>BOND
     1    2    1 ar   
     2    3    1 ar   
     3    4    1 ar   
     4    8    1 1    
     5    6    5 ar   
     6    7    5 ar   
     7    8    5 1    
     8    9    5 1    
     9   10    9 1    
    10   11   10 1    
    11   28   10 1    
    12   29   10 1    
    13   12   11 1    
    14   13   11 1    
    15   30   11 1    
    16   17   12 1    
    17   14   13 1    
    18   15   13 1    
    19   31   13 1    
    20   38   14 1    
    21   16   15 1    
    22   17   15 1    
    23   32   15 1    
    24   39   16 1    
    25   18   17 1    
    26   33   17 1    
    27   19   18 1    
    28   27   18 1    
    29   20   19 2    
    30   34   19 1    
    31   21   20 1    
    32   22   21 ar   
    33   27   21 ar   
    34   23   22 1    
    35   24   22 ar   
    36   35   23 1    
    37   36   23 1    
    38   25   24 ar   
    39   26   25 ar   
    40   37   25 1    
    41   27   26 ar   
@<TRIPOS>SUBSTRUCTURE
     1 ADP1801     1 GROUP   
@<TRIPOS>SET

