#    Name: 3T42_1_CAVITY_N1_ALL.mol2
#    Modification time : Tue Mar 11 02:36:45 2014

@<TRIPOS>MOLECULE
3T42_1_CAVITY_N1_ALL.mol2
   73     0     4     0     0
SMALL
NO_CHARGES


@<TRIPOS>ATOM
      1 CZ         -9.8984    2.2092   12.9249 C.ar      2 PHE5        0.0000 
      2 CA         -9.1623    0.9606   13.3112 C.3       3 GLY6        0.0000 
      3 CZ         -9.6017   -1.1142   13.2667 C.ar      2 PHE5        0.0000 
      4 CA         -1.9776    3.7521   14.4680 C.3       3 GLY6        0.0000 
      5 CA         -3.1531    2.9258   14.0372 C.3       3 GLY6        0.0000 
      6 CA         -7.4154    1.6956   12.3582 C.3       3 GLY6        0.0000 
      7 CZ         -8.5909    0.8693   11.9274 C.ar      2 PHE5        0.0000 
      8 CZ        -10.5023    1.2916   11.1101 C.ar      2 PHE5        0.0000 
      9 CZ         -9.7663    0.0430   11.4965 C.ar      2 PHE5        0.0000 
     10 CZ         -9.0302   -1.2055   11.8829 C.ar      2 PHE5        0.0000 
     11 DU        -10.9417   -0.7832   11.0656 H         4 CUB7        0.0000 
     12 CA         -4.4931    3.2568   11.8361 C.3       3 GLY6        0.0000 
     13 CA         -3.7570    2.0082   12.2224 C.3       3 GLY6        0.0000 
     14 CA         -5.6685    2.4305   11.4052 C.3       3 GLY6        0.0000 
     15 CZ         -4.9325    1.1819   11.7916 C.ar      2 PHE5        0.0000 
     16 CZ         -6.8440    1.6042   10.9744 C.ar      2 PHE5        0.0000 
     17 CZ         -8.0194    0.7780   10.5435 C.ar      2 PHE5        0.0000 
     18 CZ         -7.2833   -0.4706   10.9299 C.ar      2 PHE5        0.0000 
     19 CZ         -9.9309    1.2003    9.7263 C.ar      2 PHE5        0.0000 
     20 CZ         -9.1948   -0.0483   10.1126 C.ar      2 PHE5        0.0000 
     21 CZ         -8.4588   -1.2969   10.4990 C.ar      2 PHE5        0.0000 
     22 CA        -11.1063    0.3740    9.2954 C.3       3 GLY6        0.0000 
     23 DU        -10.3703   -0.8745    9.6818 H         4 CUB7        0.0000 
     24 DU         -9.6342   -2.1231   10.0681 H         4 CUB7        0.0000 
     25 CZ         -8.8981   -3.3717   10.4545 C.ar      2 PHE5        0.0000 
     26 DU        -10.8096   -2.9494    9.6373 H         4 CUB7        0.0000 
     27 CZ         -3.9216    3.1654   10.4522 C.ar      2 PHE5        0.0000 
     28 CZ         -3.1856    1.9169   10.8386 C.ar      2 PHE5        0.0000 
     29 CZ         -5.0971    2.3392   10.0213 C.ar      2 PHE5        0.0000 
     30 O          -4.3610    1.0906   10.4077 O.2       1 ALA2        0.0000 
     31 CZ         -3.6249   -0.1580   10.7941 C.ar      2 PHE5        0.0000 
     32 CZ         -6.2725    1.5129    9.5905 C.ar      2 PHE5        0.0000 
     33 CZ         -5.5364    0.2643    9.9768 C.ar      2 PHE5        0.0000 
     34 CZ         -4.8004   -0.9842   10.3632 C.ar      2 PHE5        0.0000 
     35 CZ         -7.4479    0.6866    9.1596 C.ar      2 PHE5        0.0000 
     36 CZ         -6.7119   -0.5619    9.5460 C.ar      2 PHE5        0.0000 
     37 CZ         -5.9758   -1.8105    9.9323 C.ar      2 PHE5        0.0000 
     38 CZ         -8.6234   -0.1396    8.7288 C.ar      2 PHE5        0.0000 
     39 O          -7.8873   -1.3882    9.1151 O.2       1 ALA2        0.0000 
     40 CA         -7.1512   -2.6368    9.5015 C.3       3 GLY6        0.0000 
     41 O          -9.7988   -0.9659    8.2979 O.2       1 ALA2        0.0000 
     42 O          -9.0627   -2.2145    8.6843 O.2       1 ALA2        0.0000 
     43 CA         -8.3267   -3.4630    9.0706 C.3       3 GLY6        0.0000 
     44 O         -10.9742   -1.7921    7.8671 O.2       1 ALA2        0.0000 
     45 O         -10.2382   -3.0407    8.2534 O.2       1 ALA2        0.0000 
     46 N          -9.5021   -4.2893    8.6398 N.2       1 ALA2        0.0000 
     47 O         -12.1497   -2.6184    7.4362 O.2       1 ALA2        0.0000 
     48 DU        -11.4136   -3.8670    7.8226 H         4 CUB7        0.0000 
     49 N         -10.6776   -5.1156    8.2089 N.2       1 ALA2        0.0000 
     50 CA         -4.5256    2.2478    8.6375 C.3       3 GLY6        0.0000 
     51 O          -3.7895    0.9993    9.0238 O.2       1 ALA2        0.0000 
     52 CZ         -5.7010    1.4216    8.2066 C.ar      2 PHE5        0.0000 
     53 O          -4.9650    0.1730    8.5930 O.2       1 ALA2        0.0000 
     54 CZ         -4.2289   -1.0756    8.9793 C.ar      2 PHE5        0.0000 
     55 CZ         -6.8765    0.5953    7.7758 C.ar      2 PHE5        0.0000 
     56 DU         -6.1404   -0.6533    8.1621 H         4 CUB7        0.0000 
     57 CA         -5.4044   -1.9018    8.5485 C.3       3 GLY6        0.0000 
     58 O          -7.3158   -1.4795    7.7313 O.2       1 ALA2        0.0000 
     59 CA         -6.5798   -2.7281    8.1176 C.3       3 GLY6        0.0000 
     60 CA         -7.7552   -3.5544    7.6868 C.3       3 GLY6        0.0000 
     61 O          -9.6667   -3.1321    6.8695 O.2       1 ALA2        0.0000 
     62 N          -8.9307   -4.3806    7.2559 N.2       1 ALA2        0.0000 
     63 CA        -10.8422   -3.9583    6.4387 C.3       3 GLY6        0.0000 
     64 N         -10.1061   -5.2069    6.8250 N.2       1 ALA2        0.0000 
     65 O          -3.2181    0.9079    7.6400 O.2       1 ALA2        0.0000 
     66 CA         -5.1296    1.3302    6.8228 C.3       3 GLY6        0.0000 
     67 N          -4.3935    0.0817    7.2091 N.2       1 ALA2        0.0000 
     68 N          -3.6575   -1.1669    7.5955 N.2       1 ALA2        0.0000 
     69 CZ         -6.3050    0.5040    6.3919 C.ar      2 PHE5        0.0000 
     70 CZ         -5.5689   -0.7446    6.7783 C.ar      2 PHE5        0.0000 
     71 CZ         -4.8329   -1.9932    7.1646 C.ar      2 PHE5        0.0000 
     72 CZ         -6.7444   -1.5709    6.3474 C.ar      2 PHE5        0.0000 
     73 CZ         -3.8220   -0.0097    5.8252 C.ar      2 PHE5        0.0000 
@<TRIPOS>BOND
@<TRIPOS>SUBSTRUCTURE
     1 ALA2       30 GROUP   
     2 PHE5        1 GROUP   
     3 GLY6        2 GROUP   
     4 CUB7       11 GROUP   
@<TRIPOS>SET

