#    Name: 3t42_3T4_1_INTS_M
#    Modification time : Mon Mar 24 19:05:06 2014

@<TRIPOS>MOLECULE
3t42_3T4_1_INTS_M
   58     0     6     0     0
SMALL
NO_CHARGES


@<TRIPOS>ATOM
      1 CA         -3.4635    4.3300   13.9050 C.3       2 GLC5        0.0000 
      2 CA         -1.7990    3.4840   12.8740 C.3       6 GLL5        0.0000 
      3 CA         -5.1280    5.1760   14.9360 C.3       4 GLP5        0.0000 
      4 CA         -8.8945   -2.6725    6.1535 C.3       2 GLC5        0.0000 
      5 CA         -8.6400   -3.7130    7.6840 C.3       6 GLL5        0.0000 
      6 CA         -9.1490   -1.6320    4.6230 C.3       4 GLP5        0.0000 
      7 CA         -7.5595   -3.9815    6.1105 C.3       2 GLC5        0.0000 
      8 CA         -6.4790   -4.2500    4.5370 C.3       4 GLP5        0.0000 
      9 N          -2.7470    6.3390   13.3910 N.am      1 SEC2        0.0000 
     10 N          -1.4860    5.7240   13.1020 N.am      5 SEL2        0.0000 
     11 N          -4.0080    6.9540   13.6800 N.am      3 SEP2        0.0000 
     12 CA         -3.1510    5.7110   11.7415 C.3       2 GLC5        0.0000 
     13 CA         -2.8820    3.7170   12.0280 C.3       6 GLL5        0.0000 
     14 CA         -3.4200    7.7050   11.4550 C.3       4 GLP5        0.0000 
     15 CA         -4.4060    4.0930   12.9380 C.3       2 GLC5        0.0000 
     16 CA         -5.9300    4.4690   13.8480 C.3       4 GLP5        0.0000 
     17 CA         -3.0215    2.8160    9.8595 C.3       2 GLC5        0.0000 
     18 CA         -4.7650    2.9540   10.5670 C.3       6 GLL5        0.0000 
     19 CA         -1.2780    2.6780    9.1520 C.3       4 GLP5        0.0000 
     20 CA         -6.4060    3.4770    9.8470 C.3       2 GLC5        0.0000 
     21 CA         -8.0470    4.0000    9.1270 C.3       4 GLP5        0.0000 
     22 CA         -4.4725    3.7600    8.8485 C.3       2 GLC5        0.0000 
     23 CA         -4.1800    4.5660    7.1300 C.3       4 GLP5        0.0000 
     24 CA         -7.0095   -4.0290    9.8640 C.3       2 GLC5        0.0000 
     25 CA         -8.0620   -2.1520    9.8270 C.3       6 GLL5        0.0000 
     26 CA         -5.9570   -5.9060    9.9010 C.3       4 GLP5        0.0000 
     27 CA         -7.0860    0.4410    5.2530 C.3       2 GLC5        0.0000 
     28 CA         -5.7040    0.4190    6.2790 C.3       6 GLL5        0.0000 
     29 CA         -8.4680    0.4630    4.2270 C.3       4 GLP5        0.0000 
     30 CA         -5.6140   -1.4165    5.3510 C.3       2 GLC5        0.0000 
     31 CA         -5.5240   -3.2520    4.4230 C.3       4 GLP5        0.0000 
     32 CA         -4.9420    2.4925    6.7045 C.3       2 GLC5        0.0000 
     33 CA         -4.4700    1.3490    5.2280 C.3       2 GLC5        0.0000 
     34 CA         -3.2360    2.2790    4.1770 C.3       4 GLP5        0.0000 
     35 N          -3.8625   -1.3705    4.3035 N.am      1 SEC2        0.0000 
     36 N          -3.7970   -0.6660    5.5230 N.am      5 SEL2        0.0000 
     37 N          -3.9280   -2.0750    3.0840 N.am      3 SEP2        0.0000 
     38 N          -2.7640   -1.4450    5.8560 N.am      1 SEC2        0.0000 
     39 N          -1.7310   -2.2240    6.1890 N.am      3 SEP2        0.0000 
     40 N          -2.4085    0.0335    8.4470 N.am      1 SEC2        0.0000 
     41 N          -3.7780   -0.1240    7.6300 N.am      5 SEL2        0.0000 
     42 N          -1.0390    0.1910    9.2640 N.am      3 SEP2        0.0000 
     43 CA          0.3500    2.2750   12.2980 C.3       2 GLC5        0.0000 
     44 CA         -0.4260    1.9120   13.9380 C.3       6 GLL5        0.0000 
     45 CA          1.1260    2.6380   10.6580 C.3       4 GLP5        0.0000 
     46 CA         -0.8720    0.2900   14.9635 C.3       2 GLC5        0.0000 
     47 CA         -1.3180   -1.3320   15.9890 C.3       4 GLP5        0.0000 
     48 N           1.4395    0.6405   14.6105 N.am      1 SEC2        0.0000 
     49 N           0.4640    1.6710   14.6460 N.am      5 SEL2        0.0000 
     50 N           2.4150   -0.3900   14.5750 N.am      3 SEP2        0.0000 
     51 CA         -6.3745   -3.6718    7.7939 C.3       2 GLC5        0.0000 
     52 CA         -7.2990   -1.3520    7.6770 C.3       6 GLL5        0.0000 
     53 CA         -4.9550   -5.1660    7.7150 C.3       4 GLP5        0.0000 
     54 CA         -4.8518    2.5354   12.7621 C.3       2 GLC5        0.0000 
     55 CA         -3.2040    1.3600   11.7770 C.3       6 GLL5        0.0000 
     56 CA         -6.0130    2.9880   14.1250 C.3       4 GLP5        0.0000 
     57 CA         -1.7519    2.1862   15.0224 C.3       2 GLC5        0.0000 
     58 CA         -2.3580    2.4290   16.6690 C.3       4 GLP5        0.0000 
@<TRIPOS>BOND
@<TRIPOS>SUBSTRUCTURE
     1 SEC2        9 GROUP        1 X    SEC  0     ROOT SEC X 2
     2 GLC5        1 GROUP        1 X    GLC  0     **** GLC X 6
     3 SEP2       11 GROUP        1 Y    SEP  0     ROOT SEP Y 9
     4 GLP5        3 GROUP        1 Y    GLP  0     **** GLP Y 13
     5 SEL2       10 GROUP        1 Z    SEL  0     ROOT SEL Z 16
     6 GLL5        2 GROUP        1 Z    GLL  0     **** GLL Z 20
@<TRIPOS>SET

