#    Name: 3t42_3T4_1_ligand
#    Modification time : Mon Mar 24 19:05:06 2014

@<TRIPOS>MOLECULE
3t42_3T4_1_ligand
   38    39     1     0     0
SMALL
NO_CHARGES


@<TRIPOS>ATOM
      1 C1         -1.7990    3.4840   12.8740 C.ar      1 3T4317      0.0000 
      2 CL1        -8.6400   -3.7130    7.6840 Cl        1 3T4317      0.0000 
      3 N2         -1.1090    4.5980   13.3900 N.pl3     1 3T4317      0.0000 
      4 O3         -1.4860    5.7240   13.1020 O.2       1 3T4317      0.0000 
      5 O4         -0.0990    4.4520   14.0690 O.2       1 3T4317      0.0000 
      6 C5         -2.8820    3.7170   12.0280 C.ar      1 3T4317      0.0000 
      7 C6         -3.5890    2.6570   11.4760 C.ar      1 3T4317      0.0000 
      8 C7         -4.7650    2.9540   10.5670 C.3       1 3T4317      0.0000 
      9 N8         -5.3110    1.7760    9.9090 N.am      1 3T4317      0.0000 
     10 C9         -6.3280    1.1030   10.4020 C.2       1 3T4317      0.0000 
     11 C10        -6.8700   -0.0880    9.6830 C.ar      1 3T4317      0.0000 
     12 C11        -7.5300   -1.0370   10.4460 C.ar      1 3T4317      0.0000 
     13 C12        -8.0620   -2.1520    9.8270 C.ar      1 3T4317      0.0000 
     14 C13        -7.9380   -2.2930    8.4530 C.ar      1 3T4317      0.0000 
     15 C15        -7.2990   -1.3520    7.6770 C.ar      1 3T4317      0.0000 
     16 C16        -6.7640   -0.2380    8.2990 C.ar      1 3T4317      0.0000 
     17 O17        -6.1330    0.7240    7.5890 O.3       1 3T4317      0.0000 
     18 C18        -5.7040    0.4190    6.2790 C.3       1 3T4317      0.0000 
     19 C19        -4.3290   -0.1680    6.4990 C.2       1 3T4317      0.0000 
     20 O20        -3.7970   -0.6660    5.5230 O.co2     1 3T4317      0.0000 
     21 O21        -3.7780   -0.1240    7.6300 O.co2     1 3T4317      0.0000 
     22 O22        -6.8300    1.4280   11.4740 O.2       1 3T4317      0.0000 
     23 C23        -3.2040    1.3600   11.7770 C.ar      1 3T4317      0.0000 
     24 C24        -2.1250    1.1170   12.6140 C.ar      1 3T4317      0.0000 
     25 C25        -1.4140    2.1810   13.1530 C.ar      1 3T4317      0.0000 
     26 C26        -0.4260    1.9120   13.9380 C.1       1 3T4317      0.0000 
     27 N27         0.4640    1.6710   14.6460 N.1       1 3T4317      0.0000 
     28 H          -3.1593    4.6875   11.8112 H         1 3T4317      0.0000 
     29 H          -4.4372    3.7020    9.8135 H         1 3T4317      0.0000 
     30 H          -5.5487    3.4584   11.1719 H         1 3T4317      0.0000 
     31 H          -4.8366    1.5025    9.0153 H         1 3T4317      0.0000 
     32 H          -7.6222   -0.9121   11.4601 H         1 3T4317      0.0000 
     33 H          -8.5453   -2.8710   10.3775 H         1 3T4317      0.0000 
     34 H          -7.2202   -1.4708    6.6660 H         1 3T4317      0.0000 
     35 H          -5.6062    1.2930    5.6634 H         1 3T4317      0.0000 
     36 H          -6.3189   -0.3231    5.8062 H         1 3T4317      0.0000 
     37 H          -3.7271    0.5638   11.3730 H         1 3T4317      0.0000 
     38 H          -1.8515    0.1507   12.8355 H         1 3T4317      0.0000 
@<TRIPOS>BOND
     1    3    1 1    
     2    6    1 ar   
     3   25    1 ar   
     4   14    2 1    
     5    4    3 2    
     6    5    3 2    
     7    7    6 ar   
     8   28    6 1    
     9    8    7 1    
    10   23    7 ar   
    11    9    8 1    
    12   29    8 1    
    13   30    8 1    
    14   10    9 am   
    15   31    9 1    
    16   11   10 1    
    17   22   10 2    
    18   12   11 ar   
    19   16   11 ar   
    20   13   12 ar   
    21   32   12 1    
    22   14   13 ar   
    23   33   13 1    
    24   15   14 ar   
    25   16   15 ar   
    26   34   15 1    
    27   17   16 1    
    28   18   17 1    
    29   19   18 1    
    30   35   18 1    
    31   36   18 1    
    32   20   19 ar   
    33   21   19 ar   
    34   24   23 ar   
    35   37   23 1    
    36   25   24 ar   
    37   38   24 1    
    38   26   25 1    
    39   27   26 3    
@<TRIPOS>SUBSTRUCTURE
     1 3T4317      1 GROUP   
@<TRIPOS>SET

