#    Name: 3h59_H59_2_INTS_M
#    Modification time : Tue Mar 25 13:37:14 2014

@<TRIPOS>MOLECULE
3h59_H59_2_INTS_M
   72     0     9     0     0
SMALL
NO_CHARGES


@<TRIPOS>ATOM
      1 CA         34.5845    9.5555   13.8980 C.3       3 GLC5        0.0000 
      2 CA         35.3210   11.0450   12.5270 C.3       9 GLL5        0.0000 
      3 CA         33.8480    8.0660   15.2690 C.3       6 GLP5        0.0000 
      4 CA         34.1670    7.7550   11.5025 C.3       3 GLC5        0.0000 
      5 CA         32.6040    8.8200   10.4810 C.3       9 GLL5        0.0000 
      6 CA         35.7300    6.6900   12.5240 C.3       6 GLP5        0.0000 
      7 CA         35.8835   10.3055    3.4705 C.3       3 GLC5        0.0000 
      8 CA         33.7630   10.5380    3.7480 C.3       9 GLL5        0.0000 
      9 CA         38.0040   10.0730    3.1930 C.3       6 GLP5        0.0000 
     10 CA         35.3635   11.2480    5.0065 C.3       3 GLC5        0.0000 
     11 CA         36.9640   11.9580    6.2650 C.3       6 GLP5        0.0000 
     12 CA         31.2940    6.9825    1.7180 C.3       3 GLC5        0.0000 
     13 CA         32.3680    8.5470    2.3610 C.3       9 GLL5        0.0000 
     14 CA         30.2200    5.4180    1.0750 C.3       6 GLP5        0.0000 
     15 CA         32.7700    5.8240    6.6435 C.3       3 GLC5        0.0000 
     16 CA         32.0270    7.4190    6.2770 C.3       9 GLL5        0.0000 
     17 CA         33.5130    4.2290    7.0100 C.3       6 GLP5        0.0000 
     18 O          32.8775   11.0750   -0.2280 O.2       1 ALC1        0.0000 
     19 O          32.6560    9.8170    0.2770 O.2       7 ALL1        0.0000 
     20 O          33.0990   12.3330   -0.7330 O.2       4 ALP1        0.0000 
     21 CA         30.4350    6.9835    0.1175 C.3       3 GLC5        0.0000 
     22 CA         30.6500    8.5490   -0.8400 C.3       9 GLL5        0.0000 
     23 N          32.6165    9.0155   -3.4350 N.am      2 SEC2        0.0000 
     24 N          32.9190    9.1360   -2.0810 N.am      8 SEL2        0.0000 
     25 N          32.3140    8.8950   -4.7890 N.am      5 SEP2        0.0000 
     26 N          34.1625   10.1465   -2.0300 N.am      2 SEC2        0.0000 
     27 N          35.4060   11.1570   -1.9790 N.am      5 SEP2        0.0000 
     28 N          32.5120    5.4435    8.7870 N.am      2 SEC2        0.0000 
     29 N          32.0870    6.6710    9.2070 N.am      8 SEL2        0.0000 
     30 N          32.9370    4.2160    8.3670 N.am      5 SEP2        0.0000 
     31 CA         33.2930   12.3380   12.5725 C.3       3 GLC5        0.0000 
     32 CA         33.5610   11.2630   10.7720 C.3       9 GLL5        0.0000 
     33 CA         33.0250   13.4130   14.3730 C.3       6 GLP5        0.0000 
     34 CA         38.1660    9.7230   15.1200 C.3       3 GLC5        0.0000 
     35 CA         36.9270   10.9600   14.4370 C.3       9 GLL5        0.0000 
     36 CA         39.4050    8.4860   15.8030 C.3       6 GLP5        0.0000 
     37 CA         37.9445   12.6410   14.8080 C.3       3 GLC5        0.0000 
     38 CA         38.9620   14.3220   15.1790 C.3       6 GLP5        0.0000 
     39 CA         35.3875    9.5130   14.8530 C.3       3 GLC5        0.0000 
     40 CA         35.4805   12.3455   14.8575 C.3       3 GLC5        0.0000 
     41 CA         34.0340   13.7310   15.2780 C.3       6 GLP5        0.0000 
     42 CA         31.3435    5.3220   10.9245 C.3       3 GLC5        0.0000 
     43 CA         30.8630    7.4070   11.5360 C.3       9 GLL5        0.0000 
     44 CA         31.8240    3.2370   10.3130 C.3       6 GLP5        0.0000 
     45 CA         29.5755    6.2975   14.3705 C.3       3 GLC5        0.0000 
     46 CA         30.2510    7.1840   12.9120 C.3       9 GLL5        0.0000 
     47 CA         28.9000    5.4110   15.8290 C.3       6 GLP5        0.0000 
     48 CA         32.5875    8.8880   13.8915 C.3       3 GLC5        0.0000 
     49 CA         31.3270    9.7100   12.5140 C.3       9 GLL5        0.0000 
     50 CA         31.6435   11.1630   13.6435 C.3       3 GLC5        0.0000 
     51 CA         31.9600   12.6160   14.7730 C.3       6 GLP5        0.0000 
     52 CA         39.3468    9.2037   13.5593 C.3       3 GLC5        0.0000 
     53 CA         37.5490   10.2250   12.1150 C.3       9 GLL5        0.0000 
     54 CA         40.5210    8.3370   14.7720 C.3       6 GLP5        0.0000 
     55 CA         36.3990   11.7071    9.1706 C.3       3 GLC5        0.0000 
     56 CA         37.2030   10.0310   10.7680 C.3       9 GLL5        0.0000 
     57 CA         36.4730   13.0870    7.5790 C.3       6 GLP5        0.0000 
     58 CA         36.0275    8.5086   11.6431 C.3       3 GLC5        0.0000 
     59 CA         35.9230   10.3610   10.3150 C.3       9 GLL5        0.0000 
     60 CA         34.1630    7.2335    7.8647 C.3       3 GLC5        0.0000 
     61 CA         32.7330    8.7970    8.1420 C.3       9 GLL5        0.0000 
     62 CA         35.5840    5.8270    8.3140 C.3       6 GLP5        0.0000 
     63 CA         34.9432   12.1028    2.6718 C.3       3 GLC5        0.0000 
     64 CA         36.2370   13.6090    2.2740 C.3       6 GLP5        0.0000 
     65 CA         39.3630   10.7340   11.0404 C.3       3 GLC5        0.0000 
     66 CA         40.6400   11.4460   10.0710 C.3       6 GLP5        0.0000 
     67 CA         39.1051   11.6586   12.9632 C.3       3 GLC5        0.0000 
     68 CA         38.7960    9.9160   12.5780 C.3       9 GLL5        0.0000 
     69 CA         40.2740   13.1190   13.3620 C.3       6 GLP5        0.0000 
     70 CA         36.8331    8.4441   12.5442 C.3       3 GLC5        0.0000 
     71 CA         32.1780    7.0388   13.3570 C.3       3 GLC5        0.0000 
     72 CA         33.7990    6.7820   14.4900 C.3       6 GLP5        0.0000 
@<TRIPOS>BOND
@<TRIPOS>SUBSTRUCTURE
     1 ALC1       18 GROUP        1 X    ALC  0     ROOT ALC X 1
     2 SEC2       23 GROUP        1 X    SEC  0     **** SEC X 2
     3 GLC5        1 GROUP        1 X    GLC  0     **** GLC X 6
     4 ALP1       20 GROUP        1 Y    ALP  0     ROOT ALP Y 8
     5 SEP2       25 GROUP        1 Y    SEP  0     **** SEP Y 9
     6 GLP5        3 GROUP        1 Y    GLP  0     **** GLP Y 13
     7 ALL1       19 GROUP        1 Z    ALL  0     ROOT ALL Z 15
     8 SEL2       24 GROUP        1 Z    SEL  0     **** SEL Z 16
     9 GLL5        2 GROUP        1 Z    GLL  0     **** GLL Z 20
@<TRIPOS>SET

