#    Name: 3h59_H59_2_ligand
#    Modification time : Tue Mar 25 13:37:14 2014

@<TRIPOS>MOLECULE
3h59_H59_2_ligand
   67    70     1     0     0
SMALL
NO_CHARGES


@<TRIPOS>ATOM
      1 C1         34.9710   10.8860   11.1980 C.ar      1 H59571      0.0000 
      2 C2         35.3210   11.0450   12.5270 C.ar      1 H59571      0.0000 
      3 C3         36.6040   10.7360   12.9870 C.ar      1 H59571      0.0000 
      4 C4         37.5490   10.2250   12.1150 C.ar      1 H59571      0.0000 
      5 C5         37.2030   10.0310   10.7680 C.ar      1 H59571      0.0000 
      6 C6         35.9230   10.3610   10.3150 C.ar      1 H59571      0.0000 
      7 C7         32.7330    8.7970    8.1420 C.2       1 H59571      0.0000 
      8 C8         32.4560    7.9680    9.2180 C.2       1 H59571      0.0000 
      9 C9         32.6040    8.8200   10.4810 C.3       1 H59571      0.0000 
     10 N10        33.0990   10.1250    9.9980 N.am      1 H59571      0.0000 
     11 C11        33.1410   10.0950    8.6490 C.2       1 H59571      0.0000 
     12 C12        32.5830    8.4300    3.7230 C.ar      1 H59571      0.0000 
     13 C13        33.2870    9.4200    4.4400 C.ar      1 H59571      0.0000 
     14 C14        33.7630   10.5380    3.7480 C.ar      1 H59571      0.0000 
     15 C15        33.5360   10.6550    2.3910 C.ar      1 H59571      0.0000 
     16 C16        32.8460    9.6580    1.6780 C.ar      1 H59571      0.0000 
     17 C17        32.3680    8.5470    2.3610 C.ar      1 H59571      0.0000 
     18 C18        32.7510    8.4830    6.6890 C.2       1 H59571      0.0000 
     19 N19        33.5010    9.3130    5.8290 N.pl3     1 H59571      0.0000 
     20 S20        31.9870    6.9860    4.5480 S.o2      1 H59571      0.0000 
     21 C21        32.0270    7.4190    6.2770 C.2       1 H59571      0.0000 
     22 O22        30.6250    6.7600    4.2500 O.2       1 H59571      0.0000 
     23 O23        32.9350    5.9310    4.3010 O.2       1 H59571      0.0000 
     24 N24        32.6560    9.8170    0.2770 N.pl3     1 H59571      0.0000 
     25 S25        32.4630    8.6190   -0.8380 S.o2      1 H59571      0.0000 
     26 C26        30.6500    8.5490   -0.8400 C.3       1 H59571      0.0000 
     27 O27        32.9190    9.1360   -2.0810 O.2       1 H59571      0.0000 
     28 O28        32.9830    7.3600   -0.4030 O.2       1 H59571      0.0000 
     29 O29        32.0870    6.6710    9.2070 O.co2     1 H59571      0.0000 
     30 O30        33.5470   10.9960    7.9530 O.2       1 H59571      0.0000 
     31 C31        33.5610   11.2630   10.7720 C.3       1 H59571      0.0000 
     32 F32        38.7960    9.9160   12.5780 F         1 H59571      0.0000 
     33 C33        36.9270   10.9600   14.4370 C.3       1 H59571      0.0000 
     34 C34        31.2260    8.8700   11.2280 C.3       1 H59571      0.0000 
     35 C35        30.8630    7.4070   11.5360 C.3       1 H59571      0.0000 
     36 C36        30.2510    7.1840   12.9120 C.3       1 H59571      0.0000 
     37 C37        31.3270    9.7100   12.5140 C.3       1 H59571      0.0000 
     38 C38        30.0740    9.4210   10.3700 C.3       1 H59571      0.0000 
     39 H          34.6179   11.4021   13.2037 H         1 H59571      0.0000 
     40 H          37.8955    9.6449   10.1156 H         1 H59571      0.0000 
     41 H          35.6769   10.2179    9.3265 H         1 H59571      0.0000 
     42 H          33.3270    8.3449   11.1083 H         1 H59571      0.0000 
     43 H          34.2800   11.2670    4.2556 H         1 H59571      0.0000 
     44 H          33.8759   11.4886    1.8782 H         1 H59571      0.0000 
     45 H          31.8553    7.8137    1.8531 H         1 H59571      0.0000 
     46 H          34.2720    9.8909    6.2540 H         1 H59571      0.0000 
     47 H          31.4679    6.7764    6.7753 H         1 H59571      0.0000 
     48 H          32.6233   10.7539   -0.1704 H         1 H59571      0.0000 
     49 H          33.6071   12.1535   10.1755 H         1 H59571      0.0000 
     50 H          32.9632   11.4118   11.6503 H         1 H59571      0.0000 
     51 H          31.7753    6.7919   11.4413 H         1 H59571      0.0000 
     52 H          30.1583    7.0505   10.7641 H         1 H59571      0.0000 
     53 H          30.3058    7.8554   -1.4728 H         1 H59571      0.0000 
     54 H          30.2859    8.3270    0.0645 H         1 H59571      0.0000 
     55 H          30.2449    9.4216   -1.1129 H         1 H59571      0.0000 
     56 H          37.8702   10.7057   14.6510 H         1 H59571      0.0000 
     57 H          36.8153   11.9187   14.6986 H         1 H59571      0.0000 
     58 H          36.3350   10.4217   15.0368 H         1 H59571      0.0000 
     59 H          30.8712    7.4653   13.6443 H         1 H59571      0.0000 
     60 H          29.4039    7.7021   13.0301 H         1 H59571      0.0000 
     61 H          30.0300    6.2214   13.0686 H         1 H59571      0.0000 
     62 H          32.0029    9.3366   13.1494 H         1 H59571      0.0000 
     63 H          31.5960   10.6536   12.3211 H         1 H59571      0.0000 
     64 H          30.4552    9.7478   13.0024 H         1 H59571      0.0000 
     65 H          30.2542   10.3552   10.0621 H         1 H59571      0.0000 
     66 H          29.9225    8.8668    9.5515 H         1 H59571      0.0000 
     67 H          29.2111    9.4401   10.8749 H         1 H59571      0.0000 
@<TRIPOS>BOND
     1    2    1 ar   
     2    6    1 ar   
     3   31    1 1    
     4    3    2 ar   
     5   39    2 1    
     6    4    3 ar   
     7   33    3 1    
     8    5    4 ar   
     9   32    4 1    
    10    6    5 ar   
    11   40    5 1    
    12   41    6 1    
    13    8    7 2    
    14   11    7 1    
    15   18    7 1    
    16    9    8 1    
    17   29    8 ar   
    18   10    9 1    
    19   34    9 1    
    20   42    9 1    
    21   11   10 am   
    22   31   10 1    
    23   30   11 2    
    24   13   12 ar   
    25   17   12 ar   
    26   20   12 1    
    27   14   13 ar   
    28   19   13 1    
    29   15   14 ar   
    30   43   14 1    
    31   16   15 ar   
    32   44   15 1    
    33   17   16 ar   
    34   24   16 1    
    35   45   17 1    
    36   19   18 1    
    37   21   18 2    
    38   46   19 1    
    39   21   20 1    
    40   22   20 2    
    41   23   20 2    
    42   47   21 1    
    43   25   24 1    
    44   48   24 1    
    45   26   25 1    
    46   27   25 2    
    47   28   25 2    
    48   53   26 1    
    49   54   26 1    
    50   55   26 1    
    51   49   31 1    
    52   50   31 1    
    53   56   33 1    
    54   57   33 1    
    55   58   33 1    
    56   35   34 1    
    57   37   34 1    
    58   38   34 1    
    59   36   35 1    
    60   51   35 1    
    61   52   35 1    
    62   59   36 1    
    63   60   36 1    
    64   61   36 1    
    65   62   37 1    
    66   63   37 1    
    67   64   37 1    
    68   65   38 1    
    69   66   38 1    
    70   67   38 1    
@<TRIPOS>SUBSTRUCTURE
     1 H59571      1 GROUP   
@<TRIPOS>SET

