#    Name: 1j39_UPG_1_INTS_M
#    Modification time : Tue Mar 25 08:34:41 2014

@<TRIPOS>MOLECULE
1j39_UPG_1_INTS_M
   84     0    12     0     0
SMALL
NO_CHARGES


@<TRIPOS>ATOM
      1 O          63.0825   17.0920    7.7325 O.2       1 ALC1        0.0000 
      2 O          61.7450   16.6650    8.0160 O.2       9 ALL1        0.0000 
      3 O          64.4200   17.5190    7.4490 O.2       5 ALP1        0.0000 
      4 CA         57.8120   16.0135    6.2850 C.3       4 GLC5        0.0000 
      5 CA         59.6260   15.8280    7.3620 C.3      12 GLL5        0.0000 
      6 CA         55.9980   16.1990    5.2080 C.3       8 GLP5        0.0000 
      7 CA         59.3045   16.9895    5.9285 C.3       4 GLC5        0.0000 
      8 CA         58.9830   18.1510    4.4950 C.3       8 GLP5        0.0000 
      9 CA         59.8660   14.2585    6.2525 C.3       4 GLC5        0.0000 
     10 CA         60.1060   12.6890    5.1430 C.3       8 GLP5        0.0000 
     11 CA         59.7350   18.3700    8.3205 C.3       4 GLC5        0.0000 
     12 CA         59.1630   16.2170    8.5580 C.3      12 GLL5        0.0000 
     13 CA         60.3070   20.5230    8.0830 C.3       8 GLP5        0.0000 
     14 N          62.9410   15.9255    5.5890 N.am      2 SEC2        0.0000 
     15 N          61.5540   15.7320    5.9720 N.am     10 SEL2        0.0000 
     16 N          64.3280   16.1190    5.2060 N.am      6 SEP2        0.0000 
     17 CA         60.5620   16.0630   11.9675 C.3       4 GLC5        0.0000 
     18 CA         59.4470   17.2640   10.8030 C.3      12 GLL5        0.0000 
     19 CA         61.6770   14.8620   13.1320 C.3       8 GLP5        0.0000 
     20 CA         61.1640   18.3600   11.6535 C.3       4 GLC5        0.0000 
     21 CA         62.8810   19.4560   12.5040 C.3       8 GLP5        0.0000 
     22 O          57.5535   20.2025   11.0670 O.2       1 ALC1        0.0000 
     23 O          58.9300   19.4250   11.6590 O.2       9 ALL1        0.0000 
     24 O          56.1770   20.9800   10.4750 O.2       5 ALP1        0.0000 
     25 O          58.5165   20.5655   11.4495 O.2       1 ALC1        0.0000 
     26 O          58.1030   21.7060   11.2400 O.2       5 ALP1        0.0000 
     27 CA         59.2335   16.1995   13.7695 C.3       4 GLC5        0.0000 
     28 CA         57.7000   16.7400   12.2240 C.3      12 GLL5        0.0000 
     29 CA         60.7670   15.6590   15.3150 C.3       8 GLP5        0.0000 
     30 O          56.2720   19.8625   11.2140 O.2       1 ALC1        0.0000 
     31 O          56.3670   18.7450   11.9530 O.2       9 ALL1        0.0000 
     32 N          55.4975   12.3230    9.7400 N.am      2 SEC2        0.0000 
     33 N          54.6420   13.2650   10.6400 N.am     10 SEL2        0.0000 
     34 N          56.3530   11.3810    8.8400 N.am      6 SEP2        0.0000 
     35 N          56.5210   12.0140   10.4475 N.am      2 SEC2        0.0000 
     36 N          56.6890   12.6470   12.0550 N.am     10 SEL2        0.0000 
     37 N          56.6995   11.3130   11.6670 N.am      2 SEC2        0.0000 
     38 N          56.7100    9.9790   11.2790 N.am      6 SEP2        0.0000 
     39 NZ         52.6905   12.0295   14.9855 N.4       3 LYC4        0.0000 
     40 NZ         52.4370   13.7380   14.3350 N.4      11 LYL4        0.0000 
     41 NZ         52.9440   10.3210   15.6360 N.4       7 LYP4        0.0000 
     42 NZ         51.1560   13.1500   14.3380 N.4       3 LYC4        0.0000 
     43 NZ         49.9270   12.0680   13.1120 N.4       7 LYP4        0.0000 
     44 N          51.6315   13.1305   13.2920 N.am      2 SEC2        0.0000 
     45 N          52.4370   13.7380   14.3350 N.am     10 SEL2        0.0000 
     46 N          50.8260   12.5230   12.2490 N.am      6 SEP2        0.0000 
     47 N          51.1560   13.1500   14.3380 N.am      2 SEC2        0.0000 
     48 N          49.8750   12.5620   14.3410 N.am      6 SEP2        0.0000 
     49 NZ         52.3200   16.2815   11.1865 N.4       3 LYC4        0.0000 
     50 NZ         53.0240   15.4190   12.4910 N.4      11 LYL4        0.0000 
     51 NZ         52.6880   16.8040    9.1760 N.4       7 LYP4        0.0000 
     52 N          52.3200   16.2815   11.1865 N.am      2 SEC2        0.0000 
     53 N          53.0240   15.4190   12.4910 N.am     10 SEL2        0.0000 
     54 N          51.6160   17.1440    9.8820 N.am      6 SEP2        0.0000 
     55 N          53.2380   15.6040   11.0310 N.am      2 SEC2        0.0000 
     56 N          53.4520   15.7890    9.5710 N.am      6 SEP2        0.0000 
     57 CA         54.3090   13.7515   18.8235 C.3       4 GLC5        0.0000 
     58 CA         53.7960   15.0730   17.1140 C.3      12 GLL5        0.0000 
     59 CA         54.8220   12.4300   20.5330 C.3       8 GLP5        0.0000 
     60 CA         51.7030   17.0875   16.5680 C.3       4 GLC5        0.0000 
     61 CA         53.3750   16.5340   17.2880 C.3      12 GLL5        0.0000 
     62 CA         50.0310   17.6410   15.8480 C.3       8 GLP5        0.0000 
     63 N          51.9645   13.3550   17.6345 N.am      2 SEC2        0.0000 
     64 N          52.6640   14.2620   16.8560 N.am     10 SEL2        0.0000 
     65 N          51.2650   12.4480   18.4130 N.am      6 SEP2        0.0000 
     66 O          53.0060   16.2335   19.4605 O.2       1 ALC1        0.0000 
     67 O          52.4830   16.6740   18.3850 O.2       9 ALL1        0.0000 
     68 O          53.5290   15.7930   20.5360 O.2       5 ALP1        0.0000 
     69 N          53.1515   19.1525   18.6245 N.am      2 SEC2        0.0000 
     70 N          54.2120   18.7830   17.5170 N.am     10 SEL2        0.0000 
     71 N          52.0910   19.5220   19.7320 N.am      6 SEP2        0.0000 
     72 N          53.6485   19.7740   16.4915 N.am      2 SEC2        0.0000 
     73 N          53.0850   20.7650   15.4660 N.am      6 SEP2        0.0000 
     74 O          58.1985   18.1735   18.4670 O.2       1 ALC1        0.0000 
     75 O          57.6610   17.2290   17.6280 O.2       9 ALL1        0.0000 
     76 O          58.7360   19.1180   19.3060 O.2       5 ALP1        0.0000 
     77 CA         57.8427   14.8163    7.9470 C.3       4 GLC5        0.0000 
     78 CA         56.2910   13.6100    7.9340 C.3       8 GLP5        0.0000 
     79 CA         59.6305   19.1867    9.4343 C.3       4 GLC5        0.0000 
     80 CA         51.6552   14.9937   17.5235 C.3       4 GLC5        0.0000 
     81 CA         49.7250   14.1840   17.8460 C.3       8 GLP5        0.0000 
     82 CA         55.8760   19.3107   15.7358 C.3       4 GLC5        0.0000 
     83 CA         55.6150   17.2060   16.3440 C.3      12 GLL5        0.0000 
     84 CA         55.4780   21.0670   14.9930 C.3       8 GLP5        0.0000 
@<TRIPOS>BOND
@<TRIPOS>SUBSTRUCTURE
     1 ALC1        1 GROUP        1 X    ALC  0     ROOT ALC X 1
     2 SEC2       14 GROUP        1 X    SEC  0     **** SEC X 2
     3 LYC4       39 GROUP        1 X    LYC  0     **** LYC X 4
     4 GLC5        4 GROUP        1 X    GLC  0     **** GLC X 6
     5 ALP1        3 GROUP        1 Y    ALP  0     ROOT ALP Y 8
     6 SEP2       16 GROUP        1 Y    SEP  0     **** SEP Y 9
     7 LYP4       41 GROUP        1 Y    LYP  0     **** LYP Y 11
     8 GLP5        6 GROUP        1 Y    GLP  0     **** GLP Y 13
     9 ALL1        2 GROUP        1 Z    ALL  0     ROOT ALL Z 15
    10 SEL2       15 GROUP        1 Z    SEL  0     **** SEL Z 16
    11 LYL4       40 GROUP        1 Z    LYL  0     **** LYL Z 18
    12 GLL5        5 GROUP        1 Z    GLL  0     **** GLL Z 20
@<TRIPOS>SET

