#    Name: 1j39_UPG_1_ligand
#    Modification time : Tue Mar 25 08:34:42 2014

@<TRIPOS>MOLECULE
1j39_UPG_1_ligand
   58    60     1     0     0
SMALL
NO_CHARGES


@<TRIPOS>ATOM
      1 N1         59.9600   16.8310    9.4960 N.am      1 UPG400      0.0000 
      2 C2         61.2980   17.0800    9.2420 C.2       1 UPG400      0.0000 
      3 N3         61.7450   16.6650    8.0160 N.am      1 UPG400      0.0000 
      4 C4         61.0050   16.0450    7.0300 C.2       1 UPG400      0.0000 
      5 C5         59.6260   15.8280    7.3620 C.2       1 UPG400      0.0000 
      6 C6         59.1630   16.2170    8.5580 C.2       1 UPG400      0.0000 
      7 O2         62.0330   17.6320   10.0510 O.2       1 UPG400      0.0000 
      8 O4         61.5540   15.7320    5.9720 O.2       1 UPG400      0.0000 
      9 C1C        59.4470   17.2640   10.8030 C.3       1 UPG400      0.0000 
     10 C2C        58.4610   18.4370   10.7680 C.3       1 UPG400      0.0000 
     11 O2C        58.9300   19.4250   11.6590 O.3       1 UPG400      0.0000 
     12 C3C        57.1660   17.7880   11.2670 C.3       1 UPG400      0.0000 
     13 C4C        57.7000   16.7400   12.2240 C.3       1 UPG400      0.0000 
     14 O4C        58.7970   16.1900   11.4560 O.3       1 UPG400      0.0000 
     15 O3C        56.3670   18.7450   11.9530 O.3       1 UPG400      0.0000 
     16 C5C        56.7660   15.6560   12.7200 C.3       1 UPG400      0.0000 
     17 O5C        56.0960   15.0280   11.6400 O.3       1 UPG400      0.0000 
     18 PA         55.5360   13.5420   11.7900 P.3       1 UPG400      0.0000 
     19 O1A        54.6420   13.2650   10.6400 O.co2     1 UPG400      0.0000 
     20 O2A        56.6890   12.6470   12.0550 O.co2     1 UPG400      0.0000 
     21 O3A        54.6590   13.5780   13.1640 O.3       1 UPG400      0.0000 
     22 PB         53.4470   14.5640   13.6280 P.3       1 UPG400      0.0000 
     23 O1B        52.4370   13.7380   14.3350 O.co2     1 UPG400      0.0000 
     24 O2B        53.0240   15.4190   12.4910 O.co2     1 UPG400      0.0000 
     25 O3B        54.1730   15.4850   14.7060 O.3       1 UPG400      0.0000 
     26 C1'        54.7530   15.0090   15.9280 C.3       1 UPG400      0.0000 
     27 C2'        53.7960   15.0730   17.1140 C.3       1 UPG400      0.0000 
     28 C3'        53.3750   16.5340   17.2880 C.3       1 UPG400      0.0000 
     29 C4'        54.6090   17.4220   17.4880 C.3       1 UPG400      0.0000 
     30 C5'        55.6150   17.2060   16.3440 C.3       1 UPG400      0.0000 
     31 C6'        56.9330   17.9030   16.6130 C.3       1 UPG400      0.0000 
     32 O2'        52.6640   14.2620   16.8560 O.3       1 UPG400      0.0000 
     33 O3'        52.4830   16.6740   18.3850 O.3       1 UPG400      0.0000 
     34 O4'        54.2120   18.7830   17.5170 O.3       1 UPG400      0.0000 
     35 O5'        55.9170   15.8010   16.1940 O.3       1 UPG400      0.0000 
     36 O6'        57.6610   17.2290   17.6280 O.3       1 UPG400      0.0000 
     37 H          62.7895   16.8401    7.7927 H         1 UPG400      0.0000 
     38 H          59.0315   15.3735    6.6577 H         1 UPG400      0.0000 
     39 H          58.1485   16.0523    8.8042 H         1 UPG400      0.0000 
     40 H          60.2973   17.5929   11.4324 H         1 UPG400      0.0000 
     41 H          58.3414   18.7387    9.7803 H         1 UPG400      0.0000 
     42 H          56.7001   17.3133   10.4614 H         1 UPG400      0.0000 
     43 H          58.1375   17.2759   13.0765 H         1 UPG400      0.0000 
     44 H          56.0551   16.1206   13.4257 H         1 UPG400      0.0000 
     45 H          57.3659   14.9346   13.3021 H         1 UPG400      0.0000 
     46 H          55.0572   13.9626   15.8086 H         1 UPG400      0.0000 
     47 H          54.3287   14.7709   17.9907 H         1 UPG400      0.0000 
     48 H          52.8985   16.8491   16.3573 H         1 UPG400      0.0000 
     49 H          55.0865   17.1289   18.4093 H         1 UPG400      0.0000 
     50 H          55.1985   17.5997   15.4349 H         1 UPG400      0.0000 
     51 H          56.7117   18.9459   16.8951 H         1 UPG400      0.0000 
     52 H          57.4951   17.9394   15.6649 H         1 UPG400      0.0000 
     53 H          58.2117   20.1205   11.6755 H         1 UPG400      0.0000 
     54 H          56.3345   19.5383   11.3451 H         1 UPG400      0.0000 
     55 H          52.6833   14.0971   15.8699 H         1 UPG400      0.0000 
     56 H          52.7304   15.9380   19.0151 H         1 UPG400      0.0000 
     57 H          54.7370   19.1897   18.2646 H         1 UPG400      0.0000 
     58 H          57.9921   17.9531   18.2331 H         1 UPG400      0.0000 
@<TRIPOS>BOND
     1    2    1 1    
     2    6    1 1    
     3    9    1 1    
     4    3    2 1    
     5    7    2 2    
     6    4    3 1    
     7   37    3 1    
     8    5    4 1    
     9    8    4 2    
    10    6    5 2    
    11   38    5 1    
    12   39    6 1    
    13   10    9 1    
    14   14    9 1    
    15   40    9 1    
    16   11   10 1    
    17   12   10 1    
    18   41   10 1    
    19   53   11 1    
    20   13   12 1    
    21   15   12 1    
    22   42   12 1    
    23   14   13 1    
    24   16   13 1    
    25   43   13 1    
    26   54   15 1    
    27   17   16 1    
    28   44   16 1    
    29   45   16 1    
    30   18   17 1    
    31   19   18 ar   
    32   20   18 ar   
    33   21   18 1    
    34   22   21 1    
    35   23   22 ar   
    36   24   22 ar   
    37   25   22 1    
    38   26   25 1    
    39   27   26 1    
    40   35   26 1    
    41   46   26 1    
    42   28   27 1    
    43   32   27 1    
    44   47   27 1    
    45   29   28 1    
    46   33   28 1    
    47   48   28 1    
    48   30   29 1    
    49   34   29 1    
    50   49   29 1    
    51   31   30 1    
    52   35   30 1    
    53   50   30 1    
    54   36   31 1    
    55   51   31 1    
    56   52   31 1    
    57   55   32 1    
    58   56   33 1    
    59   57   34 1    
    60   58   36 1    
@<TRIPOS>SUBSTRUCTURE
     1 UPG400      1 GROUP   
@<TRIPOS>SET

