#    Name: 3anx_MTA_1_INTS_M
#    Modification time : Mon Mar 24 17:56:58 2014

@<TRIPOS>MOLECULE
3anx_MTA_1_INTS_M
   67     0     9     0     0
SMALL
NO_CHARGES


@<TRIPOS>ATOM
      1 CA         39.2120   66.7985  126.5300 C.3       3 GLC5        0.0000 
      2 CA         38.4280   66.5230  125.1880 C.3       9 GLL5        0.0000 
      3 CA         39.9960   67.0740  127.8720 C.3       6 GLP5        0.0000 
      4 CA         40.0035   65.2475  125.6070 C.3       3 GLC5        0.0000 
      5 CA         41.5790   63.9720  126.0260 C.3       6 GLP5        0.0000 
      6 CA         38.7450   70.0805  121.3230 C.3       3 GLC5        0.0000 
      7 CA         38.9900   68.9890  123.0820 C.3       9 GLL5        0.0000 
      8 CA         38.5000   71.1720  119.5640 C.3       6 GLP5        0.0000 
      9 CA         40.1730   68.8600  121.3250 C.3       3 GLC5        0.0000 
     10 CA         41.3560   68.7310  119.5680 C.3       6 GLP5        0.0000 
     11 N          39.1330   69.7530  121.2635 N.am      2 SEC2        0.0000 
     12 N          38.1670   70.0990  122.6350 N.am      8 SEL2        0.0000 
     13 N          40.0990   69.4070  119.8920 N.am      5 SEP2        0.0000 
     14 N          39.2660   71.3140  127.2900 N.am      2 SEC2        0.0000 
     15 N          39.2980   71.4470  125.6150 N.am      8 SEL2        0.0000 
     16 N          39.2340   71.1810  128.9650 N.am      5 SEP2        0.0000 
     17 CA         39.6955   68.2240  126.1815 C.3       3 GLC5        0.0000 
     18 CA         39.3950   69.3740  124.4910 C.3       9 GLL5        0.0000 
     19 CA         41.0275   69.9010  125.7530 C.3       3 GLC5        0.0000 
     20 CA         42.6600   70.4280  127.0150 C.3       6 GLP5        0.0000 
     21 O          40.7950   71.0485  123.3730 O.2       1 ALC1        0.0000 
     22 O          40.6860   69.9370  124.3440 O.2       7 ALL1        0.0000 
     23 O          40.9040   72.1600  122.4020 O.2       4 ALP1        0.0000 
     24 CA         38.2645   71.1645  121.5875 C.3       3 GLC5        0.0000 
     25 CA         38.0290   71.1570  123.6110 C.3       9 GLL5        0.0000 
     26 CA         37.6600   73.0465  124.5540 C.3       3 GLC5        0.0000 
     27 CA         37.2910   74.9360  125.4970 C.3       6 GLP5        0.0000 
     28 CA         35.7455   75.5535  123.7415 C.3       3 GLC5        0.0000 
     29 CA         34.4450   74.6700  122.5210 C.3       9 GLL5        0.0000 
     30 CA         37.0460   76.4370  124.9620 C.3       6 GLP5        0.0000 
     31 CA         34.5975   76.7070  122.2265 C.3       3 GLC5        0.0000 
     32 CA         34.7500   78.7440  121.9320 C.3       6 GLP5        0.0000 
     33 CA         34.1950   75.2560  120.3655 C.3       3 GLC5        0.0000 
     34 CA         33.9450   75.8420  118.2100 C.3       6 GLP5        0.0000 
     35 O          32.5040   76.4045  122.4220 O.2       1 ALC1        0.0000 
     36 O          33.2290   75.2100  122.8310 O.2       7 ALL1        0.0000 
     37 O          31.7790   77.5990  122.0130 O.2       4 ALP1        0.0000 
     38 N          34.7160   76.3620  120.7065 N.am      2 SEC2        0.0000 
     39 N          35.1500   75.2160  121.4890 N.am      8 SEL2        0.0000 
     40 N          34.2820   77.5080  119.9240 N.am      5 SEP2        0.0000 
     41 CA         37.4245   72.9490  120.3815 C.3       3 GLC5        0.0000 
     42 CA         36.3490   74.7260  121.1990 C.3       9 GLL5        0.0000 
     43 CA         38.1780   75.0710  121.2955 C.3       3 GLC5        0.0000 
     44 CA         40.0070   75.4160  121.3920 C.3       6 GLP5        0.0000 
     45 CA         36.6975   75.5815  123.0805 C.3       3 GLC5        0.0000 
     46 CA         35.5495   76.7350  121.5655 C.3       3 GLC5        0.0000 
     47 CA         35.1470   75.2840  119.7045 C.3       3 GLC5        0.0000 
     48 CA         35.5360   72.6725  120.8415 C.3       3 GLC5        0.0000 
     49 CA         34.7230   70.6190  120.4840 C.3       6 GLP5        0.0000 
     50 N          37.8260   75.0230  122.5125 N.am      2 SEC2        0.0000 
     51 N          36.9150   73.6940  121.8460 N.am      8 SEL2        0.0000 
     52 N          38.7370   76.3520  123.1790 N.am      5 SEP2        0.0000 
     53 CA         37.4195   72.0985  121.2195 C.3       3 GLC5        0.0000 
     54 CA         36.3390   73.0250  122.8750 C.3       9 GLL5        0.0000 
     55 CA         37.0877   66.7357  124.6115 C.3       3 GLC5        0.0000 
     56 CA         37.9990   66.3180  123.4280 C.3       9 GLL5        0.0000 
     57 CA         35.9620   67.0510  124.9150 C.3       6 GLP5        0.0000 
     58 CA         36.5385   67.2380  122.0285 C.3       3 GLC5        0.0000 
     59 CA         34.8950   67.5370  120.8380 C.3       6 GLP5        0.0000 
     60 CA         37.3197   67.6628  123.9805 C.3       3 GLC5        0.0000 
     61 CA         38.3650   67.5600  123.0100 C.3       9 GLL5        0.0000 
     62 CA         37.4525   68.4955  124.8080 C.3       3 GLC5        0.0000 
     63 CA         36.4865   74.1035  124.2862 C.3       3 GLC5        0.0000 
     64 CA         35.2025   71.9450  121.7797 C.3       3 GLC5        0.0000 
     65 CA         32.8025   73.7597  122.5617 C.3       3 GLC5        0.0000 
     66 CA         35.0250   73.5170  123.2760 C.3       9 GLL5        0.0000 
     67 CA         30.8700   73.4260  122.2250 C.3       6 GLP5        0.0000 
@<TRIPOS>BOND
@<TRIPOS>SUBSTRUCTURE
     1 ALC1       21 GROUP        1 X    ALC  0     ROOT ALC X 1
     2 SEC2       11 GROUP        1 X    SEC  0     **** SEC X 2
     3 GLC5        1 GROUP        1 X    GLC  0     **** GLC X 6
     4 ALP1       23 GROUP        1 Y    ALP  0     ROOT ALP Y 8
     5 SEP2       13 GROUP        1 Y    SEP  0     **** SEP Y 9
     6 GLP5        3 GROUP        1 Y    GLP  0     **** GLP Y 13
     7 ALL1       22 GROUP        1 Z    ALL  0     ROOT ALL Z 15
     8 SEL2       12 GROUP        1 Z    SEL  0     **** SEL Z 16
     9 GLL5        2 GROUP        1 Z    GLL  0     **** GLL Z 20
@<TRIPOS>SET

