#    Name: 3anx_MTA_1_ligand
#    Modification time : Mon Mar 24 17:56:58 2014

@<TRIPOS>MOLECULE
3anx_MTA_1_ligand
   35    37     1     0     0
SMALL
NO_CHARGES


@<TRIPOS>ATOM
      1 CS         38.4280   66.5230  125.1880 C.3       1 MTA315      0.0000 
      2 S5'        37.9990   66.3180  123.4280 S.3       1 MTA315      0.0000 
      3 C5'        38.3650   67.5600  123.0100 C.3       1 MTA315      0.0000 
      4 C4'        38.9900   68.9890  123.0820 C.3       1 MTA315      0.0000 
      5 O4'        38.1670   70.0990  122.6350 O.3       1 MTA315      0.0000 
      6 C2'        38.4910   70.5060  124.9110 C.3       1 MTA315      0.0000 
      7 O2'        39.2980   71.4470  125.6150 O.3       1 MTA315      0.0000 
      8 C3'        39.3950   69.3740  124.4910 C.3       1 MTA315      0.0000 
      9 O3'        40.6860   69.9370  124.3440 O.3       1 MTA315      0.0000 
     10 C1'        38.0290   71.1570  123.6110 C.3       1 MTA315      0.0000 
     11 N9         36.7070   71.9680  123.6810 N.pl3     1 MTA315      0.0000 
     12 C8         35.6710   71.8200  124.5490 C.2       1 MTA315      0.0000 
     13 N7         34.6780   72.7380  124.2980 N.2       1 MTA315      0.0000 
     14 C5         35.0250   73.5170  123.2760 C.ar      1 MTA315      0.0000 
     15 C6         34.4450   74.6700  122.5210 C.ar      1 MTA315      0.0000 
     16 N6         33.2290   75.2100  122.8310 N.pl3     1 MTA315      0.0000 
     17 N1         35.1500   75.2160  121.4890 N.ar      1 MTA315      0.0000 
     18 C2         36.3490   74.7260  121.1990 C.ar      1 MTA315      0.0000 
     19 N3         36.9150   73.6940  121.8460 N.ar      1 MTA315      0.0000 
     20 C4         36.3390   73.0250  122.8750 C.ar      1 MTA315      0.0000 
     21 H          37.2551   67.9365  122.3239 H         1 MTA315      0.0000 
     22 H          38.8025   67.2885  121.7533 H         1 MTA315      0.0000 
     23 H          39.9261   68.9785  122.4927 H         1 MTA315      0.0000 
     24 H          37.6835   70.1506  125.4425 H         1 MTA315      0.0000 
     25 H          39.3408   68.5833  125.1231 H         1 MTA315      0.0000 
     26 H          38.8619   71.9116  123.3831 H         1 MTA315      0.0000 
     27 H          35.6292   71.1523  125.2603 H         1 MTA315      0.0000 
     28 H          32.7230   74.7610  123.5674 H         1 MTA315      0.0000 
     29 H          32.9517   76.0069  122.2943 H         1 MTA315      0.0000 
     30 H          36.9056   75.1777  120.3994 H         1 MTA315      0.0000 
     31 H          39.3981   66.7316  125.3119 H         1 MTA315      0.0000 
     32 H          37.9117   67.2672  125.6119 H         1 MTA315      0.0000 
     33 H          38.2363   65.6955  125.7158 H         1 MTA315      0.0000 
     34 H          40.2175   71.0542  125.6097 H         1 MTA315      0.0000 
     35 H          40.5759   70.6629  123.6650 H         1 MTA315      0.0000 
@<TRIPOS>BOND
     1    2    1 1    
     2   31    1 1    
     3   32    1 1    
     4   33    1 1    
     5    3    2 1    
     6    4    3 1    
     7   21    3 1    
     8   22    3 1    
     9    5    4 1    
    10    8    4 1    
    11   23    4 1    
    12   10    5 1    
    13    7    6 1    
    14    8    6 1    
    15   10    6 1    
    16   24    6 1    
    17   34    7 1    
    18    9    8 1    
    19   25    8 1    
    20   35    9 1    
    21   11   10 1    
    22   26   10 1    
    23   12   11 1    
    24   20   11 1    
    25   13   12 2    
    26   27   12 1    
    27   14   13 1    
    28   15   14 ar   
    29   20   14 ar   
    30   16   15 1    
    31   17   15 ar   
    32   28   16 1    
    33   29   16 1    
    34   18   17 ar   
    35   19   18 ar   
    36   30   18 1    
    37   20   19 ar   
@<TRIPOS>SUBSTRUCTURE
     1 MTA315      1 GROUP   
@<TRIPOS>SET

