#    Name: 2hu2_NAD_1_INTS_M
#    Modification time : Tue Mar 25 17:02:10 2014

@<TRIPOS>MOLECULE
2hu2_NAD_1_INTS_M
   78     0     9     0     0
SMALL
NO_CHARGES


@<TRIPOS>ATOM
      1 N           6.3305   26.5210   26.0925 N.am      2 SEC2        0.0000 
      2 N           5.3550   25.5260   25.9890 N.am      8 SEL2        0.0000 
      3 N           7.3060   27.5160   26.1960 N.am      5 SEP2        0.0000 
      4 CA          4.5260   26.4235   31.9590 C.3       3 GLC5        0.0000 
      5 CA          4.1070   25.0670   30.3030 C.3       9 GLL5        0.0000 
      6 CA          4.9450   27.7800   33.6150 C.3       6 GLP5        0.0000 
      7 O           5.4870   22.6080   33.2655 O.2       1 ALC1        0.0000 
      8 O           4.8210   22.1450   32.1550 O.2       7 ALL1        0.0000 
      9 O           6.1530   23.0710   34.3760 O.2       4 ALP1        0.0000 
     10 O           5.8530   23.4295   32.6360 O.2       1 ALC1        0.0000 
     11 O           6.8850   24.7140   33.1170 O.2       4 ALP1        0.0000 
     12 CA          4.2725   25.9930   33.0085 C.3       3 GLC5        0.0000 
     13 CA          3.6000   24.2060   32.4020 C.3       9 GLL5        0.0000 
     14 CA          2.1795   25.7335   32.7350 C.3       3 GLC5        0.0000 
     15 CA          0.7590   27.2610   33.0680 C.3       6 GLP5        0.0000 
     16 N          -1.0615   22.9680   33.7135 N.am      2 SEC2        0.0000 
     17 N           0.4140   23.4500   34.0330 N.am      8 SEL2        0.0000 
     18 N          -2.5370   22.4860   33.3940 N.am      5 SEP2        0.0000 
     19 CA         -1.5655   24.7625   36.4630 C.3       3 GLC5        0.0000 
     20 CA          0.5990   24.5790   36.2640 C.3       9 GLL5        0.0000 
     21 CA         -3.7300   24.9460   36.6620 C.3       6 GLP5        0.0000 
     22 CA          2.4520   27.4450   36.9360 C.3       3 GLC5        0.0000 
     23 CA          2.6830   25.7140   36.5660 C.3       9 GLL5        0.0000 
     24 CA          2.2210   29.1760   37.3060 C.3       6 GLP5        0.0000 
     25 CA          3.8140   26.7470   35.0905 C.3       3 GLC5        0.0000 
     26 CA          4.7810   25.0905   36.6500 C.3       3 GLC5        0.0000 
     27 CA          6.8790   24.4670   36.7340 C.3       6 GLP5        0.0000 
     28 CA          3.6415   24.3710   37.1860 C.3       3 GLC5        0.0000 
     29 CA          4.6000   23.0280   37.8060 C.3       6 GLP5        0.0000 
     30 CA          1.7210   26.4875   34.8170 C.3       3 GLC5        0.0000 
     31 CA          3.6055   26.1695   34.0725 C.3       3 GLC5        0.0000 
     32 CA          2.2660   24.5590   34.5300 C.3       9 GLL5        0.0000 
     33 CA          3.4330   23.7935   36.1680 C.3       3 GLC5        0.0000 
     34 N           5.6495   29.3905   26.0165 N.am      2 SEC2        0.0000 
     35 N           4.6400   28.4500   26.2640 N.am      8 SEL2        0.0000 
     36 N           6.6590   30.3310   25.7690 N.am      5 SEP2        0.0000 
     37 CA          2.9350   30.8615   25.7605 C.3       3 GLC5        0.0000 
     38 CA          1.5550   29.8190   26.7720 C.3       9 GLL5        0.0000 
     39 CA          4.3150   31.9040   24.7490 C.3       6 GLP5        0.0000 
     40 CA         -0.6890   30.7275   28.7125 C.3       3 GLC5        0.0000 
     41 CA          0.0730   29.6280   27.0590 C.3       9 GLL5        0.0000 
     42 CA         -1.4510   31.8270   30.3660 C.3       6 GLP5        0.0000 
     43 CA         -1.1165   28.8220   23.4945 C.3       3 GLC5        0.0000 
     44 CA         -1.7890   29.3750   25.5250 C.3       9 GLL5        0.0000 
     45 CA         -0.4440   28.2690   21.4640 C.3       6 GLP5        0.0000 
     46 CA         -2.8110   27.9265   24.4690 C.3       3 GLC5        0.0000 
     47 CA         -3.8330   26.4780   23.4130 C.3       6 GLP5        0.0000 
     48 CA         -1.8350   31.7280   27.5965 C.3       3 GLC5        0.0000 
     49 CA         -1.6300   30.8170   25.9790 C.3       9 GLL5        0.0000 
     50 CA         -2.0400   32.6390   29.2140 C.3       6 GLP5        0.0000 
     51 N          -1.9700   36.6245   21.7505 N.am      2 SEC2        0.0000 
     52 N          -3.0860   35.7850   22.6840 N.am      8 SEL2        0.0000 
     53 N          -0.8540   37.4640   20.8170 N.am      5 SEP2        0.0000 
     54 O          -2.1060   35.1070   26.1750 O.2       1 ALC1        0.0000 
     55 O          -2.7340   35.6600   25.0560 O.2       7 ALL1        0.0000 
     56 O          -1.4780   34.5540   27.2940 O.2       4 ALP1        0.0000 
     57 O          -3.2700   36.9935   24.8970 O.2       1 ALC1        0.0000 
     58 O          -3.8060   38.3270   24.7380 O.2       4 ALP1        0.0000 
     59 CA          2.2597   26.5455   30.6800 C.3       3 GLC5        0.0000 
     60 CA          0.8510   27.8090   31.6420 C.3       6 GLP5        0.0000 
     61 CA          5.6556   25.5105   29.2073 C.3       3 GLC5        0.0000 
     62 CA          3.2300   25.4970   29.1330 C.3       9 GLL5        0.0000 
     63 CA          7.2560   26.5890   28.4340 C.3       6 GLP5        0.0000 
     64 CA          3.4045   22.1220   33.4013 C.3       3 GLC5        0.0000 
     65 CA          3.8820   22.9900   31.5270 C.3       9 GLL5        0.0000 
     66 CA          3.0680   20.6460   34.8380 C.3       6 GLP5        0.0000 
     67 CA          1.1473   25.8655   34.0739 C.3       3 GLC5        0.0000 
     68 CA          1.0110   24.1830   34.9950 C.3       9 GLL5        0.0000 
     69 CA          0.2100   34.5075   23.8580 C.3       3 GLC5        0.0000 
     70 CA         -2.0340   33.7400   23.6890 C.3       9 GLL5        0.0000 
     71 CA          1.9300   35.3690   24.4750 C.3       6 GLP5        0.0000 
     72 CA         -1.3450   34.5025   21.4220 C.3       3 GLC5        0.0000 
     73 CA         -0.9860   33.5520   22.7930 C.3       9 GLL5        0.0000 
     74 CA         -1.1800   35.3590   19.6030 C.3       6 GLP5        0.0000 
     75 CA         -0.3382   30.1397   22.4603 C.3       3 GLC5        0.0000 
     76 CA         -0.1310   32.4620   22.9350 C.3       9 GLL5        0.0000 
     77 CA          0.8487   33.6898   23.9657 C.3       3 GLC5        0.0000 
     78 CA         -0.3340   31.5590   23.9780 C.3       9 GLL5        0.0000 
@<TRIPOS>BOND
@<TRIPOS>SUBSTRUCTURE
     1 ALC1        7 GROUP        1 X    ALC  0     ROOT ALC X 1
     2 SEC2        1 GROUP        1 X    SEC  0     **** SEC X 2
     3 GLC5        4 GROUP        1 X    GLC  0     **** GLC X 6
     4 ALP1        9 GROUP        1 Y    ALP  0     ROOT ALP Y 8
     5 SEP2        3 GROUP        1 Y    SEP  0     **** SEP Y 9
     6 GLP5        6 GROUP        1 Y    GLP  0     **** GLP Y 13
     7 ALL1        8 GROUP        1 Z    ALL  0     ROOT ALL Z 15
     8 SEL2        2 GROUP        1 Z    SEL  0     **** SEL Z 16
     9 GLL5        5 GROUP        1 Z    GLL  0     **** GLL Z 20
@<TRIPOS>SET

