#    Name: 2hu2_NAD_1_ligand
#    Modification time : Tue Mar 25 17:02:11 2014

@<TRIPOS>MOLECULE
2hu2_NAD_1_ligand
   70    74     1     0     0
SMALL
NO_CHARGES


@<TRIPOS>ATOM
      1 PA          4.0070   25.5150   26.6080 P.3       1 NAD600      0.0000 
      2 O1A         3.4300   24.1500   26.5960 O.co2     1 NAD600      0.0000 
      3 O2A         5.3550   25.5260   25.9890 O.co2     1 NAD600      0.0000 
      4 O5B         4.0370   26.0670   28.1220 O.3       1 NAD600      0.0000 
      5 C5B         3.2300   25.4970   29.1330 C.3       1 NAD600      0.0000 
      6 C4B         4.1070   25.0670   30.3030 C.3       1 NAD600      0.0000 
      7 O4B         3.4350   25.3060   31.5250 O.3       1 NAD600      0.0000 
      8 C3B         4.4420   23.5820   30.2430 C.3       1 NAD600      0.0000 
      9 O3B         5.8510   23.4300   30.1890 O.3       1 NAD600      0.0000 
     10 C2B         3.8820   22.9900   31.5270 C.3       1 NAD600      0.0000 
     11 O2B         4.8210   22.1450   32.1550 O.3       1 NAD600      0.0000 
     12 C1B         3.6000   24.2060   32.4020 C.3       1 NAD600      0.0000 
     13 N9A         2.4080   24.0390   33.2670 N.pl3     1 NAD600      0.0000 
     14 C8A         1.2520   23.3560   32.9760 C.2       1 NAD600      0.0000 
     15 N7A         0.4140   23.4500   34.0330 N.2       1 NAD600      0.0000 
     16 C5A         1.0110   24.1830   34.9950 C.ar      1 NAD600      0.0000 
     17 C6A         0.5990   24.5790   36.2640 C.ar      1 NAD600      0.0000 
     18 N6A        -0.4600   24.0020   36.8200 N.pl3     1 NAD600      0.0000 
     19 N1A         1.4400   25.3460   37.0460 N.ar      1 NAD600      0.0000 
     20 C2A         2.6830   25.7140   36.5660 C.ar      1 NAD600      0.0000 
     21 N3A         3.0860   25.3140   35.3050 N.ar      1 NAD600      0.0000 
     22 C4A         2.2660   24.5590   34.5300 C.ar      1 NAD600      0.0000 
     23 O3          3.0350   26.5260   25.8130 O.3       1 NAD600      0.0000 
     24 PN          3.2820   28.1180   25.7730 P.3       1 NAD600      0.0000 
     25 O1N         4.6400   28.4500   26.2640 O.co2     1 NAD600      0.0000 
     26 O2N         2.8530   28.6240   24.4480 O.co2     1 NAD600      0.0000 
     27 O5D         2.2230   28.5870   26.8860 O.3       1 NAD600      0.0000 
     28 C5D         1.5550   29.8190   26.7720 C.3       1 NAD600      0.0000 
     29 C4D         0.0730   29.6280   27.0590 C.3       1 NAD600      0.0000 
     30 O4D        -0.5600   30.8760   26.9000 O.3       1 NAD600      0.0000 
     31 C3D        -0.5800   28.6550   26.0870 C.3       1 NAD600      0.0000 
     32 O3D        -0.9620   27.4750   26.7550 O.3       1 NAD600      0.0000 
     33 C2D        -1.7890   29.3750   25.5250 C.3       1 NAD600      0.0000 
     34 O2D        -2.9770   28.8410   26.0650 O.3       1 NAD600      0.0000 
     35 C1D        -1.6300   30.8170   25.9790 C.3       1 NAD600      0.0000 
     36 N1N        -1.3740   31.7430   24.8560 N.pl3     1 NAD600      0.0000 
     37 C2N        -2.2110   32.8170   24.7170 C.ar      1 NAD600      0.0000 
     38 C3N        -2.0340   33.7400   23.6890 C.ar      1 NAD600      0.0000 
     39 C7N        -2.6350   35.1080   23.8370 C.2       1 NAD600      0.0000 
     40 O7N        -3.0860   35.7850   22.6840 O.2       1 NAD600      0.0000 
     41 N7N        -2.7340   35.6600   25.0560 N.am      1 NAD600      0.0000 
     42 C4N        -0.9860   33.5520   22.7930 C.ar      1 NAD600      0.0000 
     43 C5N        -0.1310   32.4620   22.9350 C.ar      1 NAD600      0.0000 
     44 C6N        -0.3340   31.5590   23.9780 C.ar      1 NAD600      0.0000 
     45 H           2.6899   24.6097   28.7788 H         1 NAD600      0.0000 
     46 H           2.4873   26.2074   29.5179 H         1 NAD600      0.0000 
     47 H           5.0352   25.6201   30.2584 H         1 NAD600      0.0000 
     48 H           3.9368   23.1573   29.4173 H         1 NAD600      0.0000 
     49 H           2.9563   22.5213   31.3059 H         1 NAD600      0.0000 
     50 H           4.4824   24.3620   33.0261 H         1 NAD600      0.0000 
     51 H           1.0791   22.8909   32.1513 H         1 NAD600      0.0000 
     52 H          -0.7344   24.3549   37.7145 H         1 NAD600      0.0000 
     53 H          -0.8874   23.2667   36.2939 H         1 NAD600      0.0000 
     54 H           3.3113   26.2880   37.1492 H         1 NAD600      0.0000 
     55 H           1.6447   30.2488   25.7639 H         1 NAD600      0.0000 
     56 H           1.9367   30.5661   27.4827 H         1 NAD600      0.0000 
     57 H          -0.0439   29.2543   28.0552 H         1 NAD600      0.0000 
     58 H           0.1085   28.4797   25.2850 H         1 NAD600      0.0000 
     59 H          -1.7458   29.3477   24.4695 H         1 NAD600      0.0000 
     60 H          -2.5613   31.1064   26.4733 H         1 NAD600      0.0000 
     61 H          -2.9955   32.9556   25.3849 H         1 NAD600      0.0000 
     62 H          -2.3371   35.1362   25.8098 H         1 NAD600      0.0000 
     63 H          -3.1958   36.5458   25.1017 H         1 NAD600      0.0000 
     64 H          -0.8421   34.2197   22.0235 H         1 NAD600      0.0000 
     65 H           0.6425   32.3237   22.2778 H         1 NAD600      0.0000 
     66 H           0.3030   30.7547   24.0823 H         1 NAD600      0.0000 
     67 H           6.0749   22.8218   30.9506 H         1 NAD600      0.0000 
     68 H           5.1657   22.6730   32.9312 H         1 NAD600      0.0000 
     69 H          -0.7574   26.7363   26.1127 H         1 NAD600      0.0000 
     70 H          -2.6818   28.0656   26.6233 H         1 NAD600      0.0000 
@<TRIPOS>BOND
     1    2    1 ar   
     2    3    1 ar   
     3    4    1 1    
     4   23    1 1    
     5    5    4 1    
     6    6    5 1    
     7   45    5 1    
     8   46    5 1    
     9    7    6 1    
    10    8    6 1    
    11   47    6 1    
    12   12    7 1    
    13    9    8 1    
    14   10    8 1    
    15   48    8 1    
    16   67    9 1    
    17   11   10 1    
    18   12   10 1    
    19   49   10 1    
    20   68   11 1    
    21   13   12 1    
    22   50   12 1    
    23   14   13 1    
    24   22   13 1    
    25   15   14 2    
    26   51   14 1    
    27   16   15 1    
    28   17   16 ar   
    29   22   16 ar   
    30   18   17 1    
    31   19   17 ar   
    32   52   18 1    
    33   53   18 1    
    34   20   19 ar   
    35   21   20 ar   
    36   54   20 1    
    37   22   21 ar   
    38   24   23 1    
    39   25   24 ar   
    40   26   24 ar   
    41   27   24 1    
    42   28   27 1    
    43   29   28 1    
    44   55   28 1    
    45   56   28 1    
    46   30   29 1    
    47   31   29 1    
    48   57   29 1    
    49   35   30 1    
    50   32   31 1    
    51   33   31 1    
    52   58   31 1    
    53   69   32 1    
    54   34   33 1    
    55   35   33 1    
    56   59   33 1    
    57   70   34 1    
    58   36   35 1    
    59   60   35 1    
    60   37   36 ar   
    61   44   36 ar   
    62   38   37 ar   
    63   61   37 1    
    64   39   38 1    
    65   42   38 ar   
    66   40   39 2    
    67   41   39 am   
    68   62   41 1    
    69   63   41 1    
    70   43   42 ar   
    71   64   42 1    
    72   44   43 ar   
    73   65   43 1    
    74   66   44 1    
@<TRIPOS>SUBSTRUCTURE
     1 NAD600      1 GROUP   
@<TRIPOS>SET

