#    Name: 4l9z_COA_4_INTS_M
#    Modification time : Tue Mar 25 09:57:30 2014

@<TRIPOS>MOLECULE
4l9z_COA_4_INTS_M
   82     0    12     0     0
SMALL
NO_CHARGES


@<TRIPOS>ATOM
      1 CA         -0.3885  -80.1260  -33.2080 C.3       4 GLC5        0.0000 
      2 CA         -1.1600  -78.3580  -34.3230 C.3      12 GLL5        0.0000 
      3 CA          0.3830  -81.8940  -32.0930 C.3       8 GLP5        0.0000 
      4 CA         -3.0090  -79.0045  -35.1715 C.3       4 GLC5        0.0000 
      5 CA         -4.8580  -79.6510  -36.0200 C.3       8 GLP5        0.0000 
      6 CA         -2.0765  -79.0500  -32.7760 C.3       4 GLC5        0.0000 
      7 CA         -2.9930  -79.7420  -31.2290 C.3       8 GLP5        0.0000 
      8 CA          0.2205  -78.3595  -35.5175 C.3       4 GLC5        0.0000 
      9 CA          1.6010  -78.3610  -36.7120 C.3       8 GLP5        0.0000 
     10 CA         -2.1890  -75.4535  -34.9910 C.3       4 GLC5        0.0000 
     11 CA         -0.6760  -76.4570  -35.4350 C.3      12 GLL5        0.0000 
     12 CA         -3.7020  -74.4500  -34.5470 C.3       8 GLP5        0.0000 
     13 CA          0.4625  -77.4090  -36.0735 C.3       4 GLC5        0.0000 
     14 O           1.0435  -76.9125  -30.8105 O.2       1 ALC1        0.0000 
     15 O           0.8150  -76.4110  -32.1860 O.2       9 ALL1        0.0000 
     16 O           1.2720  -77.4140  -29.4350 O.2       5 ALP1        0.0000 
     17 CA         -3.1930  -76.6070  -37.5155 C.3       4 GLC5        0.0000 
     18 CA         -1.2640  -75.6650  -37.6450 C.3      12 GLL5        0.0000 
     19 CA         -5.1220  -77.5490  -37.3860 C.3       8 GLP5        0.0000 
     20 CA          0.1685  -77.0130  -37.1785 C.3       4 GLC5        0.0000 
     21 N          -4.2620  -74.7760  -38.2560 N.am      2 SEC2        0.0000 
     22 N          -3.0770  -74.0640  -37.7510 N.am     10 SEL2        0.0000 
     23 N          -5.4470  -75.4880  -38.7610 N.am      6 SEP2        0.0000 
     24 NZ         -4.5330  -74.5880  -40.2825 N.4       3 LYC4        0.0000 
     25 NZ         -3.6190  -73.6880  -41.8040 N.4      11 LYL4        0.0000 
     26 NZ         -5.4470  -75.4880  -38.7610 N.4       7 LYP4        0.0000 
     27 NZ         -5.1000  -75.7410  -40.1440 N.4       3 LYC4        0.0000 
     28 NZ         -4.7530  -75.9940  -41.5270 N.4      11 LYL4        0.0000 
     29 N          -5.1000  -75.7410  -40.1440 N.am      2 SEC2        0.0000 
     30 N          -4.7530  -75.9940  -41.5270 N.am     10 SEL2        0.0000 
     31 N           3.9440  -73.6295  -38.9275 N.am      2 SEC2        0.0000 
     32 N           3.1800  -72.7340  -39.7200 N.am     10 SEL2        0.0000 
     33 N           4.7080  -74.5250  -38.1350 N.am      6 SEP2        0.0000 
     34 N          -1.4525  -70.7500  -36.1995 N.am      2 SEC2        0.0000 
     35 N          -0.1920  -70.5820  -37.3080 N.am     10 SEL2        0.0000 
     36 N          -2.7130  -70.9180  -35.0910 N.am      6 SEP2        0.0000 
     37 CA          3.5395  -67.7615  -32.5800 C.3       4 GLC5        0.0000 
     38 CA          2.7910  -69.6320  -33.1210 C.3      12 GLL5        0.0000 
     39 CA          4.2880  -65.8910  -32.0390 C.3       8 GLP5        0.0000 
     40 CA          6.4155  -71.1855  -34.4925 C.3       4 GLC5        0.0000 
     41 CA          4.7050  -71.1060  -33.4740 C.3      12 GLL5        0.0000 
     42 CA          8.1260  -71.2650  -35.5110 C.3       8 GLP5        0.0000 
     43 CA          5.5675  -70.7205  -31.7480 C.3       4 GLC5        0.0000 
     44 CA          6.4300  -70.3350  -30.0220 C.3       8 GLP5        0.0000 
     45 O           3.9635  -74.2850  -31.7470 O.2       1 ALC1        0.0000 
     46 O           2.9840  -73.3240  -31.3300 O.2       9 ALL1        0.0000 
     47 O           4.9430  -75.2460  -32.1640 O.2       5 ALP1        0.0000 
     48 CA          0.9855  -75.0050  -29.1585 C.3       4 GLC5        0.0000 
     49 CA          2.7700  -74.0230  -30.0850 C.3      12 GLL5        0.0000 
     50 CA         -0.7990  -75.9870  -28.2320 C.3       8 GLP5        0.0000 
     51 CA          4.3280  -75.4355  -30.3605 C.3       4 GLC5        0.0000 
     52 CA          5.8860  -76.8480  -30.6360 C.3       8 GLP5        0.0000 
     53 CA          2.4770  -72.0225  -27.2645 C.3       4 GLC5        0.0000 
     54 CA          3.1330  -73.0910  -28.9460 C.3      12 GLL5        0.0000 
     55 CA          1.8210  -70.9540  -25.5830 C.3       8 GLP5        0.0000 
     56 CA          4.7815  -71.7130  -29.4840 C.3       4 GLC5        0.0000 
     57 CA          3.0065  -72.3795  -25.5480 C.3       4 GLC5        0.0000 
     58 CA          4.1920  -73.8050  -25.5130 C.3      12 GLL5        0.0000 
     59 CA          8.5950  -75.0050  -26.0475 C.3       4 GLC5        0.0000 
     60 CA          6.8830  -73.9720  -25.6150 C.3      12 GLL5        0.0000 
     61 CA         10.3070  -76.0380  -26.4800 C.3       8 GLP5        0.0000 
     62 CA          7.4070  -72.9865  -27.2530 C.3       4 GLC5        0.0000 
     63 CA          7.9310  -72.0010  -28.8910 C.3       8 GLP5        0.0000 
     64 CA         -1.2468  -75.2467  -33.0652 C.3       4 GLC5        0.0000 
     65 CA          0.1390  -76.8170  -33.2350 C.3      12 GLL5        0.0000 
     66 CA         -2.5990  -74.0730  -32.3330 C.3       8 GLP5        0.0000 
     67 CA          1.3792  -77.0112  -34.8653 C.3       4 GLC5        0.0000 
     68 CA          0.0720  -76.0240  -34.3600 C.3      12 GLL5        0.0000 
     69 CA          2.6530  -77.6020  -35.9330 C.3       8 GLP5        0.0000 
     70 CA         -2.6122  -74.7280  -36.2320 C.3       4 GLC5        0.0000 
     71 CA          4.7443  -69.3435  -34.8106 C.3       4 GLC5        0.0000 
     72 CA          3.1400  -70.6670  -35.3070 C.3      12 GLL5        0.0000 
     73 CA          5.6390  -68.0330  -35.9670 C.3       8 GLP5        0.0000 
     74 CA          1.0553  -73.3290  -29.0418 C.3       4 GLC5        0.0000 
     75 CA         -0.8410  -73.1010  -28.5680 C.3       8 GLP5        0.0000 
     76 CA          4.0478  -75.9555  -24.7953 C.3       4 GLC5        0.0000 
     77 CA          3.3420  -77.6430  -24.2350 C.3       8 GLP5        0.0000 
     78 CA          6.8210  -75.7463  -24.3257 C.3       4 GLC5        0.0000 
     79 CA          5.3150  -74.7310  -25.1980 C.3      12 GLL5        0.0000 
     80 CA          7.5430  -77.1410  -23.2450 C.3       8 GLP5        0.0000 
     81 CA          6.4915  -75.2122  -26.9397 C.3       4 GLC5        0.0000 
     82 CA          6.8840  -76.0730  -28.4730 C.3       8 GLP5        0.0000 
@<TRIPOS>BOND
@<TRIPOS>SUBSTRUCTURE
     1 ALC1       14 GROUP        1 X    ALC  0     ROOT ALC X 1
     2 SEC2       21 GROUP        1 X    SEC  0     **** SEC X 2
     3 LYC4       24 GROUP        1 X    LYC  0     **** LYC X 4
     4 GLC5        1 GROUP        1 X    GLC  0     **** GLC X 6
     5 ALP1       16 GROUP        1 Y    ALP  0     ROOT ALP Y 8
     6 SEP2       23 GROUP        1 Y    SEP  0     **** SEP Y 9
     7 LYP4       26 GROUP        1 Y    LYP  0     **** LYP Y 11
     8 GLP5        3 GROUP        1 Y    GLP  0     **** GLP Y 13
     9 ALL1       15 GROUP        1 Z    ALL  0     ROOT ALL Z 15
    10 SEL2       22 GROUP        1 Z    SEL  0     **** SEL Z 16
    11 LYL4       25 GROUP        1 Z    LYL  0     **** LYL Z 18
    12 GLL5        2 GROUP        1 Z    GLL  0     **** GLL Z 20
@<TRIPOS>SET

