#    Name: 4l9z_COA_4_ligand
#    Modification time : Tue Mar 25 09:57:30 2014

@<TRIPOS>MOLECULE
4l9z_COA_4_ligand
   79    81     1     0     0
SMALL
NO_CHARGES


@<TRIPOS>ATOM
      1 N1A        -0.4730  -77.9610  -33.2540 N.ar      1 COA401      0.0000 
      2 C2A        -1.1600  -78.3580  -34.3230 C.ar      1 COA401      0.0000 
      3 N3A        -1.2800  -77.6170  -35.4070 N.ar      1 COA401      0.0000 
      4 C4A        -0.6760  -76.4570  -35.4350 C.ar      1 COA401      0.0000 
      5 C5A         0.0720  -76.0240  -34.3600 C.ar      1 COA401      0.0000 
      6 C6A         0.1390  -76.8170  -33.2350 C.ar      1 COA401      0.0000 
      7 N6A         0.8150  -76.4110  -32.1860 N.pl3     1 COA401      0.0000 
      8 N7A         0.5710  -74.8590  -34.6490 N.2       1 COA401      0.0000 
      9 C8A         0.1250  -74.5790  -35.8480 C.2       1 COA401      0.0000 
     10 N9A        -0.6080  -75.5500  -36.3280 N.pl3     1 COA401      0.0000 
     11 C1B        -1.2640  -75.6650  -37.6450 C.3       1 COA401      0.0000 
     12 C2B        -1.7810  -74.3470  -38.1890 C.3       1 COA401      0.0000 
     13 O2B        -3.0770  -74.0640  -37.7510 O.3       1 COA401      0.0000 
     14 C3B        -1.6750  -74.5590  -39.6800 C.3       1 COA401      0.0000 
     15 O3B        -2.6950  -75.3870  -40.1950 O.3       1 COA401      0.0000 
     16 P3B        -3.4200  -75.2130  -41.6210 P.3       1 COA401      0.0000 
     17 O7A        -3.6190  -73.6880  -41.8040 O.co2     1 COA401      0.0000 
     18 O8A        -4.7530  -75.9940  -41.5270 O.co2     1 COA401      0.0000 
     19 O9A        -2.6410  -75.8800  -42.5760 O.co2     1 COA401      0.0000 
     20 C4B        -0.4200  -75.4020  -39.7610 C.3       1 COA401      0.0000 
     21 O4B        -0.3780  -76.1760  -38.5880 O.3       1 COA401      0.0000 
     22 C5B         0.8600  -74.6040  -39.9270 C.3       1 COA401      0.0000 
     23 O5B         0.9880  -73.6390  -38.9460 O.3       1 COA401      0.0000 
     24 P1A         1.7920  -72.3400  -39.1740 P.3       1 COA401      0.0000 
     25 O1A         1.1110  -71.3580  -39.8980 O.co2     1 COA401      0.0000 
     26 O2A         3.1800  -72.7340  -39.7200 O.co2     1 COA401      0.0000 
     27 O3A         1.9290  -71.8100  -37.7300 O.3       1 COA401      0.0000 
     28 P2A         1.3190  -70.5030  -37.1960 P.3       1 COA401      0.0000 
     29 O4A         1.8560  -69.3440  -37.7640 O.co2     1 COA401      0.0000 
     30 O5A        -0.1920  -70.5820  -37.3080 O.co2     1 COA401      0.0000 
     31 O6A         1.7760  -70.5160  -35.6970 O.3       1 COA401      0.0000 
     32 CBP         3.2550  -70.8770  -33.7890 C.3       1 COA401      0.0000 
     33 CCP         3.1400  -70.6670  -35.3070 C.3       1 COA401      0.0000 
     34 CDP         2.7910  -69.6320  -33.1210 C.3       1 COA401      0.0000 
     35 CEP         4.7050  -71.1060  -33.4740 C.3       1 COA401      0.0000 
     36 CAP         2.3770  -72.0380  -33.3080 C.3       1 COA401      0.0000 
     37 OAP         2.7870  -73.2050  -33.9250 O.3       1 COA401      0.0000 
     38 C9P         2.2750  -72.3190  -31.7880 C.2       1 COA401      0.0000 
     39 O9P         1.5520  -71.6770  -31.0810 O.2       1 COA401      0.0000 
     40 N8P         2.9840  -73.3240  -31.3300 N.am      1 COA401      0.0000 
     41 C7P         2.7700  -74.0230  -30.0850 C.3       1 COA401      0.0000 
     42 C6P         3.1330  -73.0910  -28.9460 C.3       1 COA401      0.0000 
     43 C5P         3.0620  -73.7630  -27.6080 C.2       1 COA401      0.0000 
     44 O5P         2.1380  -74.3930  -27.2560 O.2       1 COA401      0.0000 
     45 N4P         4.1420  -73.5580  -26.9190 N.am      1 COA401      0.0000 
     46 C3P         4.1920  -73.8050  -25.5130 C.3       1 COA401      0.0000 
     47 C2P         5.3150  -74.7310  -25.1980 C.3       1 COA401      0.0000 
     48 S1P         6.8830  -73.9720  -25.6150 S.3       1 COA401      0.0000 
     49 H          -1.6309  -79.3162  -34.2961 H         1 COA401      0.0000 
     50 H           0.8266  -77.0323  -31.4025 H         1 COA401      0.0000 
     51 H           1.2567  -75.5174  -32.2660 H         1 COA401      0.0000 
     52 H           0.3213  -73.7269  -36.3360 H         1 COA401      0.0000 
     53 H          -2.1335  -76.3326  -37.5525 H         1 COA401      0.0000 
     54 H          -1.0531  -73.5946  -37.9207 H         1 COA401      0.0000 
     55 H          -1.5143  -73.6739  -40.1728 H         1 COA401      0.0000 
     56 H          -0.5276  -76.0616  -40.6329 H         1 COA401      0.0000 
     57 H           0.8432  -74.1705  -40.9496 H         1 COA401      0.0000 
     58 H           1.7000  -75.3307  -39.9201 H         1 COA401      0.0000 
     59 H           3.7390  -69.7805  -35.5628 H         1 COA401      0.0000 
     60 H           3.6116  -71.5325  -35.7956 H         1 COA401      0.0000 
     61 H           1.3301  -71.8124  -33.6485 H         1 COA401      0.0000 
     62 H           3.8171  -73.7010  -31.9011 H         1 COA401      0.0000 
     63 H           3.3966  -74.9118  -30.0161 H         1 COA401      0.0000 
     64 H           1.7275  -74.3183  -29.9697 H         1 COA401      0.0000 
     65 H           2.4511  -72.2271  -28.9612 H         1 COA401      0.0000 
     66 H           4.1507  -72.7056  -29.1113 H         1 COA401      0.0000 
     67 H           5.0303  -73.2027  -27.3527 H         1 COA401      0.0000 
     68 H           3.2530  -74.2555  -25.1557 H         1 COA401      0.0000 
     69 H           4.3383  -72.8697  -24.9508 H         1 COA401      0.0000 
     70 H           5.3283  -75.6230  -25.7882 H         1 COA401      0.0000 
     71 H           5.4325  -74.9414  -24.1558 H         1 COA401      0.0000 
     72 H           2.8417  -69.7039  -32.1249 H         1 COA401      0.0000 
     73 H           3.3420  -68.8408  -33.3862 H         1 COA401      0.0000 
     74 H           1.8416  -69.4185  -33.3515 H         1 COA401      0.0000 
     75 H           5.0661  -71.9083  -33.9493 H         1 COA401      0.0000 
     76 H           5.2710  -70.3267  -33.7428 H         1 COA401      0.0000 
     77 H           4.8539  -71.2529  -32.4961 H         1 COA401      0.0000 
     78 H          -3.4435  -73.4224  -38.4248 H         1 COA401      0.0000 
     79 H           1.9477  -73.7281  -34.0729 H         1 COA401      0.0000 
@<TRIPOS>BOND
     1    2    1 ar   
     2    6    1 ar   
     3    3    2 ar   
     4   49    2 1    
     5    4    3 ar   
     6    5    4 ar   
     7   10    4 1    
     8    6    5 ar   
     9    8    5 1    
    10    7    6 1    
    11   50    7 1    
    12   51    7 1    
    13    9    8 2    
    14   10    9 1    
    15   52    9 1    
    16   11   10 1    
    17   12   11 1    
    18   21   11 1    
    19   53   11 1    
    20   13   12 1    
    21   14   12 1    
    22   54   12 1    
    23   78   13 1    
    24   15   14 1    
    25   20   14 1    
    26   55   14 1    
    27   16   15 1    
    28   17   16 ar   
    29   18   16 ar   
    30   19   16 ar   
    31   21   20 1    
    32   22   20 1    
    33   56   20 1    
    34   23   22 1    
    35   57   22 1    
    36   58   22 1    
    37   24   23 1    
    38   25   24 ar   
    39   26   24 ar   
    40   27   24 1    
    41   28   27 1    
    42   29   28 ar   
    43   30   28 ar   
    44   31   28 1    
    45   33   31 1    
    46   33   32 1    
    47   34   32 1    
    48   35   32 1    
    49   36   32 1    
    50   59   33 1    
    51   60   33 1    
    52   72   34 1    
    53   73   34 1    
    54   74   34 1    
    55   75   35 1    
    56   76   35 1    
    57   77   35 1    
    58   37   36 1    
    59   38   36 1    
    60   61   36 1    
    61   79   37 1    
    62   39   38 2    
    63   40   38 am   
    64   41   40 1    
    65   62   40 1    
    66   42   41 1    
    67   63   41 1    
    68   64   41 1    
    69   43   42 1    
    70   65   42 1    
    71   66   42 1    
    72   44   43 2    
    73   45   43 am   
    74   46   45 1    
    75   67   45 1    
    76   47   46 1    
    77   68   46 1    
    78   69   46 1    
    79   48   47 1    
    80   70   47 1    
    81   71   47 1    
@<TRIPOS>SUBSTRUCTURE
     1 COA401      1 GROUP   
@<TRIPOS>SET

