#    Name: 1am1_ADP_1_INTS_M
#    Modification time : Mon Mar 24 18:30:22 2014

@<TRIPOS>MOLECULE
1am1_ADP_1_INTS_M
   43     0    12     0     0
SMALL
NO_CHARGES


@<TRIPOS>ATOM
      1 NZ          8.7145   -3.2225   -4.1505 N.4       3 LYC4        0.0000 
      2 NZ          9.7090   -4.2980   -4.7920 N.4      11 LYL4        0.0000 
      3 NZ          7.7200   -2.1470   -3.5090 N.4       7 LYP4        0.0000 
      4 N           8.7145   -3.2225   -4.1505 N.am      2 SEC2        0.0000 
      5 N           9.7090   -4.2980   -4.7920 N.am     10 SEL2        0.0000 
      6 N           7.7200   -2.1470   -3.5090 N.am      6 SEP2        0.0000 
      7 N          13.7515   -6.0420   -1.5295 N.am      2 SEC2        0.0000 
      8 N          12.4570   -5.5390   -1.3530 N.am     10 SEL2        0.0000 
      9 N          15.0460   -6.5450   -1.7060 N.am      6 SEP2        0.0000 
     10 N          12.7035   -5.9350    0.0705 N.am      2 SEC2        0.0000 
     11 N          12.9500   -6.3310    1.4940 N.am      6 SEP2        0.0000 
     12 CA         13.5290   -3.0060   -0.2555 C.3       4 GLC5        0.0000 
     13 CA         12.7090   -1.6730   -1.7890 C.3      12 GLL5        0.0000 
     14 CA         14.3490   -4.3390    1.2780 C.3       8 GLP5        0.0000 
     15 CA         13.6775    0.8910   -3.4350 C.3       4 GLC5        0.0000 
     16 CA         13.1580   -1.0480   -3.1190 C.3      12 GLL5        0.0000 
     17 CA         14.1970    2.8300   -3.7510 C.3       8 GLP5        0.0000 
     18 CA         16.7835    0.0680   -4.1775 C.3       4 GLC5        0.0000 
     19 CA         15.2530   -1.1230   -4.2120 C.3      12 GLL5        0.0000 
     20 CA         18.3140    1.2590   -4.1430 C.3       8 GLP5        0.0000 
     21 CA         14.7250    0.8535   -3.9815 C.3       4 GLC5        0.0000 
     22 CA         15.6025   -0.4860   -2.1255 C.3       4 GLC5        0.0000 
     23 CA         15.9520    0.1510   -0.0390 C.3       8 GLP5        0.0000 
     24 CA         17.1965   -5.5045   -3.8810 C.3       4 GLC5        0.0000 
     25 CA         18.0380   -3.5030   -4.2610 C.3      12 GLL5        0.0000 
     26 CA         16.3550   -7.5060   -3.5010 C.3       8 GLP5        0.0000 
     27 CA         19.3275   -4.5305   -6.8325 C.3       4 GLC5        0.0000 
     28 CA         19.2080   -3.8880   -4.9620 C.3      12 GLL5        0.0000 
     29 CA         19.4470   -5.1730   -8.7030 C.3       8 GLP5        0.0000 
     30 CA         21.2395   -3.2780   -4.6735 C.3       4 GLC5        0.0000 
     31 CA         23.2710   -2.6680   -4.3850 C.3       8 GLP5        0.0000 
     32 O          21.1800   -5.5310   -5.0845 O.2       1 ALC1        0.0000 
     33 O          19.9650   -4.9230   -4.5340 O.2       9 ALL1        0.0000 
     34 O          22.3950   -6.1390   -5.6350 O.2       5 ALP1        0.0000 
     35 CA         19.1635   -3.6630   -7.6410 C.3       4 GLC5        0.0000 
     36 CA         18.8800   -2.1530   -6.5790 C.3      12 GLL5        0.0000 
     37 CA         19.0315   -1.7925   -8.7065 C.3       4 GLC5        0.0000 
     38 CA         19.1830   -1.4320  -10.8340 C.3       8 GLP5        0.0000 
     39 CA         19.2330   -1.0045   -5.0650 C.3       4 GLC5        0.0000 
     40 CA         19.5860    0.1440   -3.5510 C.3       8 GLP5        0.0000 
     41 CA         14.4428   -0.6048   -1.2465 C.3       4 GLC5        0.0000 
     42 CA         18.7770   -1.4554   -4.1231 C.3       4 GLC5        0.0000 
     43 CA         17.3130   -2.4140   -4.7790 C.3      12 GLL5        0.0000 
@<TRIPOS>BOND
@<TRIPOS>SUBSTRUCTURE
     1 ALC1       32 GROUP        1 X    ALC  0     ROOT ALC X 1
     2 SEC2        4 GROUP        1 X    SEC  0     **** SEC X 2
     3 LYC4        1 GROUP        1 X    LYC  0     **** LYC X 4
     4 GLC5       12 GROUP        1 X    GLC  0     **** GLC X 6
     5 ALP1       34 GROUP        1 Y    ALP  0     ROOT ALP Y 8
     6 SEP2        6 GROUP        1 Y    SEP  0     **** SEP Y 9
     7 LYP4        3 GROUP        1 Y    LYP  0     **** LYP Y 11
     8 GLP5       14 GROUP        1 Y    GLP  0     **** GLP Y 13
     9 ALL1       33 GROUP        1 Z    ALL  0     ROOT ALL Z 15
    10 SEL2        5 GROUP        1 Z    SEL  0     **** SEL Z 16
    11 LYL4        2 GROUP        1 Z    LYL  0     **** LYL Z 18
    12 GLL5       13 GROUP        1 Z    GLL  0     **** GLL Z 20
@<TRIPOS>SET

