#    Name: 1am1_ADP_1_ligand
#    Modification time : Mon Mar 24 18:30:22 2014

@<TRIPOS>MOLECULE
1am1_ADP_1_ligand
   39    41     1     0     0
SMALL
NO_CHARGES


@<TRIPOS>ATOM
      1 PB         10.5010   -5.0550   -3.7550 P.3       1 ADP300      0.0000 
      2 O1B         9.7090   -4.2980   -4.7920 O.co2     1 ADP300      0.0000 
      3 O2B        11.8360   -5.7570   -4.3610 O.co2     1 ADP300      0.0000 
      4 O3B         9.6540   -6.0560   -2.9930 O.co2     1 ADP300      0.0000 
      5 PA         11.9470   -4.1460   -1.4440 P.3       1 ADP300      0.0000 
      6 O1A        11.1530   -3.7890   -0.2820 O.co2     1 ADP300      0.0000 
      7 O2A        12.4570   -5.5390   -1.3530 O.co2     1 ADP300      0.0000 
      8 O3A        11.0970   -4.0180   -2.7620 O.3       1 ADP300      0.0000 
      9 O5'        13.0880   -3.0420   -1.7330 O.3       1 ADP300      0.0000 
     10 C5'        12.7090   -1.6730   -1.7890 C.3       1 ADP300      0.0000 
     11 C4'        13.1580   -1.0480   -3.1190 C.3       1 ADP300      0.0000 
     12 O4'        14.5510   -0.6480   -3.0410 O.3       1 ADP300      0.0000 
     13 C3'        13.0500   -1.9410   -4.3470 C.3       1 ADP300      0.0000 
     14 O3'        11.7970   -1.8390   -5.0450 O.3       1 ADP300      0.0000 
     15 C2'        14.2100   -1.5360   -5.2100 C.3       1 ADP300      0.0000 
     16 O2'        13.8670   -0.4870   -6.1160 O.3       1 ADP300      0.0000 
     17 C1'        15.2530   -1.1230   -4.2120 C.3       1 ADP300      0.0000 
     18 N9         16.2670   -2.2190   -3.9900 N.pl3     1 ADP300      0.0000 
     19 C8         16.3070   -3.1310   -3.0060 C.2       1 ADP300      0.0000 
     20 N7         17.3930   -3.9110   -3.1830 N.2       1 ADP300      0.0000 
     21 C5         18.0380   -3.5030   -4.2610 C.ar      1 ADP300      0.0000 
     22 C6         19.2080   -3.8880   -4.9620 C.ar      1 ADP300      0.0000 
     23 N6         19.9650   -4.9230   -4.5340 N.pl3     1 ADP300      0.0000 
     24 N1         19.5970   -3.1950   -6.0930 N.ar      1 ADP300      0.0000 
     25 C2         18.8800   -2.1530   -6.5790 C.ar      1 ADP300      0.0000 
     26 N3         17.7600   -1.7820   -5.9120 N.ar      1 ADP300      0.0000 
     27 C4         17.3130   -2.4140   -4.7790 C.ar      1 ADP300      0.0000 
     28 H          13.1654   -1.0861   -0.9801 H         1 ADP300      0.0000 
     29 H          11.6203   -1.5440   -1.7169 H         1 ADP300      0.0000 
     30 H          12.5535   -0.1537   -3.3031 H         1 ADP300      0.0000 
     31 H          13.2437   -2.9630   -4.0136 H         1 ADP300      0.0000 
     32 H          14.5674   -2.4205   -5.7124 H         1 ADP300      0.0000 
     33 H          15.7859   -0.2585   -4.6779 H         1 ADP300      0.0000 
     34 H          15.6641   -3.2178   -2.2861 H         1 ADP300      0.0000 
     35 H          19.6483   -5.3873   -3.7068 H         1 ADP300      0.0000 
     36 H          20.7745   -5.1325   -5.0825 H         1 ADP300      0.0000 
     37 H          19.1768   -1.6581   -7.4289 H         1 ADP300      0.0000 
     38 H          11.3346   -2.7093   -4.8751 H         1 ADP300      0.0000 
     39 H          12.8676   -0.4540   -6.1072 H         1 ADP300      0.0000 
@<TRIPOS>BOND
     1    2    1 ar   
     2    3    1 ar   
     3    4    1 ar   
     4    8    1 1    
     5    6    5 ar   
     6    7    5 ar   
     7    8    5 1    
     8    9    5 1    
     9   10    9 1    
    10   11   10 1    
    11   28   10 1    
    12   29   10 1    
    13   12   11 1    
    14   13   11 1    
    15   30   11 1    
    16   17   12 1    
    17   14   13 1    
    18   15   13 1    
    19   31   13 1    
    20   38   14 1    
    21   16   15 1    
    22   17   15 1    
    23   32   15 1    
    24   39   16 1    
    25   18   17 1    
    26   33   17 1    
    27   19   18 1    
    28   27   18 1    
    29   20   19 2    
    30   34   19 1    
    31   21   20 1    
    32   22   21 ar   
    33   27   21 ar   
    34   23   22 1    
    35   24   22 ar   
    36   35   23 1    
    37   36   23 1    
    38   25   24 ar   
    39   26   25 ar   
    40   37   25 1    
    41   27   26 ar   
@<TRIPOS>SUBSTRUCTURE
     1 ADP300      1 GROUP   
@<TRIPOS>SET

