#    Name: 3oa2_NAD_4_INTS_M
#    Modification time : Tue Mar 25 03:34:02 2014

@<TRIPOS>MOLECULE
3oa2_NAD_4_INTS_M
  104     0    12     0     0
SMALL
NO_CHARGES


@<TRIPOS>ATOM
      1 N          45.6490   17.8165   51.6695 N.am      2 SEC2        0.0000 
      2 N          44.5570   17.6170   50.8810 N.am     10 SEL2        0.0000 
      3 N          46.7410   18.0160   52.4580 N.am      6 SEP2        0.0000 
      4 N          41.8445   16.7460   49.5425 N.am      2 SEC2        0.0000 
      5 N          41.9830   17.5870   50.5630 N.am     10 SEL2        0.0000 
      6 N          41.7060   15.9050   48.5220 N.am      6 SEP2        0.0000 
      7 N          40.7575   18.1745   50.1865 N.am      2 SEC2        0.0000 
      8 N          39.5320   18.7620   49.8100 N.am      6 SEP2        0.0000 
      9 CA         44.0970   22.6515   47.6525 C.3       4 GLC5        0.0000 
     10 CA         44.4850   20.7860   48.3780 C.3      12 GLL5        0.0000 
     11 CA         43.7090   24.5170   46.9270 C.3       8 GLP5        0.0000 
     12 O          44.4480   20.1375   45.0500 O.2       1 ALC1        0.0000 
     13 O          43.6300   19.4740   46.3930 O.2       9 ALL1        0.0000 
     14 O          45.2660   20.8010   43.7070 O.2       5 ALP1        0.0000 
     15 O          43.6680   20.6130   45.6365 O.2       1 ALC1        0.0000 
     16 O          43.7060   21.7520   44.8800 O.2       5 ALP1        0.0000 
     17 N          46.5880   18.1770   44.7070 N.am      2 SEC2        0.0000 
     18 N          46.1960   19.1950   45.5450 N.am     10 SEL2        0.0000 
     19 N          46.9800   17.1590   43.8690 N.am      6 SEP2        0.0000 
     20 O          45.7310   19.9980   44.6260 O.2       1 ALC1        0.0000 
     21 O          46.1960   19.1950   45.5450 O.2       9 ALL1        0.0000 
     22 CA         44.9575   22.8605   46.9135 C.3       4 GLC5        0.0000 
     23 CA         46.2060   21.2040   46.9000 C.3      12 GLL5        0.0000 
     24 CA         47.1920   21.6855   48.6610 C.3       4 GLC5        0.0000 
     25 CA         48.1780   22.1670   50.4220 C.3       8 GLP5        0.0000 
     26 CA         50.1460   23.1980   44.2535 C.3       4 GLC5        0.0000 
     27 CA         49.9520   24.0790   45.9030 C.3      12 GLL5        0.0000 
     28 CA         50.3400   22.3170   42.6040 C.3       8 GLP5        0.0000 
     29 O          51.6480   25.7000   45.5070 O.2       1 ALC1        0.0000 
     30 O          51.3000   24.2910   45.9490 O.2       9 ALL1        0.0000 
     31 O          51.9960   27.1090   45.0650 O.2       5 ALP1        0.0000 
     32 CA         47.1550   26.5100   45.9975 C.3       4 GLC5        0.0000 
     33 CA         47.8350   24.8930   45.3210 C.3      12 GLL5        0.0000 
     34 CA         46.4750   28.1270   46.6740 C.3       8 GLP5        0.0000 
     35 CA         45.7720   24.7050   46.1240 C.3       4 GLC5        0.0000 
     36 CA         46.6065   24.2080   43.8655 C.3       4 GLC5        0.0000 
     37 CA         45.3780   23.5230   42.4100 C.3       8 GLP5        0.0000 
     38 CA         47.6265   24.0710   48.0880 C.3       4 GLC5        0.0000 
     39 CA         47.9540   22.8470   46.3130 C.3      12 GLL5        0.0000 
     40 CA         47.2990   25.2950   49.8630 C.3       8 GLP5        0.0000 
     41 NZ         42.3520   18.1285   54.9700 N.4       3 LYC4        0.0000 
     42 NZ         41.3640   18.8200   54.1610 N.4      11 LYL4        0.0000 
     43 NZ         43.3400   17.4370   55.7790 N.4       7 LYP4        0.0000 
     44 N          42.3520   18.1285   54.9700 N.am      2 SEC2        0.0000 
     45 N          41.3640   18.8200   54.1610 N.am     10 SEL2        0.0000 
     46 N          43.3400   17.4370   55.7790 N.am      6 SEP2        0.0000 
     47 N          39.5335   20.4555   51.8385 N.am      2 SEC2        0.0000 
     48 N          40.9980   20.3800   52.1040 N.am     10 SEL2        0.0000 
     49 N          38.0690   20.5310   51.5730 N.am      6 SEP2        0.0000 
     50 CA         44.5480   20.7450   53.9365 C.3       4 GLC5        0.0000 
     51 CA         42.8560   22.0500   53.3970 C.3      12 GLL5        0.0000 
     52 CA         46.2400   19.4400   54.4760 C.3       8 GLP5        0.0000 
     53 CA         42.6595   24.9925   55.0975 C.3       4 GLC5        0.0000 
     54 CA         43.2270   23.1700   54.3720 C.3      12 GLL5        0.0000 
     55 CA         42.0920   26.8150   55.8230 C.3       8 GLP5        0.0000 
     56 CA         45.3120   24.5910   55.8515 C.3       4 GLC5        0.0000 
     57 CA         44.1980   22.7660   55.5010 C.3      12 GLL5        0.0000 
     58 CA         46.4260   26.4160   56.2020 C.3       8 GLP5        0.0000 
     59 O          46.0065   23.5455   56.6685 O.2       1 ALC1        0.0000 
     60 O          44.9230   23.8870   56.0130 O.2       9 ALL1        0.0000 
     61 O          47.0900   23.2040   57.3240 O.2       5 ALP1        0.0000 
     62 O          43.7390   23.6905   58.3840 O.2       1 ALC1        0.0000 
     63 O          43.8560   22.3700   57.8470 O.2       9 ALL1        0.0000 
     64 O          43.6220   25.0110   58.9210 O.2       5 ALP1        0.0000 
     65 CA         42.0490   24.9570   56.1375 C.3       4 GLC5        0.0000 
     66 CA         42.0060   23.0990   56.4520 C.3      12 GLL5        0.0000 
     67 CA         40.3655   24.9205   56.3770 C.3       4 GLC5        0.0000 
     68 CA         39.9350   23.2340   57.6640 C.3      12 GLL5        0.0000 
     69 CA         40.7960   26.6070   55.0900 C.3       8 GLP5        0.0000 
     70 N          36.0260   24.0170   60.3315 N.am      2 SEC2        0.0000 
     71 N          36.9500   23.1080   59.5790 N.am     10 SEL2        0.0000 
     72 N          35.1020   24.9260   61.0840 N.am      6 SEP2        0.0000 
     73 O          38.9650   25.6860   58.1290 O.2       1 ALC1        0.0000 
     74 O          38.0740   24.9250   58.9700 O.2       9 ALL1        0.0000 
     75 O          39.8560   26.4470   57.2880 O.2       5 ALP1        0.0000 
     76 O          37.1440   25.8990   59.9485 O.2       1 ALC1        0.0000 
     77 O          36.2140   26.8730   60.9270 O.2       5 ALP1        0.0000 
     78 CA         39.2945   21.7555   54.9725 C.3       4 GLC5        0.0000 
     79 CA         40.4540   21.2350   56.5990 C.3      12 GLL5        0.0000 
     80 CA         38.1350   22.2760   53.3460 C.3       8 GLP5        0.0000 
     81 CA         46.3030   21.3438   49.7542 C.3       4 GLC5        0.0000 
     82 CA         42.6183   19.7111   48.0441 C.3       4 GLC5        0.0000 
     83 CA         44.3710   20.2550   49.7950 C.3      12 GLL5        0.0000 
     84 CA         40.7180   19.3910   47.8260 C.3       8 GLP5        0.0000 
     85 CA         48.9727   21.5515   44.9935 C.3       4 GLC5        0.0000 
     86 CA         49.2900   20.2200   43.6170 C.3       8 GLP5        0.0000 
     87 CA         48.4168   22.5250   48.3960 C.3       4 GLC5        0.0000 
     88 CA         49.3570   22.9190   46.4270 C.3      12 GLL5        0.0000 
     89 CA         50.6133   23.5660   47.7220 C.3       4 GLC5        0.0000 
     90 CA         51.5720   23.6330   49.2790 C.3       8 GLP5        0.0000 
     91 CA         41.1412   22.9120   53.3927 C.3       4 GLC5        0.0000 
     92 CA         39.2410   23.2140   52.9010 C.3       8 GLP5        0.0000 
     93 CA         42.9128   24.2395   52.6037 C.3       4 GLC5        0.0000 
     94 CA         42.7840   25.8690   51.3230 C.3       8 GLP5        0.0000 
     95 CA         45.2520   21.1885   55.8390 C.3       4 GLC5        0.0000 
     96 CA         46.7850   19.9050   55.6410 C.3       8 GLP5        0.0000 
     97 CA         38.2675   23.0083   56.1050 C.3       4 GLC5        0.0000 
     98 CA         37.2040   23.0410   54.3110 C.3       8 GLP5        0.0000 
     99 CA         40.0405   23.2052   59.6580 C.3       4 GLC5        0.0000 
    100 CA         38.7270   22.7170   58.1340 C.3      12 GLL5        0.0000 
    101 CA         40.7500   23.4350   61.4170 C.3       8 GLP5        0.0000 
    102 CA         37.4535   21.6170   56.1385 C.3       4 GLC5        0.0000 
    103 CA         38.3860   21.3930   57.8200 C.3      12 GLL5        0.0000 
    104 CA         36.0800   22.2150   54.8470 C.3       8 GLP5        0.0000 
@<TRIPOS>BOND
@<TRIPOS>SUBSTRUCTURE
     1 ALC1       12 GROUP        1 X    ALC  0     ROOT ALC X 1
     2 SEC2        1 GROUP        1 X    SEC  0     **** SEC X 2
     3 LYC4       41 GROUP        1 X    LYC  0     **** LYC X 4
     4 GLC5        9 GROUP        1 X    GLC  0     **** GLC X 6
     5 ALP1       14 GROUP        1 Y    ALP  0     ROOT ALP Y 8
     6 SEP2        3 GROUP        1 Y    SEP  0     **** SEP Y 9
     7 LYP4       43 GROUP        1 Y    LYP  0     **** LYP Y 11
     8 GLP5       11 GROUP        1 Y    GLP  0     **** GLP Y 13
     9 ALL1       13 GROUP        1 Z    ALL  0     ROOT ALL Z 15
    10 SEL2        2 GROUP        1 Z    SEL  0     **** SEL Z 16
    11 LYL4       42 GROUP        1 Z    LYL  0     **** LYL Z 18
    12 GLL5       10 GROUP        1 Z    GLL  0     **** GLL Z 20
@<TRIPOS>SET

