#    Name: 3oa2_NAD_4_ligand
#    Modification time : Tue Mar 25 03:34:02 2014

@<TRIPOS>MOLECULE
3oa2_NAD_4_ligand
   70    74     1     0     0
SMALL
NO_CHARGES


@<TRIPOS>ATOM
      1 PA         43.2570   18.3970   50.9820 P.3       1 NAD317      0.0000 
      2 O1A        44.5570   17.6170   50.8810 O.co2     1 NAD317      0.0000 
      3 O2A        41.9830   17.5870   50.5630 O.co2     1 NAD317      0.0000 
      4 O5B        43.2010   19.5490   49.8950 O.3       1 NAD317      0.0000 
      5 C5B        44.3710   20.2550   49.7950 C.3       1 NAD317      0.0000 
      6 C4B        44.4850   20.7860   48.3780 C.3       1 NAD317      0.0000 
      7 O4B        45.7240   21.5080   48.2030 O.3       1 NAD317      0.0000 
      8 C3B        44.6090   19.5420   47.4380 C.3       1 NAD317      0.0000 
      9 O3B        43.6300   19.4740   46.3930 O.3       1 NAD317      0.0000 
     10 C2B        46.0680   19.6770   46.8960 C.3       1 NAD317      0.0000 
     11 O2B        46.1960   19.1950   45.5450 O.3       1 NAD317      0.0000 
     12 C1B        46.2060   21.2040   46.9000 C.3       1 NAD317      0.0000 
     13 N9A        47.5990   21.6300   46.8250 N.pl3     1 NAD317      0.0000 
     14 C8A        48.7520   21.0020   47.2650 C.2       1 NAD317      0.0000 
     15 N7A        49.8250   21.7700   47.0400 N.2       1 NAD317      0.0000 
     16 C5A        49.3570   22.9190   46.4270 C.ar      1 NAD317      0.0000 
     17 C6A        49.9520   24.0790   45.9030 C.ar      1 NAD317      0.0000 
     18 N6A        51.3000   24.2910   45.9490 N.pl3     1 NAD317      0.0000 
     19 N1A        49.1620   25.0150   45.4030 N.ar      1 NAD317      0.0000 
     20 C2A        47.8350   24.8930   45.3210 C.ar      1 NAD317      0.0000 
     21 N3A        47.1860   23.8130   45.7750 N.ar      1 NAD317      0.0000 
     22 C4A        47.9540   22.8470   46.3130 C.ar      1 NAD317      0.0000 
     23 O3         43.1710   18.9130   52.4670 O.3       1 NAD317      0.0000 
     24 PN         41.9380   19.7670   53.1000 P.3       1 NAD317      0.0000 
     25 O1N        41.3640   18.8200   54.1610 O.co2     1 NAD317      0.0000 
     26 O2N        40.9980   20.3800   52.1040 O.co2     1 NAD317      0.0000 
     27 O5D        42.6310   20.8150   54.0460 O.3       1 NAD317      0.0000 
     28 C5D        42.8560   22.0500   53.3970 C.3       1 NAD317      0.0000 
     29 C4D        43.2270   23.1700   54.3720 C.3       1 NAD317      0.0000 
     30 O4D        41.9650   23.4040   55.0460 O.3       1 NAD317      0.0000 
     31 C3D        44.1980   22.7660   55.5010 C.3       1 NAD317      0.0000 
     32 O3D        44.9230   23.8870   56.0130 O.3       1 NAD317      0.0000 
     33 C2D        43.2400   22.1780   56.5730 C.3       1 NAD317      0.0000 
     34 O2D        43.8560   22.3700   57.8470 O.3       1 NAD317      0.0000 
     35 C1D        42.0060   23.0990   56.4520 C.3       1 NAD317      0.0000 
     36 N1N        40.7540   22.4860   56.9290 N.pl3     1 NAD317      0.0000 
     37 C2N        39.9350   23.2340   57.6640 C.ar      1 NAD317      0.0000 
     38 C3N        38.7270   22.7170   58.1340 C.ar      1 NAD317      0.0000 
     39 C7N        37.8550   23.5950   58.9440 C.2       1 NAD317      0.0000 
     40 O7N        36.9500   23.1080   59.5790 O.2       1 NAD317      0.0000 
     41 N7N        38.0740   24.9250   58.9700 N.am      1 NAD317      0.0000 
     42 C4N        38.3860   21.3930   57.8200 C.ar      1 NAD317      0.0000 
     43 C5N        39.2680   20.6450   57.0400 C.ar      1 NAD317      0.0000 
     44 C6N        40.4540   21.2350   56.5990 C.ar      1 NAD317      0.0000 
     45 H          45.2634   19.6431   49.9855 H         1 NAD317      0.0000 
     46 H          44.4135   21.1203   50.4707 H         1 NAD317      0.0000 
     47 H          43.6458   21.3244   48.1020 H         1 NAD317      0.0000 
     48 H          44.6143   18.6733   48.0848 H         1 NAD317      0.0000 
     49 H          46.7199   19.2790   47.5881 H         1 NAD317      0.0000 
     50 H          45.6005   21.6046   46.1600 H         1 NAD317      0.0000 
     51 H          48.7551   20.1185   47.6799 H         1 NAD317      0.0000 
     52 H          51.6264   25.1395   45.5325 H         1 NAD317      0.0000 
     53 H          51.8424   23.5791   46.3952 H         1 NAD317      0.0000 
     54 H          47.2729   25.6788   44.8807 H         1 NAD317      0.0000 
     55 H          41.9611   22.3893   52.8345 H         1 NAD317      0.0000 
     56 H          43.6756   21.9807   52.6515 H         1 NAD317      0.0000 
     57 H          43.5452   24.0147   53.8748 H         1 NAD317      0.0000 
     58 H          44.8027   21.9747   55.1458 H         1 NAD317      0.0000 
     59 H          42.9961   21.2205   56.3251 H         1 NAD317      0.0000 
     60 H          42.2389   23.9995   57.0064 H         1 NAD317      0.0000 
     61 H          40.1722   24.2199   57.9069 H         1 NAD317      0.0000 
     62 H          38.8349   25.2566   58.4123 H         1 NAD317      0.0000 
     63 H          37.4561   25.4615   59.5447 H         1 NAD317      0.0000 
     64 H          37.5158   20.9914   58.1547 H         1 NAD317      0.0000 
     65 H          39.0496   19.6787   56.7945 H         1 NAD317      0.0000 
     66 H          41.0920   20.6617   56.0048 H         1 NAD317      0.0000 
     67 H          43.7281   20.3329   45.8903 H         1 NAD317      0.0000 
     68 H          45.4059   19.5704   45.0604 H         1 NAD317      0.0000 
     69 H          45.8777   23.5903   56.0332 H         1 NAD317      0.0000 
     70 H          43.8253   23.3573   58.0030 H         1 NAD317      0.0000 
@<TRIPOS>BOND
     1    2    1 ar   
     2    3    1 ar   
     3    4    1 1    
     4   23    1 1    
     5    5    4 1    
     6    6    5 1    
     7   45    5 1    
     8   46    5 1    
     9    7    6 1    
    10    8    6 1    
    11   47    6 1    
    12   12    7 1    
    13    9    8 1    
    14   10    8 1    
    15   48    8 1    
    16   67    9 1    
    17   11   10 1    
    18   12   10 1    
    19   49   10 1    
    20   68   11 1    
    21   13   12 1    
    22   50   12 1    
    23   14   13 1    
    24   22   13 1    
    25   15   14 2    
    26   51   14 1    
    27   16   15 1    
    28   17   16 ar   
    29   22   16 ar   
    30   18   17 1    
    31   19   17 ar   
    32   52   18 1    
    33   53   18 1    
    34   20   19 ar   
    35   21   20 ar   
    36   54   20 1    
    37   22   21 ar   
    38   24   23 1    
    39   25   24 ar   
    40   26   24 ar   
    41   27   24 1    
    42   28   27 1    
    43   29   28 1    
    44   55   28 1    
    45   56   28 1    
    46   30   29 1    
    47   31   29 1    
    48   57   29 1    
    49   35   30 1    
    50   32   31 1    
    51   33   31 1    
    52   58   31 1    
    53   69   32 1    
    54   34   33 1    
    55   35   33 1    
    56   59   33 1    
    57   70   34 1    
    58   36   35 1    
    59   60   35 1    
    60   37   36 ar   
    61   44   36 ar   
    62   38   37 ar   
    63   61   37 1    
    64   39   38 1    
    65   42   38 ar   
    66   40   39 2    
    67   41   39 am   
    68   62   41 1    
    69   63   41 1    
    70   43   42 ar   
    71   64   42 1    
    72   44   43 ar   
    73   65   43 1    
    74   66   44 1    
@<TRIPOS>SUBSTRUCTURE
     1 NAD317      1 GROUP   
@<TRIPOS>SET

