#    Name: 4b8u_IBK_1_INTS_M
#    Modification time : Tue Mar 25 07:06:33 2014

@<TRIPOS>MOLECULE
4b8u_IBK_1_INTS_M
   51     0     6     0     0
SMALL
NO_CHARGES


@<TRIPOS>ATOM
      1 CA        -27.4795   56.3885   16.6420 C.3       2 GLC5        0.0000 
      2 CA        -26.6170   56.1760   15.1950 C.3       6 GLL5        0.0000 
      3 CA        -28.3420   56.6010   18.0890 C.3       4 GLP5        0.0000 
      4 CA        -23.4595   54.1015   15.2040 C.3       2 GLC5        0.0000 
      5 CA        -24.8460   54.8810   13.9270 C.3       6 GLL5        0.0000 
      6 CA        -22.0730   53.3220   16.4810 C.3       4 GLP5        0.0000 
      7 CA        -23.4225   53.6055   13.3930 C.3       2 GLC5        0.0000 
      8 CA        -21.9990   52.3300   12.8590 C.3       4 GLP5        0.0000 
      9 CA        -35.0555   56.0495    9.7870 C.3       2 GLC5        0.0000 
     10 CA        -35.4620   53.8550    9.7730 C.3       6 GLL5        0.0000 
     11 CA        -34.6490   58.2440    9.8010 C.3       4 GLP5        0.0000 
     12 CA        -31.7475   53.6165    8.0895 C.3       2 GLC5        0.0000 
     13 CA        -31.4670   52.6640    9.7470 C.3       6 GLL5        0.0000 
     14 CA        -32.0280   54.5690    6.4320 C.3       4 GLP5        0.0000 
     15 CA        -30.3725   51.8485   11.5215 C.3       2 GLC5        0.0000 
     16 CA        -29.2780   51.0330   13.2960 C.3       4 GLP5        0.0000 
     17 CA        -27.9600   56.8090   11.8635 C.3       2 GLC5        0.0000 
     18 CA        -27.0100   55.6150   12.8060 C.3       6 GLL5        0.0000 
     19 CA        -28.9100   58.0030   10.9210 C.3       4 GLP5        0.0000 
     20 CA        -27.6105   54.2605   10.0490 C.3       2 GLC5        0.0000 
     21 CA        -26.7880   52.3470   10.7920 C.3       6 GLL5        0.0000 
     22 CA        -28.4330   56.1740    9.3060 C.3       4 GLP5        0.0000 
     23 CA        -26.5340   50.7145    9.4910 C.3       2 GLC5        0.0000 
     24 CA        -26.2800   49.0820    8.1900 C.3       4 GLP5        0.0000 
     25 CA        -28.0330   51.6900   12.0440 C.3       2 GLC5        0.0000 
     26 CA        -25.5075   50.8545   11.0935 C.3       2 GLC5        0.0000 
     27 CA        -24.2270   49.3620   11.3950 C.3       4 GLP5        0.0000 
     28 CA        -28.7115   54.5545    9.5295 C.3       2 GLC5        0.0000 
     29 CA        -28.9900   52.9350    9.7530 C.3       6 GLL5        0.0000 
     30 CA        -28.1100   53.4390    7.9185 C.3       2 GLC5        0.0000 
     31 CA        -27.2300   53.9430    6.0840 C.3       4 GLP5        0.0000 
     32 CA        -29.1340   51.9840   11.5245 C.3       2 GLC5        0.0000 
     33 O         -28.4560   53.9225   12.5790 O.2       1 ALC1        0.0000 
     34 O         -27.0700   54.2140   12.3160 O.2       5 ALL1        0.0000 
     35 O         -29.8420   53.6310   12.8420 O.2       3 ALP1        0.0000 
     36 CA        -36.4400   50.2505    8.7425 C.3       2 GLC5        0.0000 
     37 CA        -35.2810   51.4110    9.9240 C.3       6 GLL5        0.0000 
     38 CA        -37.5990   49.0900    7.5610 C.3       4 GLP5        0.0000 
     39 CA        -34.9750   49.6635    9.4210 C.3       2 GLC5        0.0000 
     40 CA        -34.6690   47.9160    8.9180 C.3       4 GLP5        0.0000 
     41 CA        -31.9695   50.0490   10.7325 C.3       2 GLC5        0.0000 
     42 CA        -32.5200   51.8710    9.5410 C.3       6 GLL5        0.0000 
     43 CA        -31.4190   48.2270   11.9240 C.3       4 GLP5        0.0000 
     44 CA        -37.2848   53.7417   11.2875 C.3       2 GLC5        0.0000 
     45 CA        -38.7170   54.1680   12.7170 C.3       4 GLP5        0.0000 
     46 CA        -32.3498   53.2362   11.4090 C.3       2 GLC5        0.0000 
     47 CA        -32.7060   54.2050   13.1740 C.3       4 GLP5        0.0000 
     48 CA        -33.4292   52.5555    7.7149 C.3       2 GLC5        0.0000 
     49 CA        -33.6100   52.6940    5.8280 C.3       4 GLP5        0.0000 
     50 CA        -33.5056   53.6139   11.4360 C.3       2 GLC5        0.0000 
     51 CA        -33.8050   52.3100    9.6940 C.3       6 GLL5        0.0000 
@<TRIPOS>BOND
@<TRIPOS>SUBSTRUCTURE
     1 ALC1       33 GROUP        1 X    ALC  0     ROOT ALC X 1
     2 GLC5        1 GROUP        1 X    GLC  0     **** GLC X 6
     3 ALP1       35 GROUP        1 Y    ALP  0     ROOT ALP Y 8
     4 GLP5        3 GROUP        1 Y    GLP  0     **** GLP Y 13
     5 ALL1       34 GROUP        1 Z    ALL  0     ROOT ALL Z 15
     6 GLL5        2 GROUP        1 Z    GLL  0     **** GLL Z 20
@<TRIPOS>SET

