#    Name: 4b8u_IBK_1_ligand
#    Modification time : Tue Mar 25 07:06:33 2014

@<TRIPOS>MOLECULE
4b8u_IBK_1_ligand
   38    39     1     0     0
SMALL
NO_CHARGES


@<TRIPOS>ATOM
      1 CAA       -26.6170   56.1760   15.1950 C.3       1 IBK501      0.0000 
      2 CAB       -24.8460   54.8810   13.9270 C.3       1 IBK501      0.0000 
      3 OAC       -25.3750   54.2770   10.7300 O.2       1 IBK501      0.0000 
      4 CAD       -35.4620   53.8550    9.7730 C.2       1 IBK501      0.0000 
      5 CAE       -36.2430   52.7760    9.9430 C.2       1 IBK501      0.0000 
      6 CAF       -34.1490   53.6160    9.6310 C.2       1 IBK501      0.0000 
      7 CAG       -31.4670   52.6640    9.7470 C.2       1 IBK501      0.0000 
      8 CAH       -27.0100   55.6150   12.8060 C.3       1 IBK501      0.0000 
      9 CAI       -26.7880   52.3470   10.7920 C.3       1 IBK501      0.0000 
     10 CAJ       -28.9900   52.9350    9.7530 C.3       1 IBK501      0.0000 
     11 NAK       -30.4830   50.8560    8.9490 N.2       1 IBK501      0.0000 
     12 NAL       -27.0700   54.2140   12.3160 N.am      1 IBK501      0.0000 
     13 OAM       -27.7210   52.3020    9.6700 O.3       1 IBK501      0.0000 
     14 OAN       -32.0600   50.6650    8.9730 O.3       1 IBK501      0.0000 
     15 SAO       -35.2810   51.4110    9.9240 S.3       1 IBK501      0.0000 
     16 CAP       -26.4030   53.7700   11.2100 C.2       1 IBK501      0.0000 
     17 CAQ       -30.2950   52.0840    9.4540 C.2       1 IBK501      0.0000 
     18 CAR       -32.5200   51.8710    9.5410 C.2       1 IBK501      0.0000 
     19 CAS       -33.8050   52.3100    9.6940 C.2       1 IBK501      0.0000 
     20 CAT       -25.9320   55.9470   13.8320 C.3       1 IBK501      0.0000 
     21 H         -35.8436   54.7985    9.7531 H         1 IBK501      0.0000 
     22 H         -37.1416   52.6238   10.0616 H         1 IBK501      0.0000 
     23 H         -33.4712   54.3464    9.4889 H         1 IBK501      0.0000 
     24 H         -31.5421   53.6044   10.0883 H         1 IBK501      0.0000 
     25 H         -28.0023   55.8993   13.2447 H         1 IBK501      0.0000 
     26 H         -26.8818   56.3095   11.9347 H         1 IBK501      0.0000 
     27 H         -25.8550   51.8031   10.5458 H         1 IBK501      0.0000 
     28 H         -27.2179   51.8393   11.6776 H         1 IBK501      0.0000 
     29 H         -29.0547   53.8298    9.0617 H         1 IBK501      0.0000 
     30 H         -29.1613   53.3913   10.7753 H         1 IBK501      0.0000 
     31 H         -27.6678   53.5708   12.8813 H         1 IBK501      0.0000 
     32 H         -25.4721   56.8951   13.5429 H         1 IBK501      0.0000 
     33 H         -25.9665   56.4793   15.8913 H         1 IBK501      0.0000 
     34 H         -27.3322   56.8726   15.1388 H         1 IBK501      0.0000 
     35 H         -27.0471   55.3415   15.5394 H         1 IBK501      0.0000 
     36 H         -24.3951   54.7307   13.0472 H         1 IBK501      0.0000 
     37 H         -24.1338   55.1337   14.5819 H         1 IBK501      0.0000 
     38 H         -25.2155   53.9996   14.2213 H         1 IBK501      0.0000 
@<TRIPOS>BOND
     1   20    1 1    
     2   33    1 1    
     3   34    1 1    
     4   35    1 1    
     5   20    2 1    
     6   36    2 1    
     7   37    2 1    
     8   38    2 1    
     9   16    3 2    
    10    5    4 2    
    11    6    4 1    
    12   21    4 1    
    13   15    5 1    
    14   22    5 1    
    15   19    6 2    
    16   23    6 1    
    17   17    7 1    
    18   18    7 2    
    19   24    7 1    
    20   12    8 1    
    21   20    8 1    
    22   25    8 1    
    23   26    8 1    
    24   13    9 1    
    25   16    9 1    
    26   27    9 1    
    27   28    9 1    
    28   13   10 1    
    29   17   10 1    
    30   29   10 1    
    31   30   10 1    
    32   14   11 1    
    33   17   11 2    
    34   16   12 am   
    35   31   12 1    
    36   18   14 1    
    37   19   15 1    
    38   19   18 1    
    39   32   20 1    
@<TRIPOS>SUBSTRUCTURE
     1 IBK501      1 GROUP   
@<TRIPOS>SET

