#    Name: 3v3q_TMY_1_INTS_M
#    Modification time : Mon Mar 24 23:56:20 2014

@<TRIPOS>MOLECULE
3v3q_TMY_1_INTS_M
   61     0     6     0     0
SMALL
NO_CHARGES


@<TRIPOS>ATOM
      1 CA        -11.0315   28.9095    6.8385 C.3       2 GLC5        0.0000 
      2 CA        -11.4170   26.8550    6.6590 C.3       6 GLL5        0.0000 
      3 CA        -10.6460   30.9640    7.0180 C.3       4 GLP5        0.0000 
      4 CA         -9.9800   23.1135    6.7950 C.3       2 GLC5        0.0000 
      5 CA        -11.3660   24.4770    7.0100 C.3       6 GLL5        0.0000 
      6 CA         -8.5940   21.7500    6.5800 C.3       4 GLP5        0.0000 
      7 CA        -10.2120   23.1695    3.0670 C.3       2 GLC5        0.0000 
      8 CA        -11.0060   22.8700    5.1430 C.3       6 GLL5        0.0000 
      9 CA         -9.4180   23.4690    0.9910 C.3       4 GLP5        0.0000 
     10 CA        -10.4210   18.5270    5.6130 C.3       2 GLC5        0.0000 
     11 CA        -11.3350   19.7210    5.7700 C.3       6 GLL5        0.0000 
     12 CA         -9.5070   17.3330    5.4560 C.3       4 GLP5        0.0000 
     13 CA        -11.8550   18.2005    6.5805 C.3       2 GLC5        0.0000 
     14 CA        -11.7940   19.7960    7.2200 C.3       6 GLL5        0.0000 
     15 CA        -11.9160   16.6050    5.9410 C.3       4 GLP5        0.0000 
     16 CA        -13.4535   24.6800    8.8980 C.3       2 GLC5        0.0000 
     17 CA        -12.8570   23.1060    8.6350 C.3       6 GLL5        0.0000 
     18 CA        -14.0500   26.2540    9.1610 C.3       4 GLP5        0.0000 
     19 N          -9.4695   25.0915    2.9060 N.am      1 SEC2        0.0000 
     20 N         -10.8040   25.2860    3.3790 N.am      5 SEL2        0.0000 
     21 N          -8.1350   24.8970    2.4330 N.am      3 SEP2        0.0000 
     22 N          -9.6940   27.7070    3.8885 N.am      1 SEC2        0.0000 
     23 N         -11.0790   27.8450    4.5540 N.am      5 SEL2        0.0000 
     24 N          -8.3090   27.5690    3.2230 N.am      3 SEP2        0.0000 
     25 CA        -11.8545   25.7695    1.6395 C.3       2 GLC5        0.0000 
     26 CA        -11.6690   24.4320    2.6230 C.3       6 GLL5        0.0000 
     27 CA        -12.0400   27.1070    0.6560 C.3       4 GLP5        0.0000 
     28 CA        -10.5435   23.9505    1.8070 C.3       2 GLC5        0.0000 
     29 CA         -9.3715   29.5100    3.5275 C.3       2 GLC5        0.0000 
     30 CA         -9.8830   28.5460    4.7450 C.3       6 GLL5        0.0000 
     31 CA         -8.8600   30.4740    2.3100 C.3       4 GLP5        0.0000 
     32 CA         -8.8050   27.3805    5.0155 C.3       2 GLC5        0.0000 
     33 CA         -7.7270   26.2150    5.2860 C.3       4 GLP5        0.0000 
     34 CA        -10.2645   29.7550    5.8815 C.3       2 GLC5        0.0000 
     35 CA         -9.3830   27.4690    8.1475 C.3       2 GLC5        0.0000 
     36 CA        -11.0960   28.3040    8.5530 C.3       6 GLL5        0.0000 
     37 CA         -7.6700   26.6340    7.7420 C.3       4 GLP5        0.0000 
     38 CA        -10.4225   27.5510    9.7895 C.3       2 GLC5        0.0000 
     39 CA         -9.7490   26.7980   11.0260 C.3       4 GLP5        0.0000 
     40 CA        -10.8710   29.6340    7.7855 C.3       2 GLC5        0.0000 
     41 CA        -10.8885   29.6200   10.0570 C.3       2 GLC5        0.0000 
     42 CA        -10.6810   30.9360   11.5610 C.3       4 GLP5        0.0000 
     43 CA        -12.4760   27.9240    9.2640 C.3       2 GLC5        0.0000 
     44 CA        -13.8560   27.5440    9.9750 C.3       4 GLP5        0.0000 
     45 CA         -9.4311   25.9936    5.2524 C.3       2 GLC5        0.0000 
     46 CA        -11.1270   24.2780    5.5580 C.3       6 GLL5        0.0000 
     47 CA        -11.1192   24.8495    9.1665 C.3       2 GLC5        0.0000 
     48 CA        -11.5010   25.7630    7.4940 C.3       6 GLL5        0.0000 
     49 CA        -10.8050   24.5790   11.0810 C.3       4 GLP5        0.0000 
     50 CA         -9.5412   26.0135    7.3926 C.3       2 GLC5        0.0000 
     51 CA        -12.7312   25.8235    8.1021 C.3       2 GLC5        0.0000 
     52 CA         -9.7969   22.8229    4.9709 C.3       2 GLC5        0.0000 
     53 CA        -11.0360   25.4050    4.7230 C.3       6 GLL5        0.0000 
     54 CA         -8.5500   21.7900    4.8000 C.3       4 GLP5        0.0000 
     55 CA        -10.0793   20.7542    6.5375 C.3       2 GLC5        0.0000 
     56 CA        -11.9042   23.4925    9.9958 C.3       2 GLC5        0.0000 
     57 CA        -13.1500   21.7060    9.1860 C.3       6 GLL5        0.0000 
     58 CA        -15.0243   24.5495    9.1807 C.3       2 GLC5        0.0000 
     59 CA        -15.5380   22.4770    9.6920 C.3       6 GLL5        0.0000 
     60 CA        -15.7372   25.5637    9.0183 C.3       2 GLC5        0.0000 
     61 CA        -17.2470   24.3370    9.3790 C.3       6 GLL5        0.0000 
@<TRIPOS>BOND
@<TRIPOS>SUBSTRUCTURE
     1 SEC2       19 GROUP        1 X    SEC  0     ROOT SEC X 2
     2 GLC5        1 GROUP        1 X    GLC  0     **** GLC X 6
     3 SEP2       21 GROUP        1 Y    SEP  0     ROOT SEP Y 9
     4 GLP5        3 GROUP        1 Y    GLP  0     **** GLP Y 13
     5 SEL2       20 GROUP        1 Z    SEL  0     ROOT SEL Z 16
     6 GLL5        2 GROUP        1 Z    GLL  0     **** GLL Z 20
@<TRIPOS>SET

