#    Name: 3v3q_TMY_1_ligand
#    Modification time : Mon Mar 24 23:56:20 2014

@<TRIPOS>MOLECULE
3v3q_TMY_1_ligand
   59    59     1     0     0
SMALL
NO_CHARGES


@<TRIPOS>ATOM
      1 C1        -11.1270   24.2780    5.5580 C.ar      1 TMY301      0.0000 
      2 C2        -11.0360   25.4050    4.7230 C.ar      1 TMY301      0.0000 
      3 C3        -11.1890   26.7030    5.2970 C.ar      1 TMY301      0.0000 
      4 C4        -11.4170   26.8550    6.6590 C.ar      1 TMY301      0.0000 
      5 C5        -11.5010   25.7630    7.4940 C.ar      1 TMY301      0.0000 
      6 C6        -11.3660   24.4770    7.0100 C.ar      1 TMY301      0.0000 
      7 C13       -11.0060   22.8700    5.1430 C.3       1 TMY301      0.0000 
      8 C14       -12.0770   22.0550    5.2260 C.2       1 TMY301      0.0000 
      9 O15       -13.2480   22.5660    5.6220 O.2       1 TMY301      0.0000 
     10 O16       -11.9920   20.6350    4.8820 O.3       1 TMY301      0.0000 
     11 C17       -11.3350   19.7210    5.7700 C.3       1 TMY301      0.0000 
     12 C18       -11.7940   19.7960    7.2200 C.3       1 TMY301      0.0000 
     13 C19       -11.5010   23.3560    8.0100 C.2       1 TMY301      0.0000 
     14 C20       -12.8570   23.1060    8.6350 C.3       1 TMY301      0.0000 
     15 C21       -13.1500   21.7060    9.1860 C.3       1 TMY301      0.0000 
     16 C22       -14.6460   21.4270    9.0110 C.3       1 TMY301      0.0000 
     17 C23       -15.5380   22.4770    9.6920 C.3       1 TMY301      0.0000 
     18 C24       -16.4590   23.2130    8.7090 C.3       1 TMY301      0.0000 
     19 C25       -17.2470   24.3370    9.3790 C.3       1 TMY301      0.0000 
     20 C26       -17.6020   25.4100    8.3720 C.3       1 TMY301      0.0000 
     21 O27       -10.5290   22.7060    8.3290 O.2       1 TMY301      0.0000 
     22 O28       -10.8040   25.2860    3.3790 O.3       1 TMY301      0.0000 
     23 O29       -11.0790   27.8450    4.5540 O.3       1 TMY301      0.0000 
     24 O30       -11.5640   28.0730    7.2190 O.3       1 TMY301      0.0000 
     25 C31       -11.6690   24.4320    2.6230 C.3       1 TMY301      0.0000 
     26 C32        -9.8830   28.5460    4.7450 C.3       1 TMY301      0.0000 
     27 C33       -11.0960   28.3040    8.5530 C.3       1 TMY301      0.0000 
     28 H         -11.6697   25.9086    8.5113 H         1 TMY301      0.0000 
     29 H         -10.1065   22.4363    5.7225 H         1 TMY301      0.0000 
     30 H         -10.5739   22.8825    4.0725 H         1 TMY301      0.0000 
     31 H         -10.2290   19.8821    5.7611 H         1 TMY301      0.0000 
     32 H         -11.4740   18.6654    5.4299 H         1 TMY301      0.0000 
     33 H         -13.6523   23.3574    7.8845 H         1 TMY301      0.0000 
     34 H         -13.0143   23.8455    9.4640 H         1 TMY301      0.0000 
     35 H         -12.8984   21.6727   10.2324 H         1 TMY301      0.0000 
     36 H         -12.5817   20.9772    8.6336 H         1 TMY301      0.0000 
     37 H         -14.8778   20.4396    9.4289 H         1 TMY301      0.0000 
     38 H         -14.8830   21.4007    7.9402 H         1 TMY301      0.0000 
     39 H         -14.9000   23.2099   10.2005 H         1 TMY301      0.0000 
     40 H         -16.1520   21.9819   10.4540 H         1 TMY301      0.0000 
     41 H         -17.1587   22.4935    8.2715 H         1 TMY301      0.0000 
     42 H         -15.8522   23.6313    7.8993 H         1 TMY301      0.0000 
     43 H         -16.6433   24.7688   10.1761 H         1 TMY301      0.0000 
     44 H         -18.1580   23.9247    9.8107 H         1 TMY301      0.0000 
     45 H         -11.3090   19.1393    7.7975 H         1 TMY301      0.0000 
     46 H         -11.6382   20.7025    7.6124 H         1 TMY301      0.0000 
     47 H         -12.7706   19.6011    7.3110 H         1 TMY301      0.0000 
     48 H         -16.7869   25.8134    7.9562 H         1 TMY301      0.0000 
     49 H         -18.1630   25.0491    7.6270 H         1 TMY301      0.0000 
     50 H         -18.1174   26.1572    8.7916 H         1 TMY301      0.0000 
     51 H         -11.4168   24.4105    1.6556 H         1 TMY301      0.0000 
     52 H         -11.6417   23.4888    2.9540 H         1 TMY301      0.0000 
     53 H         -12.6217   24.7320    2.6710 H         1 TMY301      0.0000 
     54 H          -9.0854   27.9912    4.5081 H         1 TMY301      0.0000 
     55 H          -9.8429   29.3721    4.1829 H         1 TMY301      0.0000 
     56 H          -9.7685   28.8328    5.6961 H         1 TMY301      0.0000 
     57 H         -10.1131   28.1396    8.6354 H         1 TMY301      0.0000 
     58 H         -11.2613   29.2455    8.8468 H         1 TMY301      0.0000 
     59 H         -11.5496   27.7066    9.2144 H         1 TMY301      0.0000 
@<TRIPOS>BOND
     1    2    1 ar   
     2    6    1 ar   
     3    7    1 1    
     4    3    2 ar   
     5   22    2 1    
     6    4    3 ar   
     7   23    3 1    
     8    5    4 ar   
     9   24    4 1    
    10    6    5 ar   
    11   28    5 1    
    12   13    6 1    
    13    8    7 1    
    14   29    7 1    
    15   30    7 1    
    16    9    8 2    
    17   10    8 1    
    18   11   10 1    
    19   12   11 1    
    20   31   11 1    
    21   32   11 1    
    22   45   12 1    
    23   46   12 1    
    24   47   12 1    
    25   14   13 1    
    26   21   13 2    
    27   15   14 1    
    28   33   14 1    
    29   34   14 1    
    30   16   15 1    
    31   35   15 1    
    32   36   15 1    
    33   17   16 1    
    34   37   16 1    
    35   38   16 1    
    36   18   17 1    
    37   39   17 1    
    38   40   17 1    
    39   19   18 1    
    40   41   18 1    
    41   42   18 1    
    42   20   19 1    
    43   43   19 1    
    44   44   19 1    
    45   48   20 1    
    46   49   20 1    
    47   50   20 1    
    48   25   22 1    
    49   26   23 1    
    50   27   24 1    
    51   51   25 1    
    52   52   25 1    
    53   53   25 1    
    54   54   26 1    
    55   55   26 1    
    56   56   26 1    
    57   57   27 1    
    58   58   27 1    
    59   59   27 1    
@<TRIPOS>SUBSTRUCTURE
     1 TMY301      1 GROUP   
@<TRIPOS>SET

