#    Name: 3m8q_DJZ_1_INTS_M
#    Modification time : Mon Mar 24 22:51:23 2014

@<TRIPOS>MOLECULE
3m8q_DJZ_1_INTS_M
  102     0     9     0     0
SMALL
NO_CHARGES


@<TRIPOS>ATOM
      1 CA         45.8395   61.6935   13.0880 C.3       3 GLC5        0.0000 
      2 CA         47.4070   61.1020   13.6790 C.3       9 GLL5        0.0000 
      3 CA         44.2720   62.2850   12.4970 C.3       6 GLP5        0.0000 
      4 CA         49.6675   61.0730   15.1285 C.3       3 GLC5        0.0000 
      5 CA         49.2650   62.5910   14.1000 C.3       9 GLL5        0.0000 
      6 CA         50.0700   59.5550   16.1570 C.3       6 GLP5        0.0000 
      7 CA         49.2145   64.0815   12.7945 C.3       3 GLC5        0.0000 
      8 CA         49.1640   65.5720   11.4890 C.3       6 GLP5        0.0000 
      9 CA         47.4170   63.4310   13.7235 C.3       3 GLC5        0.0000 
     10 CA         45.5690   64.2710   13.3470 C.3       6 GLP5        0.0000 
     11 CA         49.2055   67.7380   18.2485 C.3       3 GLC5        0.0000 
     12 CA         48.7900   65.6280   18.6130 C.3       9 GLL5        0.0000 
     13 CA         49.6210   69.8480   17.8840 C.3       6 GLP5        0.0000 
     14 CA         48.0080   59.2075   19.6805 C.3       3 GLC5        0.0000 
     15 CA         48.5800   61.3570   19.4720 C.3       9 GLL5        0.0000 
     16 CA         47.4360   57.0580   19.8890 C.3       6 GLP5        0.0000 
     17 CA         49.3250   60.4560   17.8145 C.3       3 GLC5        0.0000 
     18 CA         47.1130   61.4530   20.4565 C.3       3 GLC5        0.0000 
     19 CA         45.6460   61.5490   21.4410 C.3       6 GLP5        0.0000 
     20 CA         49.0550   60.7245   21.0730 C.3       3 GLC5        0.0000 
     21 CA         49.5300   60.0920   22.6740 C.3       6 GLP5        0.0000 
     22 CA         46.3900   64.9015   14.9770 C.3       3 GLC5        0.0000 
     23 CA         47.2110   65.5320   16.6070 C.3       9 GLL5        0.0000 
     24 CA         46.4975   65.7020   18.4705 C.3       3 GLC5        0.0000 
     25 CA         45.7840   65.8720   20.3340 C.3       6 GLP5        0.0000 
     26 CA         45.5525   67.0075   16.6565 C.3       3 GLC5        0.0000 
     27 CA         43.8940   68.4830   16.7060 C.3       6 GLP5        0.0000 
     28 CA         46.7130   66.8920   15.1565 C.3       3 GLC5        0.0000 
     29 CA         46.2150   68.2520   13.7060 C.3       6 GLP5        0.0000 
     30 CA         48.7810   66.2245   21.4000 C.3       3 GLC5        0.0000 
     31 CA         50.2820   65.9280   20.5330 C.3       9 GLL5        0.0000 
     32 CA         47.2800   66.5210   22.2670 C.3       6 GLP5        0.0000 
     33 CA         51.2380   65.0895   22.0935 C.3       3 GLC5        0.0000 
     34 CA         52.1940   64.2510   23.6540 C.3       6 GLP5        0.0000 
     35 O          50.9750   63.0010   12.4705 O.2       1 ALC1        0.0000 
     36 O          50.4310   63.2040   13.7160 O.2       7 ALL1        0.0000 
     37 O          51.5190   62.7980   11.2250 O.2       4 ALP1        0.0000 
     38 CA         53.0500   63.9885   11.9220 C.3       3 GLC5        0.0000 
     39 CA         52.7380   63.6800   14.1190 C.3       9 GLL5        0.0000 
     40 CA         53.3620   64.2970    9.7250 C.3       6 GLP5        0.0000 
     41 CA         54.4740   62.9330   14.6955 C.3       3 GLC5        0.0000 
     42 CA         56.2100   62.1860   15.2720 C.3       6 GLP5        0.0000 
     43 CA         52.8075   62.6400   16.0600 C.3       3 GLC5        0.0000 
     44 CA         53.5630   64.4980   15.0630 C.3       9 GLL5        0.0000 
     45 CA         52.0520   60.7820   17.0570 C.3       6 GLP5        0.0000 
     46 CA         53.4355   64.2165   17.1200 C.3       3 GLC5        0.0000 
     47 CA         53.3080   63.9350   19.1770 C.3       6 GLP5        0.0000 
     48 CA         55.1820   63.9695   15.1565 C.3       3 GLC5        0.0000 
     49 CA         56.8010   63.4410   15.2500 C.3       6 GLP5        0.0000 
     50 CA         52.5925   64.9815   17.4385 C.3       3 GLC5        0.0000 
     51 CA         51.8770   66.0280   15.7000 C.3       9 GLL5        0.0000 
     52 CA         54.7600   66.0560   17.6390 C.3       3 GLC5        0.0000 
     53 CA         54.2340   66.6740   15.7090 C.3       9 GLL5        0.0000 
     54 CA         55.2860   65.4380   19.5690 C.3       6 GLP5        0.0000 
     55 CA         55.5175   65.0575   15.4795 C.3       3 GLC5        0.0000 
     56 CA         56.6425   68.5330   16.9360 C.3       3 GLC5        0.0000 
     57 CA         54.5230   69.0390   16.5670 C.3       9 GLL5        0.0000 
     58 CA         58.7620   68.0270   17.3050 C.3       6 GLP5        0.0000 
     59 CA         55.8175   71.1435   14.7525 C.3       3 GLC5        0.0000 
     60 CA         53.6670   71.0650   15.2100 C.3       9 GLL5        0.0000 
     61 CA         57.9680   71.2220   14.2950 C.3       6 GLP5        0.0000 
     62 CA         51.5270   71.3500   13.2300 C.3       3 GLC5        0.0000 
     63 CA         53.1770   70.1840   14.1280 C.3       9 GLL5        0.0000 
     64 CA         49.8770   72.5160   12.3320 C.3       6 GLP5        0.0000 
     65 N          50.7525   72.5750   14.8020 N.am      2 SEC2        0.0000 
     66 N          52.0440   73.1550   14.9050 N.am      8 SEL2        0.0000 
     67 N          49.4610   71.9950   14.6990 N.am      5 SEP2        0.0000 
     68 CA         53.5700   72.7245   17.8125 C.3       3 GLC5        0.0000 
     69 CA         54.4740   73.4980   16.5370 C.3       9 GLL5        0.0000 
     70 CA         52.6660   71.9510   19.0880 C.3       6 GLP5        0.0000 
     71 CA         46.3803   63.0565   14.4007 C.3       3 GLC5        0.0000 
     72 CA         47.5350   62.2890   15.8800 C.3       9 GLL5        0.0000 
     73 CA         48.6846   60.5135   15.3619 C.3       3 GLC5        0.0000 
     74 CA         46.7847   59.1668   14.8915 C.3       3 GLC5        0.0000 
     75 CA         46.8480   61.3950   15.0290 C.3       9 GLL5        0.0000 
     76 CA         46.4420   57.0850   15.4290 C.3       6 GLP5        0.0000 
     77 CA         46.3785   62.6178   18.9082 C.3       3 GLC5        0.0000 
     78 CA         47.8630   63.3860   18.0110 C.3       9 GLL5        0.0000 
     79 CA         44.5310   62.1340   19.2460 C.3       6 GLP5        0.0000 
     80 CA         46.8475   64.9843   19.1092 C.3       3 GLC5        0.0000 
     81 CA         47.4642   65.6008   19.7538 C.3       3 GLC5        0.0000 
     82 CA         47.3858   64.5385   19.9490 C.3       3 GLC5        0.0000 
     83 CA         49.3860   63.5930   19.9980 C.3       9 GLL5        0.0000 
     84 CA         51.5851   64.5275   19.6883 C.3       3 GLC5        0.0000 
     85 CA         49.4990   65.0310   19.7340 C.3       9 GLL5        0.0000 
     86 CA         52.0400   61.8942   14.5280 C.3       3 GLC5        0.0000 
     87 CA         51.3200   63.7750   14.6750 C.3       9 GLL5        0.0000 
     88 CA         52.0510   60.0610   14.6590 C.3       6 GLP5        0.0000 
     89 CA         50.1090   65.0433   13.1365 C.3       3 GLC5        0.0000 
     90 CA         50.6753   67.3290   15.4273 C.3       3 GLC5        0.0000 
     91 CA         50.7880   65.2540   14.8930 C.3       9 GLL5        0.0000 
     92 CA         50.0180   69.0170   15.5580 C.3       6 GLP5        0.0000 
     93 CA         55.7348   68.1968   14.7088 C.3       3 GLC5        0.0000 
     94 CA         54.0390   68.1930   15.5180 C.3       9 GLL5        0.0000 
     95 CA         57.3330   68.9600   13.8040 C.3       6 GLP5        0.0000 
     96 CA         55.8780   69.3487   15.1378 C.3       3 GLC5        0.0000 
     97 CA         51.9645   70.5023   16.1180 C.3       3 GLC5        0.0000 
     98 CA         54.3230   70.4360   16.3760 C.3       9 GLL5        0.0000 
     99 CA         49.9340   70.2540   16.4430 C.3       6 GLP5        0.0000 
    100 CA         51.7289   69.1767   15.0366 C.3       3 GLC5        0.0000 
    101 CA         55.3023   69.2223   14.0058 C.3       3 GLC5        0.0000 
    102 CA         53.3660   68.7850   14.2870 C.3       9 GLL5        0.0000 
@<TRIPOS>BOND
@<TRIPOS>SUBSTRUCTURE
     1 ALC1       35 GROUP        1 X    ALC  0     ROOT ALC X 1
     2 SEC2       65 GROUP        1 X    SEC  0     **** SEC X 2
     3 GLC5        1 GROUP        1 X    GLC  0     **** GLC X 6
     4 ALP1       37 GROUP        1 Y    ALP  0     ROOT ALP Y 8
     5 SEP2       67 GROUP        1 Y    SEP  0     **** SEP Y 9
     6 GLP5        3 GROUP        1 Y    GLP  0     **** GLP Y 13
     7 ALL1       36 GROUP        1 Z    ALL  0     ROOT ALL Z 15
     8 SEL2       66 GROUP        1 Z    SEL  0     **** SEL Z 16
     9 GLL5        2 GROUP        1 Z    GLL  0     **** GLL Z 20
@<TRIPOS>SET

