#    Name: 3m8q_DJZ_1_ligand
#    Modification time : Mon Mar 24 22:51:23 2014

@<TRIPOS>MOLECULE
3m8q_DJZ_1_ligand
   65    68     1     0     0
SMALL
NO_CHARGES


@<TRIPOS>ATOM
      1 O1         47.0640   62.6010   17.1410 O.3       1 DJZ562      0.0000 
      2 C2         47.5350   62.2890   15.8800 C.ar      1 DJZ562      0.0000 
      3 N3         48.7320   62.8470   15.3710 N.ar      1 DJZ562      0.0000 
      4 N4         48.5990   61.6920   13.2100 N.ar      1 DJZ562      0.0000 
      5 C5         47.4070   61.1020   13.6790 C.ar      1 DJZ562      0.0000 
      6 C6         49.2650   62.5910   14.1000 C.ar      1 DJZ562      0.0000 
      7 C7         46.8480   61.3950   15.0290 C.ar      1 DJZ562      0.0000 
      8 C8         47.8630   63.3860   18.0110 C.ar      1 DJZ562      0.0000 
      9 C9         47.9590   64.8070   17.7580 C.ar      1 DJZ562      0.0000 
     10 C10        48.7900   65.6280   18.6130 C.ar      1 DJZ562      0.0000 
     11 C11        49.4990   65.0310   19.7340 C.ar      1 DJZ562      0.0000 
     12 C12        49.3860   63.5930   19.9980 C.ar      1 DJZ562      0.0000 
     13 C13        48.5890   62.8170   19.1300 C.ar      1 DJZ562      0.0000 
     14 C14        48.5800   61.3570   19.4720 C.3       1 DJZ562      0.0000 
     15 C15        47.2110   65.5320   16.6070 C.3       1 DJZ562      0.0000 
     16 C16        50.2820   65.9280   20.5330 C.1       1 DJZ562      0.0000 
     17 N17        50.4310   63.2040   13.7160 N.pl3     1 DJZ562      0.0000 
     18 C18        51.3200   63.7750   14.6750 C.3       1 DJZ562      0.0000 
     19 C19        52.7380   63.6800   14.1190 C.3       1 DJZ562      0.0000 
     20 C20        53.5630   64.4980   15.0630 C.3       1 DJZ562      0.0000 
     21 N21        53.1900   65.9110   15.0240 N.4       1 DJZ562      0.0000 
     22 C22        51.8770   66.0280   15.7000 C.3       1 DJZ562      0.0000 
     23 C23        50.7880   65.2540   14.8930 C.3       1 DJZ562      0.0000 
     24 N24        50.9040   66.6410   21.1680 N.1       1 DJZ562      0.0000 
     25 C25        54.2340   66.6740   15.7090 C.3       1 DJZ562      0.0000 
     26 C26        54.0390   68.1930   15.5180 C.ar      1 DJZ562      0.0000 
     27 C27        54.5230   69.0390   16.5670 C.ar      1 DJZ562      0.0000 
     28 C28        54.3230   70.4360   16.3760 C.ar      1 DJZ562      0.0000 
     29 C29        53.6670   71.0650   15.2100 C.ar      1 DJZ562      0.0000 
     30 C30        53.1770   70.1840   14.1280 C.ar      1 DJZ562      0.0000 
     31 C31        53.3660   68.7850   14.2870 C.ar      1 DJZ562      0.0000 
     32 S32        53.4770   72.9010   15.1240 S.o2      1 DJZ562      0.0000 
     33 O33        54.2460   73.0980   13.9170 O.2       1 DJZ562      0.0000 
     34 O34        52.0440   73.1550   14.9050 O.2       1 DJZ562      0.0000 
     35 C35        54.4740   73.4980   16.5370 C.3       1 DJZ562      0.0000 
     36 H          46.8807   60.4423   13.0942 H         1 DJZ562      0.0000 
     37 H          45.9928   60.9456   15.2975 H         1 DJZ562      0.0000 
     38 H          48.8796   66.6170   18.4334 H         1 DJZ562      0.0000 
     39 H          49.8701   63.1978   20.7778 H         1 DJZ562      0.0000 
     40 H          50.6922   63.2657   12.7163 H         1 DJZ562      0.0000 
     41 H          51.2497   63.2656   15.6075 H         1 DJZ562      0.0000 
     42 H          52.7624   64.1011   13.1397 H         1 DJZ562      0.0000 
     43 H          53.0547   62.6619   14.1313 H         1 DJZ562      0.0000 
     44 H          54.6283   64.3772   14.8016 H         1 DJZ562      0.0000 
     45 H          53.4375   64.0982   16.0839 H         1 DJZ562      0.0000 
     46 H          53.1006   66.2248   14.0033 H         1 DJZ562      0.0000 
     47 H          51.5648   67.0676   15.7670 H         1 DJZ562      0.0000 
     48 H          51.9147   65.6024   16.7001 H         1 DJZ562      0.0000 
     49 H          49.8865   65.2113   15.4574 H         1 DJZ562      0.0000 
     50 H          50.6549   65.7112   13.9410 H         1 DJZ562      0.0000 
     51 H          55.2279   66.4127   15.3247 H         1 DJZ562      0.0000 
     52 H          54.2281   66.4682   16.7867 H         1 DJZ562      0.0000 
     53 H          54.9656   68.6743   17.3682 H         1 DJZ562      0.0000 
     54 H          54.6653   71.0965   17.1193 H         1 DJZ562      0.0000 
     55 H          52.7376   70.5804   13.3340 H         1 DJZ562      0.0000 
     56 H          53.0565   68.1217   13.5791 H         1 DJZ562      0.0000 
     57 H          48.9393   60.7982   18.7246 H         1 DJZ562      0.0000 
     58 H          49.1376   61.1611   20.2787 H         1 DJZ562      0.0000 
     59 H          47.6564   61.0269   19.6669 H         1 DJZ562      0.0000 
     60 H          47.4077   66.5124   16.5958 H         1 DJZ562      0.0000 
     61 H          47.4692   65.1710   15.7109 H         1 DJZ562      0.0000 
     62 H          46.2192   65.4330   16.6882 H         1 DJZ562      0.0000 
     63 H          55.4324   73.2240   16.4574 H         1 DJZ562      0.0000 
     64 H          54.4592   74.4954   16.6069 H         1 DJZ562      0.0000 
     65 H          54.1376   73.1381   17.4073 H         1 DJZ562      0.0000 
@<TRIPOS>BOND
     1    2    1 1    
     2    8    1 1    
     3    3    2 ar   
     4    7    2 ar   
     5    6    3 ar   
     6    5    4 ar   
     7    6    4 ar   
     8    7    5 ar   
     9   36    5 1    
    10   17    6 1    
    11   37    7 1    
    12    9    8 ar   
    13   13    8 ar   
    14   10    9 ar   
    15   15    9 1    
    16   11   10 ar   
    17   38   10 1    
    18   12   11 ar   
    19   16   11 1    
    20   13   12 ar   
    21   39   12 1    
    22   14   13 1    
    23   57   14 1    
    24   58   14 1    
    25   59   14 1    
    26   60   15 1    
    27   61   15 1    
    28   62   15 1    
    29   24   16 3    
    30   18   17 1    
    31   40   17 1    
    32   19   18 1    
    33   23   18 1    
    34   41   18 1    
    35   20   19 1    
    36   42   19 1    
    37   43   19 1    
    38   21   20 1    
    39   44   20 1    
    40   45   20 1    
    41   22   21 1    
    42   25   21 1    
    43   46   21 1    
    44   23   22 1    
    45   47   22 1    
    46   48   22 1    
    47   49   23 1    
    48   50   23 1    
    49   26   25 1    
    50   51   25 1    
    51   52   25 1    
    52   27   26 ar   
    53   31   26 ar   
    54   28   27 ar   
    55   53   27 1    
    56   29   28 ar   
    57   54   28 1    
    58   30   29 ar   
    59   32   29 1    
    60   31   30 ar   
    61   55   30 1    
    62   56   31 1    
    63   33   32 2    
    64   34   32 2    
    65   35   32 1    
    66   63   35 1    
    67   64   35 1    
    68   65   35 1    
@<TRIPOS>SUBSTRUCTURE
     1 DJZ562      1 GROUP   
@<TRIPOS>SET

