#    Name: 1pjc_NAD_1_INTS_M
#    Modification time : Mon Mar 24 21:40:11 2014

@<TRIPOS>MOLECULE
1pjc_NAD_1_INTS_M
   91     0     9     0     0
SMALL
NO_CHARGES


@<TRIPOS>ATOM
      1 N          10.4660   10.3165   19.3035 N.am      2 SEC2        0.0000 
      2 N          10.8480   10.5270   20.6650 N.am      8 SEL2        0.0000 
      3 N          10.0840   10.1060   17.9420 N.am      5 SEP2        0.0000 
      4 CA         16.7605   10.6200   19.8725 C.3       3 GLC5        0.0000 
      5 CA         14.7940    9.8410   20.4840 C.3       9 GLL5        0.0000 
      6 CA         18.7270   11.3990   19.2610 C.3       6 GLP5        0.0000 
      7 CA         15.4310   11.2565   21.6555 C.3       3 GLC5        0.0000 
      8 CA         16.0680   12.6720   22.8270 C.3       6 GLP5        0.0000 
      9 CA         16.2515    8.2570   18.3165 C.3       3 GLC5        0.0000 
     10 CA         15.1730    8.4720   20.1790 C.3       9 GLL5        0.0000 
     11 CA         17.3300    8.0420   16.4540 C.3       6 GLP5        0.0000 
     12 CA         13.2590    7.8185   19.6100 C.3       3 GLC5        0.0000 
     13 CA         14.7420    7.2520   21.1120 C.3       9 GLL5        0.0000 
     14 CA         11.7760    8.3850   18.1080 C.3       6 GLP5        0.0000 
     15 O          14.7300    5.6570   19.3865 O.2       1 ALC1        0.0000 
     16 O          13.9310    6.3010   20.2540 O.2       7 ALL1        0.0000 
     17 O          15.5290    5.0130   18.5190 O.2       4 ALP1        0.0000 
     18 O          15.7805    5.1030   20.1740 O.2       1 ALC1        0.0000 
     19 O          16.0320    5.1930   21.8290 O.2       7 ALL1        0.0000 
     20 O          16.2150    4.3395   20.8060 O.2       1 ALC1        0.0000 
     21 O          16.3980    3.4860   19.7830 O.2       4 ALP1        0.0000 
     22 CA         17.1435    7.5495   18.4895 C.3       3 GLC5        0.0000 
     23 CA         16.9570    7.0570   20.5250 C.3       9 GLL5        0.0000 
     24 CA         20.4945    8.5260   20.8690 C.3       3 GLC5        0.0000 
     25 CA         20.5000    6.6090   20.9470 C.3       9 GLL5        0.0000 
     26 CA         20.4890   10.4430   20.7910 C.3       6 GLP5        0.0000 
     27 CA         21.9860    4.4095   19.0220 C.3       3 GLC5        0.0000 
     28 CA         21.7540    6.0680   20.3940 C.3       9 GLL5        0.0000 
     29 CA         22.2180    2.7510   17.6500 C.3       6 GLP5        0.0000 
     30 CA         21.0630    7.9200   19.3770 C.3       3 GLC5        0.0000 
     31 CA         20.3720    9.7720   18.3600 C.3       6 GLP5        0.0000 
     32 CA         22.7520    7.3820   19.1900 C.3       3 GLC5        0.0000 
     33 CA         23.7500    8.6960   17.9860 C.3       6 GLP5        0.0000 
     34 N          22.3435    4.7570   18.2865 N.am      2 SEC2        0.0000 
     35 N          21.6130    5.6790   19.0690 N.am      8 SEL2        0.0000 
     36 N          23.0740    3.8350   17.5040 N.am      5 SEP2        0.0000 
     37 CA         18.9340    6.8785   17.3975 C.3       3 GLC5        0.0000 
     38 CA         20.5380    5.7150   18.3410 C.3       9 GLL5        0.0000 
     39 CA         19.3320    4.4615   17.8180 C.3       3 GLC5        0.0000 
     40 CA         18.1260    3.2080   17.2950 C.3       6 GLP5        0.0000 
     41 CA         20.0140    4.6040   20.1780 C.3       3 GLC5        0.0000 
     42 CA         19.4900    3.4930   22.0150 C.3       6 GLP5        0.0000 
     43 CA         21.3780    4.2330   17.9955 C.3       3 GLC5        0.0000 
     44 CA         20.4550    7.7435   18.3505 C.3       3 GLC5        0.0000 
     45 CA         22.1440    7.2055   18.1635 C.3       3 GLC5        0.0000 
     46 CA         18.3480    7.3380   18.3000 C.3       3 GLC5        0.0000 
     47 CA         19.3660    6.6340   20.1460 C.3       9 GLL5        0.0000 
     48 CA         19.8690    8.2030   19.2530 C.3       3 GLC5        0.0000 
     49 N          11.6485   12.4550   17.5240 N.am      2 SEC2        0.0000 
     50 N          12.4680   12.4360   18.7770 N.am      8 SEL2        0.0000 
     51 N          10.8290   12.4740   16.2710 N.am      5 SEP2        0.0000 
     52 N          10.3985   15.2905   20.0335 N.am      2 SEC2        0.0000 
     53 N          11.0380   13.8660   20.4640 N.am      8 SEL2        0.0000 
     54 N           9.7590   16.7150   19.6030 N.am      5 SEP2        0.0000 
     55 CA         13.4220   14.6770   17.9450 C.3       3 GLC5        0.0000 
     56 CA         14.7530   14.1430   19.1870 C.3       9 GLL5        0.0000 
     57 CA         12.0910   15.2110   16.7030 C.3       6 GLP5        0.0000 
     58 O          17.9765   14.6360   20.8485 O.2       1 ALC1        0.0000 
     59 O          17.3030   15.8670   21.0880 O.2       7 ALL1        0.0000 
     60 O          18.6500   13.4050   20.6090 O.2       4 ALP1        0.0000 
     61 CA         15.3055   17.7815   17.3720 C.3       3 GLC5        0.0000 
     62 CA         15.4010   17.5660   19.4130 C.3       9 GLL5        0.0000 
     63 CA         15.2100   17.9970   15.3310 C.3       6 GLP5        0.0000 
     64 CA         17.2785   17.5560   18.9230 C.3       3 GLC5        0.0000 
     65 CA         19.1560   17.5460   18.4330 C.3       6 GLP5        0.0000 
     66 N          13.2190   23.8480   15.4240 N.am      2 SEC2        0.0000 
     67 N          13.3630   22.8160   16.3710 N.am      8 SEL2        0.0000 
     68 N          13.0750   24.8800   14.4770 N.am      5 SEP2        0.0000 
     69 O          16.4035   20.6720   16.8775 O.2       1 ALC1        0.0000 
     70 O          15.5880   22.1590   16.5310 O.2       7 ALL1        0.0000 
     71 O          17.2190   19.1850   17.2240 O.2       4 ALP1        0.0000 
     72 CA         10.4780   18.3660   18.0815 C.3       3 GLC5        0.0000 
     73 CA         12.0780   19.3020   18.6430 C.3       9 GLL5        0.0000 
     74 CA          8.8780   17.4300   17.5200 C.3       6 GLP5        0.0000 
     75 CA         12.5760   16.8005   17.8805 C.3       3 GLC5        0.0000 
     76 CA         13.0610   18.3900   19.0580 C.3       9 GLL5        0.0000 
     77 CA         14.1355   18.1935   17.1945 C.3       3 GLC5        0.0000 
     78 CA         13.3797    8.7707   19.2197 C.3       3 GLC5        0.0000 
     79 CA         19.8682    4.9896   21.2116 C.3       3 GLC5        0.0000 
     80 CA         16.2948   13.7772   17.6720 C.3       3 GLC5        0.0000 
     81 CA         17.3250   12.9150   16.0290 C.3       6 GLP5        0.0000 
     82 CA         15.6663   13.6558   21.0710 C.3       3 GLC5        0.0000 
     83 CA         17.5027   16.4935   19.3048 C.3       3 GLC5        0.0000 
     84 CA         15.9230   15.7460   20.9100 C.3       9 GLL5        0.0000 
     85 CA         15.4375   15.6368   22.3625 C.3       3 GLC5        0.0000 
     86 CA         15.3350   14.8320   23.8170 C.3       6 GLP5        0.0000 
     87 CA         14.7447   19.1202   16.5652 C.3       3 GLC5        0.0000 
     88 CA         14.8170   19.8020   17.9890 C.3       9 GLL5        0.0000 
     89 CA         12.0584   19.7052   16.3513 C.3       3 GLC5        0.0000 
     90 CA         13.7420   20.6850   17.6100 C.3       9 GLL5        0.0000 
     91 CA         11.5510   19.4610   14.5070 C.3       6 GLP5        0.0000 
@<TRIPOS>BOND
@<TRIPOS>SUBSTRUCTURE
     1 ALC1       15 GROUP        1 X    ALC  0     ROOT ALC X 1
     2 SEC2        1 GROUP        1 X    SEC  0     **** SEC X 2
     3 GLC5        4 GROUP        1 X    GLC  0     **** GLC X 6
     4 ALP1       17 GROUP        1 Y    ALP  0     ROOT ALP Y 8
     5 SEP2        3 GROUP        1 Y    SEP  0     **** SEP Y 9
     6 GLP5        6 GROUP        1 Y    GLP  0     **** GLP Y 13
     7 ALL1       16 GROUP        1 Z    ALL  0     ROOT ALL Z 15
     8 SEL2        2 GROUP        1 Z    SEL  0     **** SEL Z 16
     9 GLL5        5 GROUP        1 Z    GLL  0     **** GLL Z 20
@<TRIPOS>SET

