#    Name: 1pjc_NAD_1_ligand
#    Modification time : Mon Mar 24 21:40:11 2014

@<TRIPOS>MOLECULE
1pjc_NAD_1_ligand
   69    73     1     0     0
SMALL
NO_CHARGES


@<TRIPOS>ATOM
      1 PA         12.2990   10.6720   21.2190 P.3       1 NAD500      0.0000 
      2 O1A        12.5660   10.1120   22.6110 O.co2     1 NAD500      0.0000 
      3 O2A        10.8480   10.5270   20.6650 O.co2     1 NAD500      0.0000 
      4 O5B        13.3810   10.0310   20.1360 O.3       1 NAD500      0.0000 
      5 C5B        14.7940    9.8410   20.4840 C.3       1 NAD500      0.0000 
      6 C4B        15.1730    8.4720   20.1790 C.3       1 NAD500      0.0000 
      7 O4B        16.6140    8.3760   20.2000 O.3       1 NAD500      0.0000 
      8 C3B        14.7420    7.2520   21.1120 C.3       1 NAD500      0.0000 
      9 O3B        13.9310    6.3010   20.2540 O.3       1 NAD500      0.0000 
     10 C2B        16.0410    6.5700   21.6570 C.3       1 NAD500      0.0000 
     11 O2B        16.0320    5.1930   21.8290 O.3       1 NAD500      0.0000 
     12 C1B        16.9570    7.0570   20.5250 C.3       1 NAD500      0.0000 
     13 N9A        18.3270    7.1080   20.9040 N.pl3     1 NAD500      0.0000 
     14 C8A        18.9380    7.4130   22.1240 C.2       1 NAD500      0.0000 
     15 N7A        20.2100    7.1340   22.1580 N.2       1 NAD500      0.0000 
     16 C5A        20.5000    6.6090   20.9470 C.ar      1 NAD500      0.0000 
     17 C6A        21.7540    6.0680   20.3940 C.ar      1 NAD500      0.0000 
     18 N6A        22.9210    6.0170   21.0140 N.pl3     1 NAD500      0.0000 
     19 N1A        21.6130    5.6790   19.0690 N.ar      1 NAD500      0.0000 
     20 C2A        20.5380    5.7150   18.3410 C.ar      1 NAD500      0.0000 
     21 N3A        19.3590    6.1640   18.8340 N.ar      1 NAD500      0.0000 
     22 C4A        19.3660    6.6340   20.1460 C.ar      1 NAD500      0.0000 
     23 O3         12.7190   12.1720   21.1770 O.3       1 NAD500      0.0000 
     24 PN         12.3180   13.2570   20.0250 P.3       1 NAD500      0.0000 
     25 O1N        12.4680   12.4360   18.7770 O.co2     1 NAD500      0.0000 
     26 O2N        11.0380   13.8660   20.4640 O.co2     1 NAD500      0.0000 
     27 O5D        13.5530   14.3250   20.0420 O.3       1 NAD500      0.0000 
     28 C5D        14.7530   14.1430   19.1870 C.3       1 NAD500      0.0000 
     29 C4D        15.7760   15.1360   19.4430 C.3       1 NAD500      0.0000 
     30 O4D        15.3950   16.3820   18.6290 O.3       1 NAD500      0.0000 
     31 C3D        15.9230   15.7460   20.9100 C.3       1 NAD500      0.0000 
     32 O3D        17.3030   15.8670   21.0880 O.3       1 NAD500      0.0000 
     33 C2D        15.1570   17.1370   20.9060 C.3       1 NAD500      0.0000 
     34 O2D        15.7010   18.0500   21.8070 O.3       1 NAD500      0.0000 
     35 C1D        15.4010   17.5660   19.4130 C.3       1 NAD500      0.0000 
     36 N1N        14.3810   18.6340   18.7500 N.pl3     1 NAD500      0.0000 
     37 C2N        14.8170   19.8020   17.9890 C.ar      1 NAD500      0.0000 
     38 C3N        13.7420   20.6850   17.6100 C.ar      1 NAD500      0.0000 
     39 C7N        14.2450   22.0030   16.7660 C.2       1 NAD500      0.0000 
     40 O7N        13.3630   22.8160   16.3710 O.2       1 NAD500      0.0000 
     41 N7N        15.5880   22.1590   16.5310 N.am      1 NAD500      0.0000 
     42 C4N        12.3650   20.5090   17.8860 C.ar      1 NAD500      0.0000 
     43 C5N        12.0780   19.3020   18.6430 C.ar      1 NAD500      0.0000 
     44 C6N        13.0610   18.3900   19.0580 C.ar      1 NAD500      0.0000 
     45 H          14.9434   10.0486   21.5495 H         1 NAD500      0.0000 
     46 H          15.4127   10.5429   19.9138 H         1 NAD500      0.0000 
     47 H          14.8587    8.1827   19.1605 H         1 NAD500      0.0000 
     48 H          14.1738    7.6356   21.9043 H         1 NAD500      0.0000 
     49 H          16.3257    7.1615   22.5183 H         1 NAD500      0.0000 
     50 H          16.8157    6.4098   19.6769 H         1 NAD500      0.0000 
     51 H          18.4039    7.8083   22.8725 H         1 NAD500      0.0000 
     52 H          20.5587    5.3896   17.3310 H         1 NAD500      0.0000 
     53 H          14.4419   14.1780   18.1219 H         1 NAD500      0.0000 
     54 H          15.1584   13.1227   19.3520 H         1 NAD500      0.0000 
     55 H          16.7504   14.8544   19.1132 H         1 NAD500      0.0000 
     56 H          15.4417   15.0845   21.5602 H         1 NAD500      0.0000 
     57 H          14.1342   16.9170   20.9981 H         1 NAD500      0.0000 
     58 H          16.4006   18.0245   19.3649 H         1 NAD500      0.0000 
     59 H          15.7411   19.9596   17.7654 H         1 NAD500      0.0000 
     60 H          16.1865   21.4557   16.9147 H         1 NAD500      0.0000 
     61 H          15.8508   22.9623   15.9966 H         1 NAD500      0.0000 
     62 H          11.6693   21.1199   17.6072 H         1 NAD500      0.0000 
     63 H          11.0789   19.1212   18.8815 H         1 NAD500      0.0000 
     64 H          12.7872   17.5553   19.5838 H         1 NAD500      0.0000 
     65 H          14.5969    5.8706   19.6446 H         1 NAD500      0.0000 
     66 H          16.2222    4.8177   20.9218 H         1 NAD500      0.0000 
     67 H          23.4420    5.3157   20.5274 H         1 NAD500      0.0000 
     68 H          17.5992   14.9744   21.4280 H         1 NAD500      0.0000 
     69 H          15.9275   18.8533   21.2562 H         1 NAD500      0.0000 
@<TRIPOS>BOND
     1    2    1 ar   
     2    3    1 ar   
     3    4    1 1    
     4   23    1 1    
     5    5    4 1    
     6    6    5 1    
     7   45    5 1    
     8   46    5 1    
     9    7    6 1    
    10    8    6 1    
    11   47    6 1    
    12   12    7 1    
    13    9    8 1    
    14   10    8 1    
    15   48    8 1    
    16   65    9 1    
    17   11   10 1    
    18   12   10 1    
    19   49   10 1    
    20   66   11 1    
    21   13   12 1    
    22   50   12 1    
    23   14   13 1    
    24   22   13 1    
    25   15   14 2    
    26   51   14 1    
    27   16   15 1    
    28   17   16 ar   
    29   22   16 ar   
    30   18   17 1    
    31   19   17 ar   
    32   67   18 1    
    33   20   19 ar   
    34   21   20 ar   
    35   52   20 1    
    36   22   21 ar   
    37   24   23 1    
    38   25   24 ar   
    39   26   24 ar   
    40   27   24 1    
    41   28   27 1    
    42   29   28 1    
    43   53   28 1    
    44   54   28 1    
    45   30   29 1    
    46   31   29 1    
    47   55   29 1    
    48   35   30 1    
    49   32   31 1    
    50   33   31 1    
    51   56   31 1    
    52   68   32 1    
    53   34   33 1    
    54   35   33 1    
    55   57   33 1    
    56   69   34 1    
    57   36   35 1    
    58   58   35 1    
    59   37   36 ar   
    60   44   36 ar   
    61   38   37 ar   
    62   59   37 1    
    63   39   38 1    
    64   42   38 ar   
    65   40   39 2    
    66   41   39 am   
    67   60   41 1    
    68   61   41 1    
    69   43   42 ar   
    70   62   42 1    
    71   44   43 ar   
    72   63   43 1    
    73   64   44 1    
@<TRIPOS>SUBSTRUCTURE
     1 NAD500      1 GROUP   
@<TRIPOS>SET

