#    Name: 3tgy_ASC_1_INTS_M
#    Modification time : Mon Mar 24 20:05:23 2014

@<TRIPOS>MOLECULE
3tgy_ASC_1_INTS_M
   20     0     6     0     0
SMALL
NO_CHARGES


@<TRIPOS>ATOM
      1 CA          8.1225    6.0120   27.8980 C.3       2 GLC5        0.0000 
      2 CA          8.5370    4.6520   26.2170 C.3       6 GLL5        0.0000 
      3 CA          7.7080    7.3720   29.5790 C.3       4 GLP5        0.0000 
      4 N          12.1115    1.9075   21.4415 N.am      1 SEC2        0.0000 
      5 N          12.2460    2.3960   22.5870 N.am      5 SEL2        0.0000 
      6 N          11.9770    1.4190   20.2960 N.am      3 SEP2        0.0000 
      7 N          11.0560   -0.7735   23.0525 N.am      1 SEC2        0.0000 
      8 N          11.7400    0.0770   24.1560 N.am      5 SEL2        0.0000 
      9 N          10.3720   -1.6240   21.9490 N.am      3 SEP2        0.0000 
     10 CA         10.1427    1.1625   23.8818 C.3       2 GLC5        0.0000 
     11 CA         11.4740    1.3620   24.4800 C.3       6 GLL5        0.0000 
     12 CA          9.1310    0.7240   22.7600 C.3       4 GLP5        0.0000 
     13 CA          9.0693    6.1113   26.3528 C.3       2 GLC5        0.0000 
     14 CA          9.9060    4.0210   26.4220 C.3       6 GLL5        0.0000 
     15 CA          8.9170    7.8860   26.3860 C.3       4 GLP5        0.0000 
     16 CA          8.7559    2.9905   24.5349 C.3       2 GLC5        0.0000 
     17 CA          8.1790    1.8480   23.0530 C.3       4 GLP5        0.0000 
     18 CA         10.4559    5.4370   24.9019 C.3       2 GLC5        0.0000 
     19 CA         10.3510    3.2070   25.2110 C.3       6 GLL5        0.0000 
     20 CA         11.5790    6.7410   23.7870 C.3       4 GLP5        0.0000 
@<TRIPOS>BOND
@<TRIPOS>SUBSTRUCTURE
     1 SEC2        4 GROUP        1 X    SEC  0     ROOT SEC X 2
     2 GLC5        1 GROUP        1 X    GLC  0     **** GLC X 6
     3 SEP2        6 GROUP        1 Y    SEP  0     ROOT SEP Y 9
     4 GLP5        3 GROUP        1 Y    GLP  0     **** GLP Y 13
     5 SEL2        5 GROUP        1 Z    SEL  0     ROOT SEL Z 16
     6 GLL5        2 GROUP        1 Z    GLL  0     **** GLL Z 20
@<TRIPOS>SET

