#    Name: 3tgy_ASC_1_ligand
#    Modification time : Mon Mar 24 20:05:23 2014

@<TRIPOS>MOLECULE
3tgy_ASC_1_ligand
   20    20     1     0     0
SMALL
NO_CHARGES


@<TRIPOS>ATOM
      1 C1         11.8850    2.5330   23.7370 C.2       1 ASC800      0.0000 
      2 C2         11.4740    1.3620   24.4800 C.2       1 ASC800      0.0000 
      3 C3         10.8350    1.8400   25.5270 C.2       1 ASC800      0.0000 
      4 C4         10.3510    3.2070   25.2110 C.3       1 ASC800      0.0000 
      5 C5          9.9060    4.0210   26.4220 C.3       1 ASC800      0.0000 
      6 C6          8.5370    4.6520   26.2170 C.3       1 ASC800      0.0000 
      7 O1         12.2460    2.3960   22.5870 O.2       1 ASC800      0.0000 
      8 O2         11.7400    0.0770   24.1560 O.3       1 ASC800      0.0000 
      9 O3         10.5800    1.2080   26.6630 O.3       1 ASC800      0.0000 
     10 O4         11.3240    3.6400   24.3220 O.3       1 ASC800      0.0000 
     11 O5         10.9060    4.8540   26.9460 O.3       1 ASC800      0.0000 
     12 O6          7.3960    3.8170   26.4160 O.3       1 ASC800      0.0000 
     13 H           9.3986    2.9983   24.5912 H         1 ASC800      0.0000 
     14 H           9.7009    3.1904   27.2264 H         1 ASC800      0.0000 
     15 H           8.5298    5.0946   25.1781 H         1 ASC800      0.0000 
     16 H           8.4880    5.5592   26.8876 H         1 ASC800      0.0000 
     17 H          12.7035    0.0719   23.8882 H         1 ASC800      0.0000 
     18 H          11.4436    0.7717   26.9158 H         1 ASC800      0.0000 
     19 H          11.7432    4.3085   26.9081 H         1 ASC800      0.0000 
     20 H           7.7488    2.8823   26.3731 H         1 ASC800      0.0000 
@<TRIPOS>BOND
     1    2    1 1    
     2    7    1 2    
     3   10    1 1    
     4    3    2 2    
     5    8    2 1    
     6    4    3 1    
     7    9    3 1    
     8    5    4 1    
     9   10    4 1    
    10   13    4 1    
    11    6    5 1    
    12   11    5 1    
    13   14    5 1    
    14   12    6 1    
    15   15    6 1    
    16   16    6 1    
    17   17    8 1    
    18   18    9 1    
    19   19   11 1    
    20   20   12 1    
@<TRIPOS>SUBSTRUCTURE
     1 ASC800      1 GROUP   
@<TRIPOS>SET

