#    Name: 3dj6_AK6_1_INTS_M
#    Modification time : Mon Mar 24 23:29:25 2014

@<TRIPOS>MOLECULE
3dj6_AK6_1_INTS_M
  100     0     9     0     0
SMALL
NO_CHARGES


@<TRIPOS>ATOM
      1 CA         -5.6090   45.3525   -2.4650 C.3       3 GLC5        0.0000 
      2 CA         -4.1500   46.4800   -3.4220 C.3       9 GLL5        0.0000 
      3 CA         -7.0680   44.2250   -1.5080 C.3       6 GLP5        0.0000 
      4 CA         -6.0880   45.2905   -5.6475 C.3       3 GLC5        0.0000 
      5 CA         -4.1660   45.0400   -5.2380 C.3       9 GLL5        0.0000 
      6 CA         -8.0100   45.5410   -6.0570 C.3       6 GLP5        0.0000 
      7 CA         -3.5550   38.2600   -6.3095 C.3       3 GLC5        0.0000 
      8 CA         -2.3690   37.6400   -8.0980 C.3       9 GLL5        0.0000 
      9 CA         -4.7410   38.8800   -4.5210 C.3       6 GLP5        0.0000 
     10 CA         -3.3820   37.1950   -9.9600 C.3       3 GLC5        0.0000 
     11 CA         -4.3950   36.7500  -11.8220 C.3       6 GLP5        0.0000 
     12 CA         -2.5565   39.0495   -9.3275 C.3       3 GLC5        0.0000 
     13 CA         -2.7440   40.4590  -10.5570 C.3       6 GLP5        0.0000 
     14 CA         -1.3035   36.8820   -6.8085 C.3       3 GLC5        0.0000 
     15 CA         -0.2380   36.1240   -5.5190 C.3       6 GLP5        0.0000 
     16 CA          9.7000   37.0940  -13.8440 C.3       3 GLC5        0.0000 
     17 CA          7.9900   37.1480  -12.7360 C.3       9 GLL5        0.0000 
     18 CA         11.4100   37.0400  -14.9520 C.3       6 GLP5        0.0000 
     19 CA          7.1730   36.3670  -14.4015 C.3       3 GLC5        0.0000 
     20 CA          6.3560   35.5860  -16.0670 C.3       6 GLP5        0.0000 
     21 CA          2.3295   41.4585   -9.5840 C.3       3 GLC5        0.0000 
     22 CA          2.0690   39.5730   -8.6440 C.3       9 GLL5        0.0000 
     23 CA          2.5900   43.3440  -10.5240 C.3       6 GLP5        0.0000 
     24 CA         -0.4170   41.0110   -8.8220 C.3       3 GLC5        0.0000 
     25 CA          0.8140   39.5350   -8.0320 C.3       9 GLL5        0.0000 
     26 CA         -1.6480   42.4870   -9.6120 C.3       6 GLP5        0.0000 
     27 CA          0.9585   44.2185   -4.6760 C.3       3 GLC5        0.0000 
     28 CA         -0.5210   42.9010   -5.4770 C.3       9 GLL5        0.0000 
     29 CA          2.4380   45.5360   -3.8750 C.3       6 GLP5        0.0000 
     30 CA         -2.1680   41.9855   -5.4835 C.3       3 GLC5        0.0000 
     31 CA         -3.8150   41.0700   -5.4900 C.3       6 GLP5        0.0000 
     32 CA         -1.0845   42.6940   -7.5445 C.3       3 GLC5        0.0000 
     33 CA         -1.8770   42.9650   -3.8235 C.3       3 GLC5        0.0000 
     34 CA         -3.2330   43.0290   -2.1700 C.3       6 GLP5        0.0000 
     35 CA          1.7975   43.2870   -4.2245 C.3       3 GLC5        0.0000 
     36 CA          0.7970   42.1740   -5.3070 C.3       9 GLL5        0.0000 
     37 CA          2.7980   44.4000   -3.1420 C.3       6 GLP5        0.0000 
     38 O           3.8560   36.3630  -10.2580 O.2       1 ALC1        0.0000 
     39 O           4.2560   37.7210  -10.8760 O.2       7 ALL1        0.0000 
     40 O           3.4560   35.0050   -9.6400 O.2       4 ALP1        0.0000 
     41 N           3.2340   42.3115   -8.0255 N.am      2 SEC2        0.0000 
     42 N           2.1520   41.9110   -7.1890 N.am      8 SEL2        0.0000 
     43 N           4.3160   42.7120   -8.8620 N.am      5 SEP2        0.0000 
     44 CA          1.2930   45.0360   -5.9065 C.3       3 GLC5        0.0000 
     45 CA         -0.4140   44.2880   -6.5630 C.3       9 GLL5        0.0000 
     46 CA          3.0000   45.7840   -5.2500 C.3       6 GLP5        0.0000 
     47 CA         -1.9580   49.2015   -4.0790 C.3       3 GLC5        0.0000 
     48 CA         -2.4230   47.7350   -2.6060 C.3       9 GLL5        0.0000 
     49 CA         -1.4930   50.6680   -5.5520 C.3       6 GLP5        0.0000 
     50 CA         -4.3780   47.8670    0.0785 C.3       3 GLC5        0.0000 
     51 CA         -3.5730   47.9000   -1.9020 C.3       9 GLL5        0.0000 
     52 CA         -5.1830   47.8340    2.0590 C.3       6 GLP5        0.0000 
     53 O          -5.9680   47.1295   -1.7750 O.2       1 ALC1        0.0000 
     54 O          -4.5790   47.1840   -2.3460 O.2       7 ALL1        0.0000 
     55 O          -7.3570   47.0750   -1.2040 O.2       4 ALP1        0.0000 
     56 N          -6.2740   45.4215   -3.9390 N.am      2 SEC2        0.0000 
     57 N          -4.8340   45.6240   -4.2190 N.am      8 SEL2        0.0000 
     58 N          -7.7140   45.2190   -3.6590 N.am      5 SEP2        0.0000 
     59 CA         -3.0492   48.1490   -5.2950 C.3       3 GLC5        0.0000 
     60 CA         -2.8250   46.8040   -3.6100 C.3       9 GLL5        0.0000 
     61 CA         -3.6250   49.7880   -6.4530 C.3       6 GLP5        0.0000 
     62 CA         -1.5807   46.6653   -6.7940 C.3       3 GLC5        0.0000 
     63 CA         -2.1220   46.2160   -4.6640 C.3       9 GLL5        0.0000 
     64 CA         -0.6960   47.5690   -8.5130 C.3       6 GLP5        0.0000 
     65 CA         -3.3603   44.8355   -2.8430 C.3       3 GLC5        0.0000 
     66 CA         -3.2744   44.2149   -3.6632 C.3       3 GLC5        0.0000 
     67 CA         -0.9900   46.0083   -7.5672 C.3       3 GLC5        0.0000 
     68 CA         -2.1540   44.6070   -6.6800 C.3       9 GLL5        0.0000 
     69 CA         -3.7399   45.7021   -7.4380 C.3       3 GLC5        0.0000 
     70 CA         -4.6590   46.5140   -8.8550 C.3       6 GLP5        0.0000 
     71 CA         -3.3179   42.9801   -5.7555 C.3       3 GLC5        0.0000 
     72 CA         -1.4660   43.4672   -8.1167 C.3       3 GLC5        0.0000 
     73 CA          8.3240   38.7417  -14.3878 C.3       3 GLC5        0.0000 
     74 CA          7.4560   38.4370  -12.6670 C.3       9 GLL5        0.0000 
     75 CA          8.9250   39.6910  -16.0740 C.3       6 GLP5        0.0000 
     76 CA         -1.3698   39.3493   -9.8048 C.3       3 GLC5        0.0000 
     77 CA          0.1500   37.8280   -9.6020 C.3       9 GLL5        0.0000 
     78 CA          0.9922   37.2433   -7.8807 C.3       3 GLC5        0.0000 
     79 CA         -0.1410   38.6510   -8.5030 C.3       9 GLL5        0.0000 
     80 CA          1.9800   36.2470   -6.7090 C.3       6 GLP5        0.0000 
     81 CA          1.0328   38.9787  -11.4235 C.3       3 GLC5        0.0000 
     82 CA          1.2880   40.1060  -12.9380 C.3       6 GLP5        0.0000 
     83 CA          1.9343   37.2830   -8.3432 C.3       3 GLC5        0.0000 
     84 CA          1.4050   37.8750  -10.2160 C.3       9 GLL5        0.0000 
     85 CA          1.7543   39.6370  -11.0648 C.3       3 GLC5        0.0000 
     86 CA          2.3720   38.7630   -9.7390 C.3       9 GLL5        0.0000 
     87 CA          3.9683   39.1185   -8.2063 C.3       3 GLC5        0.0000 
     88 CA          5.7160   39.0690   -7.2210 C.3       6 GLP5        0.0000 
     89 CA          1.7107   37.9005   -7.5235 C.3       3 GLC5        0.0000 
     90 CA         -0.5730   41.2548   -3.9160 C.3       3 GLC5        0.0000 
     91 CA         -1.2840   39.9720   -2.4400 C.3       6 GLP5        0.0000 
     92 CA          5.5457   36.7290  -13.3901 C.3       3 GLC5        0.0000 
     93 CA          5.5130   37.5670  -11.4990 C.3       9 GLL5        0.0000 
     94 CA          4.5540   36.9620  -14.9160 C.3       6 GLP5        0.0000 
     95 CA          5.7913   39.7348  -13.6630 C.3       3 GLC5        0.0000 
     96 CA          6.2170   38.6440  -12.0550 C.3       9 GLL5        0.0000 
     97 CA          4.7460   40.9290  -14.9650 C.3       6 GLP5        0.0000 
     98 CA          5.6953   37.7512  -13.6385 C.3       3 GLC5        0.0000 
     99 CA         -2.9355   46.1703   -1.2305 C.3       3 GLC5        0.0000 
    100 CA         -2.8730   44.5230   -0.2070 C.3       6 GLP5        0.0000 
@<TRIPOS>BOND
@<TRIPOS>SUBSTRUCTURE
     1 ALC1       38 GROUP        1 X    ALC  0     ROOT ALC X 1
     2 SEC2       41 GROUP        1 X    SEC  0     **** SEC X 2
     3 GLC5        1 GROUP        1 X    GLC  0     **** GLC X 6
     4 ALP1       40 GROUP        1 Y    ALP  0     ROOT ALP Y 8
     5 SEP2       43 GROUP        1 Y    SEP  0     **** SEP Y 9
     6 GLP5        3 GROUP        1 Y    GLP  0     **** GLP Y 13
     7 ALL1       39 GROUP        1 Z    ALL  0     ROOT ALL Z 15
     8 SEL2       42 GROUP        1 Z    SEL  0     **** SEL Z 16
     9 GLL5        2 GROUP        1 Z    GLL  0     **** GLL Z 20
@<TRIPOS>SET

