#    Name: 3dj6_AK6_1_ligand
#    Modification time : Mon Mar 24 23:29:25 2014

@<TRIPOS>MOLECULE
3dj6_AK6_1_ligand
   57    60     1     0     0
SMALL
NO_CHARGES


@<TRIPOS>ATOM
      1 C30        -2.1220   46.2160   -4.6640 C.ar      1 AK61        0.0000 
      2 C28        -4.1500   46.4800   -3.4220 C.ar      1 AK61        0.0000 
      3 C26        -4.1660   45.0400   -5.2380 C.ar      1 AK61        0.0000 
      4 C24        -2.1540   44.6070   -6.6800 C.3       1 AK61        0.0000 
      5 C23        -2.3690   37.6400   -8.0980 C.3       1 AK61        0.0000 
      6 C22         6.0550   36.2810  -11.5740 C.ar      1 AK61        0.0000 
      7 C17         5.5130   37.5670  -11.4990 C.ar      1 AK61        0.0000 
      8 C20         7.9900   37.1480  -12.7360 C.ar      1 AK61        0.0000 
      9 C12        -0.1410   38.6510   -8.5030 C.ar      1 AK61        0.0000 
     10 C14         3.7400   38.8500  -10.3620 C.2       1 AK61        0.0000 
     11 C11         0.1500   37.8280   -9.6020 C.ar      1 AK61        0.0000 
     12 C10         1.4050   37.8750  -10.2160 C.ar      1 AK61        0.0000 
     13 C9          2.3720   38.7630   -9.7390 C.ar      1 AK61        0.0000 
     14 C8          2.0690   39.5730   -8.6440 C.ar      1 AK61        0.0000 
     15 C7          0.8140   39.5350   -8.0320 C.ar      1 AK61        0.0000 
     16 C3          1.2160   41.4470   -6.5680 C.2       1 AK61        0.0000 
     17 C2         -0.5210   42.9010   -5.4770 C.3       1 AK61        0.0000 
     18 C1          0.7970   42.1740   -5.3070 C.3       1 AK61        0.0000 
     19 O15         4.3250   39.9270  -10.3480 O.2       1 AK61        0.0000 
     20 N16         4.2560   37.7210  -10.8760 N.am      1 AK61        0.0000 
     21 C21         7.2910   36.0680  -12.1920 C.ar      1 AK61        0.0000 
     22 C19         7.4560   38.4370  -12.6670 C.ar      1 AK61        0.0000 
     23 C18         6.2170   38.6440  -12.0550 C.ar      1 AK61        0.0000 
     24 O13        -1.3670   38.6310   -7.8740 O.3       1 AK61        0.0000 
     25 N5          0.5300   40.3470   -6.9130 N.am      1 AK61        0.0000 
     26 O6          2.1520   41.9110   -7.1890 O.2       1 AK61        0.0000 
     27 S4         -0.4140   44.2880   -6.5630 S.3       1 AK61        0.0000 
     28 C25        -2.8090   45.3070   -5.4860 C.ar      1 AK61        0.0000 
     29 C29        -2.8250   46.8040   -3.6100 C.ar      1 AK61        0.0000 
     30 C33        -2.4230   47.7350   -2.6060 C.2       1 AK61        0.0000 
     31 C32        -3.5730   47.9000   -1.9020 C.2       1 AK61        0.0000 
     32 N31        -4.5790   47.1840   -2.3460 N.pl3     1 AK61        0.0000 
     33 N27        -4.8340   45.6240   -4.2190 N.ar      1 AK61        0.0000 
     34 H          -1.1505   46.4348   -4.8331 H         1 AK61        0.0000 
     35 H          -4.6525   44.3665   -5.8734 H         1 AK61        0.0000 
     36 H          -2.5756   43.6148   -6.8637 H         1 AK61        0.0000 
     37 H          -2.2372   45.1899   -7.6015 H         1 AK61        0.0000 
     38 H           5.5412   35.4853  -11.1718 H         1 AK61        0.0000 
     39 H           8.8997   36.9940  -13.1883 H         1 AK61        0.0000 
     40 H          -0.5701   37.1837   -9.9580 H         1 AK61        0.0000 
     41 H           1.6132   37.2634  -11.0088 H         1 AK61        0.0000 
     42 H           2.7923   40.2188   -8.2753 H         1 AK61        0.0000 
     43 H          -0.8864   43.3341   -4.5577 H         1 AK61        0.0000 
     44 H          -1.2856   42.2890   -5.9319 H         1 AK61        0.0000 
     45 H           1.5753   42.8969   -5.0312 H         1 AK61        0.0000 
     46 H           0.7076   41.4512   -4.4860 H         1 AK61        0.0000 
     47 H           3.6626   36.8170  -10.8186 H         1 AK61        0.0000 
     48 H           7.6821   35.1226  -12.2453 H         1 AK61        0.0000 
     49 H           7.9714   39.2288  -13.0641 H         1 AK61        0.0000 
     50 H           5.8182   39.5902  -12.0113 H         1 AK61        0.0000 
     51 H          -0.2986   40.0393   -6.3133 H         1 AK61        0.0000 
     52 H          -1.5982   48.0981   -2.5022 H         1 AK61        0.0000 
     53 H          -3.6244   48.5231   -1.1120 H         1 AK61        0.0000 
     54 H          -5.4786   47.1472   -1.9865 H         1 AK61        0.0000 
     55 H          -2.0402   36.7223   -7.8750 H         1 AK61        0.0000 
     56 H          -3.1835   37.8029   -7.5411 H         1 AK61        0.0000 
     57 H          -2.6657   37.6211   -9.0528 H         1 AK61        0.0000 
@<TRIPOS>BOND
     1   28    1 ar   
     2   29    1 ar   
     3   34    1 1    
     4   29    2 ar   
     5   32    2 1    
     6   33    2 ar   
     7   28    3 ar   
     8   33    3 ar   
     9   35    3 1    
    10   27    4 1    
    11   28    4 1    
    12   36    4 1    
    13   37    4 1    
    14   24    5 1    
    15   55    5 1    
    16   56    5 1    
    17   57    5 1    
    18    7    6 ar   
    19   21    6 ar   
    20   38    6 1    
    21   20    7 1    
    22   23    7 ar   
    23   21    8 ar   
    24   22    8 ar   
    25   39    8 1    
    26   11    9 ar   
    27   15    9 ar   
    28   24    9 1    
    29   13   10 1    
    30   19   10 2    
    31   20   10 am   
    32   12   11 ar   
    33   40   11 1    
    34   13   12 ar   
    35   41   12 1    
    36   14   13 ar   
    37   15   14 ar   
    38   42   14 1    
    39   25   15 1    
    40   18   16 1    
    41   25   16 am   
    42   26   16 2    
    43   18   17 1    
    44   27   17 1    
    45   43   17 1    
    46   44   17 1    
    47   45   18 1    
    48   46   18 1    
    49   47   20 1    
    50   48   21 1    
    51   23   22 ar   
    52   49   22 1    
    53   50   23 1    
    54   51   25 1    
    55   30   29 1    
    56   31   30 2    
    57   52   30 1    
    58   32   31 1    
    59   53   31 1    
    60   54   32 1    
@<TRIPOS>SUBSTRUCTURE
     1 AK61        1 GROUP   
@<TRIPOS>SET

