#    Name: 2hct_NMN_2_INTS_M
#    Modification time : Tue Mar 25 15:53:00 2014

@<TRIPOS>MOLECULE
2hct_NMN_2_INTS_M
   46     0     9     0     0
SMALL
NO_CHARGES


@<TRIPOS>ATOM
      1 N          17.7680    0.7570  -27.6730 N.am      2 SEC2        0.0000 
      2 N          17.6070    1.8690  -27.0930 N.am      8 SEL2        0.0000 
      3 N          17.9290   -0.3550  -28.2530 N.am      5 SEP2        0.0000 
      4 N          16.0340    2.2920  -27.5940 N.am      2 SEC2        0.0000 
      5 N          14.4610    2.7150  -28.0950 N.am      5 SEP2        0.0000 
      6 N          20.7265    1.3610  -26.7290 N.am      2 SEC2        0.0000 
      7 N          19.8550    2.2980  -25.8810 N.am      8 SEL2        0.0000 
      8 N          21.5980    0.4240  -27.5770 N.am      5 SEP2        0.0000 
      9 N          16.1615    2.6960  -24.9835 N.am      2 SEC2        0.0000 
     10 N          17.6430    2.6420  -24.6810 N.am      8 SEL2        0.0000 
     11 N          14.6800    2.7500  -25.2860 N.am      5 SEP2        0.0000 
     12 N          16.7935    3.9310  -24.7790 N.am      2 SEC2        0.0000 
     13 N          15.9440    5.2200  -24.8770 N.am      5 SEP2        0.0000 
     14 CA         20.7170    4.1150  -27.8785 C.3       3 GLC5        0.0000 
     15 CA         18.9060    4.5520  -27.7790 C.3       9 GLL5        0.0000 
     16 CA         22.5280    3.6780  -27.9780 C.3       6 GLP5        0.0000 
     17 CA         19.4080    2.5590  -28.5500 C.3       3 GLC5        0.0000 
     18 CA         19.9100    0.5660  -29.3210 C.3       6 GLP5        0.0000 
     19 CA         20.6665    5.8175  -29.8790 C.3       3 GLC5        0.0000 
     20 CA         18.8390    6.0460  -29.7730 C.3       9 GLL5        0.0000 
     21 CA         22.4940    5.5890  -29.9850 C.3       6 GLP5        0.0000 
     22 CA         21.0510    6.6650  -28.9000 C.3       3 GLC5        0.0000 
     23 CA         19.3940    7.3250  -29.1400 C.3       9 GLL5        0.0000 
     24 CA         22.7080    6.0050  -28.6600 C.3       6 GLP5        0.0000 
     25 O          20.6040    8.7705  -29.7455 O.2       1 ALC1        0.0000 
     26 O          19.4800    8.4000  -30.0790 O.2       7 ALL1        0.0000 
     27 O          21.7280    9.1410  -29.4120 O.2       4 ALP1        0.0000 
     28 CA         18.4630    9.4040  -27.1825 C.3       3 GLC5        0.0000 
     29 CA         18.5120    7.6710  -27.9230 C.3       9 GLL5        0.0000 
     30 CA         18.4140   11.1370  -26.4420 C.3       6 GLP5        0.0000 
     31 N          24.2565   10.3910  -24.0285 N.am      2 SEC2        0.0000 
     32 N          23.0980    9.4350  -24.3480 N.am      8 SEL2        0.0000 
     33 N          25.4150   11.3470  -23.7090 N.am      5 SEP2        0.0000 
     34 O          22.4385    9.1825  -27.9985 O.2       1 ALC1        0.0000 
     35 O          23.1490    9.2240  -26.5850 O.2       7 ALL1        0.0000 
     36 O          24.4700    9.7875  -26.6330 O.2       1 ALC1        0.0000 
     37 O          25.7910   10.3510  -26.6810 O.2       4 ALP1        0.0000 
     38 CA         16.9595    6.1280  -25.7895 C.3       3 GLC5        0.0000 
     39 CA         18.7840    7.1190  -25.5200 C.3       9 GLL5        0.0000 
     40 CA         15.1350    5.1370  -26.0590 C.3       6 GLP5        0.0000 
     41 CA         16.7972    5.0738  -27.1325 C.3       3 GLC5        0.0000 
     42 CA         18.0130    5.4690  -28.6330 C.3       9 GLL5        0.0000 
     43 CA         18.0745    9.0215  -29.3552 C.3       3 GLC5        0.0000 
     44 CA         17.1960   10.5450  -30.1790 C.3       6 GLP5        0.0000 
     45 CA         17.7333    8.5608  -24.5048 C.3       3 GLC5        0.0000 
     46 CA         16.3270   10.0090  -24.0940 C.3       6 GLP5        0.0000 
@<TRIPOS>BOND
@<TRIPOS>SUBSTRUCTURE
     1 ALC1       25 GROUP        1 X    ALC  0     ROOT ALC X 1
     2 SEC2        1 GROUP        1 X    SEC  0     **** SEC X 2
     3 GLC5       14 GROUP        1 X    GLC  0     **** GLC X 6
     4 ALP1       27 GROUP        1 Y    ALP  0     ROOT ALP Y 8
     5 SEP2        3 GROUP        1 Y    SEP  0     **** SEP Y 9
     6 GLP5       16 GROUP        1 Y    GLP  0     **** GLP Y 13
     7 ALL1       26 GROUP        1 Z    ALL  0     ROOT ALL Z 15
     8 SEL2        2 GROUP        1 Z    SEL  0     **** SEL Z 16
     9 GLL5       15 GROUP        1 Z    GLL  0     **** GLL Z 20
@<TRIPOS>SET

