#    Name: 2hct_NMN_2_ligand
#    Modification time : Tue Mar 25 15:53:00 2014

@<TRIPOS>MOLECULE
2hct_NMN_2_ligand
   36    37     1     0     0
SMALL
NO_CHARGES


@<TRIPOS>ATOM
      1 O3P        17.6070    1.8690  -27.0930 O.co2     1 NMN302      0.0000 
      2 P          18.3710    2.6220  -26.0040 P.3       1 NMN302      0.0000 
      3 O1P        19.8550    2.2980  -25.8810 O.co2     1 NMN302      0.0000 
      4 O2P        17.6430    2.6420  -24.6810 O.co2     1 NMN302      0.0000 
      5 O5R        18.2820    4.1510  -26.5470 O.3       1 NMN302      0.0000 
      6 C5R        18.9060    4.5520  -27.7790 C.3       1 NMN302      0.0000 
      7 C4R        18.0130    5.4690  -28.6330 C.3       1 NMN302      0.0000 
      8 O4R        17.5250    6.6290  -27.9160 O.3       1 NMN302      0.0000 
      9 C3R        18.8390    6.0460  -29.7730 C.3       1 NMN302      0.0000 
     10 O3R        18.0330    6.2520  -30.9620 O.3       1 NMN302      0.0000 
     11 C2R        19.3940    7.3250  -29.1400 C.3       1 NMN302      0.0000 
     12 O2R        19.4800    8.4000  -30.0790 O.3       1 NMN302      0.0000 
     13 C1R        18.5120    7.6710  -27.9230 C.3       1 NMN302      0.0000 
     14 N1         19.2790    7.6940  -26.6410 N.pl3     1 NMN302      0.0000 
     15 C2         20.4930    8.2900  -26.5750 C.ar      1 NMN302      0.0000 
     16 C3         21.2540    8.3150  -25.3950 C.ar      1 NMN302      0.0000 
     17 C7         22.5890    9.0150  -25.4000 C.2       1 NMN302      0.0000 
     18 O7         23.0980    9.4350  -24.3480 O.2       1 NMN302      0.0000 
     19 N7         23.1490    9.2240  -26.5850 N.am      1 NMN302      0.0000 
     20 C4         20.7450    7.7180  -24.2400 C.ar      1 NMN302      0.0000 
     21 C5         19.4950    7.1060  -24.3110 C.ar      1 NMN302      0.0000 
     22 C6         18.7840    7.1190  -25.5200 C.ar      1 NMN302      0.0000 
     23 H          19.1683    3.6747  -28.4016 H         1 NMN302      0.0000 
     24 H          19.8530    5.0948  -27.5926 H         1 NMN302      0.0000 
     25 H          17.2160    4.9061  -29.0562 H         1 NMN302      0.0000 
     26 H          19.6642    5.3782  -29.9329 H         1 NMN302      0.0000 
     27 H          20.3864    7.0710  -28.7398 H         1 NMN302      0.0000 
     28 H          18.0542    8.6178  -28.1159 H         1 NMN302      0.0000 
     29 H          20.8977    8.7551  -27.4231 H         1 NMN302      0.0000 
     30 H          24.0197    9.7157  -26.5796 H         1 NMN302      0.0000 
     31 H          22.6496    8.8709  -27.3761 H         1 NMN302      0.0000 
     32 H          21.2717    7.7301  -23.3733 H         1 NMN302      0.0000 
     33 H          19.0945    6.6486  -23.4880 H         1 NMN302      0.0000 
     34 H          17.8407    6.6632  -25.5345 H         1 NMN302      0.0000 
     35 H          18.0902    7.2332  -31.1465 H         1 NMN302      0.0000 
     36 H          20.4485    8.4546  -30.3218 H         1 NMN302      0.0000 
@<TRIPOS>BOND
     1    2    1 ar   
     2    3    2 ar   
     3    4    2 ar   
     4    5    2 1    
     5    6    5 1    
     6    7    6 1    
     7   23    6 1    
     8   24    6 1    
     9    8    7 1    
    10    9    7 1    
    11   25    7 1    
    12   13    8 1    
    13   10    9 1    
    14   11    9 1    
    15   26    9 1    
    16   35   10 1    
    17   12   11 1    
    18   13   11 1    
    19   27   11 1    
    20   36   12 1    
    21   14   13 1    
    22   28   13 1    
    23   15   14 ar   
    24   22   14 ar   
    25   16   15 ar   
    26   29   15 1    
    27   17   16 1    
    28   20   16 ar   
    29   18   17 2    
    30   19   17 am   
    31   30   19 1    
    32   31   19 1    
    33   21   20 ar   
    34   32   20 1    
    35   22   21 ar   
    36   33   21 1    
    37   34   22 1    
@<TRIPOS>SUBSTRUCTURE
     1 NMN302      1 GROUP   
@<TRIPOS>SET

