#    Name: 1lcw_SHM_2_INTS_M
#    Modification time : Tue Mar 25 11:06:34 2014

@<TRIPOS>MOLECULE
1lcw_SHM_2_INTS_M
   58     0     9     0     0
SMALL
NO_CHARGES


@<TRIPOS>ATOM
      1 CA         13.2875   16.6395    2.7295 C.3       3 GLC5        0.0000 
      2 CA         12.0340   17.7660    3.6620 C.3       9 GLL5        0.0000 
      3 CA         14.5410   15.5130    1.7970 C.3       6 GLP5        0.0000 
      4 O          13.8530   16.4415    5.0205 O.2       1 ALC1        0.0000 
      5 O          12.4090   16.6880    4.5910 O.2       7 ALL1        0.0000 
      6 O          15.2970   16.1950    5.4500 O.2       4 ALP1        0.0000 
      7 O           8.8770   16.5210    5.2105 O.2       1 ALC1        0.0000 
      8 O          10.1920   16.8240    4.8590 O.2       7 ALL1        0.0000 
      9 O           7.5620   16.2180    5.5620 O.2       4 ALP1        0.0000 
     10 CA         12.5945   21.2130    3.1455 C.3       3 GLC5        0.0000 
     11 CA         12.6680   19.1740    4.0070 C.3       9 GLL5        0.0000 
     12 CA         12.5210   23.2520    2.2840 C.3       6 GLP5        0.0000 
     13 CA         14.9945   17.7215    5.6285 C.3       3 GLC5        0.0000 
     14 CA         14.1590   19.1140    4.5010 C.3       9 GLL5        0.0000 
     15 CA         15.8300   16.3290    6.7560 C.3       6 GLP5        0.0000 
     16 CA         13.9830   19.8345    6.3175 C.3       3 GLC5        0.0000 
     17 CA         13.8070   20.5550    8.1340 C.3       6 GLP5        0.0000 
     18 CA         16.6885   19.2280    2.6545 C.3       3 GLC5        0.0000 
     19 CA         15.0980   20.1770    3.9000 C.3       9 GLL5        0.0000 
     20 CA         18.2790   18.2790    1.4090 C.3       6 GLP5        0.0000 
     21 CA         13.8095   21.7145    3.0920 C.3       3 GLC5        0.0000 
     22 CA         19.0895   21.0535    3.6180 C.3       3 GLC5        0.0000 
     23 CA         17.1230   21.6940    4.3890 C.3       9 GLL5        0.0000 
     24 CA         21.0560   20.4130    2.8470 C.3       6 GLP5        0.0000 
     25 CA         16.6390   22.5060    6.1440 C.3       3 GLC5        0.0000 
     26 CA         16.1550   23.3180    7.8990 C.3       6 GLP5        0.0000 
     27 CA         15.7680   23.3635    5.4610 C.3       3 GLC5        0.0000 
     28 CA         16.5120   22.8660    3.5720 C.3       9 GLL5        0.0000 
     29 CA         15.0240   23.8610    7.3500 C.3       6 GLP5        0.0000 
     30 CA         14.5165   23.0590    2.9280 C.3       3 GLC5        0.0000 
     31 N          18.6120   20.8045    1.9325 N.am      2 SEC2        0.0000 
     32 N          17.3750   21.7100    1.6500 N.am      8 SEL2        0.0000 
     33 N          19.8490   19.8990    2.2150 N.am      5 SEP2        0.0000 
     34 N          10.2750   14.2920    6.0945 N.am      2 SEC2        0.0000 
     35 N          11.3880   15.2940    6.0620 N.am      8 SEL2        0.0000 
     36 N           9.1620   13.2900    6.1270 N.am      5 SEP2        0.0000 
     37 N          12.1960   14.3105    6.2535 N.am      2 SEC2        0.0000 
     38 N          13.0040   13.3270    6.4450 N.am      5 SEP2        0.0000 
     39 N          10.8310   15.3800    7.2610 N.am      2 SEC2        0.0000 
     40 N          10.2740   15.4660    8.4600 N.am      5 SEP2        0.0000 
     41 CA         10.9855   15.8800    2.9440 C.3       3 GLC5        0.0000 
     42 CA         10.5060   17.8460    3.8620 C.3       9 GLL5        0.0000 
     43 CA         10.7010   13.9540    2.1260 C.3       6 GLP5        0.0000 
     44 CA          8.7363   18.9772    3.3310 C.3       3 GLC5        0.0000 
     45 CA          7.2060   19.4070    2.5560 C.3       6 GLP5        0.0000 
     46 CA         12.9463   20.0297    6.3810 C.3       3 GLC5        0.0000 
     47 CA         11.5030   19.8350    5.2490 C.3       9 GLL5        0.0000 
     48 CA          9.9480   20.9630    5.8302 C.3       3 GLC5        0.0000 
     49 CA          9.1310   22.3840    6.8610 C.3       6 GLP5        0.0000 
     50 CA         10.1610   19.1930    6.6043 C.3       3 GLC5        0.0000 
     51 CA          9.5570   18.8440    8.4090 C.3       6 GLP5        0.0000 
     52 CA         15.0083   21.1288    6.1768 C.3       3 GLC5        0.0000 
     53 CA         14.4640   21.7700    7.9110 C.3       6 GLP5        0.0000 
     54 CA         17.8595   19.9245    5.6445 C.3       3 GLC5        0.0000 
     55 CA         16.0070   20.7980    4.9850 C.3       9 GLL5        0.0000 
     56 CA         19.1540   18.6030    6.6020 C.3       6 GLP5        0.0000 
     57 CA         18.3203   23.6225    4.4683 C.3       3 GLC5        0.0000 
     58 CA         19.8230   24.9650    4.9560 C.3       6 GLP5        0.0000 
@<TRIPOS>BOND
@<TRIPOS>SUBSTRUCTURE
     1 ALC1        4 GROUP        1 X    ALC  0     ROOT ALC X 1
     2 SEC2       31 GROUP        1 X    SEC  0     **** SEC X 2
     3 GLC5        1 GROUP        1 X    GLC  0     **** GLC X 6
     4 ALP1        6 GROUP        1 Y    ALP  0     ROOT ALP Y 8
     5 SEP2       33 GROUP        1 Y    SEP  0     **** SEP Y 9
     6 GLP5        3 GROUP        1 Y    GLP  0     **** GLP Y 13
     7 ALL1        5 GROUP        1 Z    ALL  0     ROOT ALL Z 15
     8 SEL2       32 GROUP        1 Z    SEL  0     **** SEL Z 16
     9 GLL5        2 GROUP        1 Z    GLL  0     **** GLL Z 20
@<TRIPOS>SET

