#    Name: 1lcw_SHM_2_ligand
#    Modification time : Tue Mar 25 11:06:34 2014

@<TRIPOS>MOLECULE
1lcw_SHM_2_ligand
   34    35     1     0     0
SMALL
NO_CHARGES


@<TRIPOS>ATOM
      1 C1         10.5060   17.8460    3.8620 C.3       1 SHM402      0.0000 
      2 C2         12.0340   17.7660    3.6620 C.3       1 SHM402      0.0000 
      3 N3         12.4090   16.6880    4.5910 N.am      1 SHM402      0.0000 
      4 C4         11.3340   16.2000    5.2330 C.2       1 SHM402      0.0000 
      5 N5         10.1920   16.8240    4.8590 N.am      1 SHM402      0.0000 
      6 C6         12.6680   19.1740    4.0070 C.3       1 SHM402      0.0000 
      7 S7         11.5030   19.8350    5.2490 S.3       1 SHM402      0.0000 
      8 C8         10.0270   19.2490    4.3500 C.3       1 SHM402      0.0000 
      9 C9         14.1590   19.1140    4.5010 C.3       1 SHM402      0.0000 
     10 C10        15.0980   20.1770    3.9000 C.3       1 SHM402      0.0000 
     11 C11        16.0070   20.7980    4.9850 C.3       1 SHM402      0.0000 
     12 C12        17.1230   21.6940    4.3890 C.3       1 SHM402      0.0000 
     13 C13        16.5120   22.8660    3.5720 C.3       1 SHM402      0.0000 
     14 C14        16.7610   22.6780    2.0830 C.2       1 SHM402      0.0000 
     15 O15        16.2910   23.5940    1.1980 O.co2     1 SHM402      0.0000 
     16 O16        17.3750   21.7100    1.6500 O.co2     1 SHM402      0.0000 
     17 O17        11.3880   15.2940    6.0620 O.2       1 SHM402      0.0000 
     18 H          10.0310   17.6147    2.9326 H         1 SHM402      0.0000 
     19 H          12.2223   17.5137    2.6649 H         1 SHM402      0.0000 
     20 H          13.3299   16.4157    4.6786 H         1 SHM402      0.0000 
     21 H           9.3044   16.6683    5.1587 H         1 SHM402      0.0000 
     22 H          12.5177   19.8299    3.1924 H         1 SHM402      0.0000 
     23 H           9.3214   19.2003    5.0862 H         1 SHM402      0.0000 
     24 H           9.9400   19.9303    3.5947 H         1 SHM402      0.0000 
     25 H          14.5533   18.1103    4.2696 H         1 SHM402      0.0000 
     26 H          14.1570   19.2122    5.5995 H         1 SHM402      0.0000 
     27 H          14.5023   20.9640    3.4445 H         1 SHM402      0.0000 
     28 H          15.7210   19.7145    3.1386 H         1 SHM402      0.0000 
     29 H          16.4705   19.9953    5.5630 H         1 SHM402      0.0000 
     30 H          15.3947   21.4000    5.6603 H         1 SHM402      0.0000 
     31 H          17.7473   21.0965    3.7358 H         1 SHM402      0.0000 
     32 H          17.7210   22.1005    5.1957 H         1 SHM402      0.0000 
     33 H          16.9666   23.7948    3.9074 H         1 SHM402      0.0000 
     34 H          15.4429   22.9014    3.7654 H         1 SHM402      0.0000 
@<TRIPOS>BOND
     1    2    1 1    
     2    5    1 1    
     3    8    1 1    
     4   18    1 1    
     5    3    2 1    
     6    6    2 1    
     7   19    2 1    
     8    4    3 am   
     9   20    3 1    
    10    5    4 am   
    11   17    4 2    
    12   21    5 1    
    13    7    6 1    
    14    9    6 1    
    15   22    6 1    
    16    8    7 1    
    17   23    8 1    
    18   24    8 1    
    19   10    9 1    
    20   25    9 1    
    21   26    9 1    
    22   11   10 1    
    23   27   10 1    
    24   28   10 1    
    25   12   11 1    
    26   29   11 1    
    27   30   11 1    
    28   13   12 1    
    29   31   12 1    
    30   32   12 1    
    31   14   13 1    
    32   33   13 1    
    33   34   13 1    
    34   15   14 ar   
    35   16   14 ar   
@<TRIPOS>SUBSTRUCTURE
     1 SHM402      1 GROUP   
@<TRIPOS>SET

