#    Name: 1nvm_NAD_2_INTS_M
#    Modification time : Mon Mar 24 19:02:17 2014

@<TRIPOS>MOLECULE
1nvm_NAD_2_INTS_M
  101     0     9     0     0
SMALL
NO_CHARGES


@<TRIPOS>ATOM
      1 N          74.6680   32.0540    9.0190 N.am      2 SEC2        0.0000 
      2 N          74.9080   33.4680    8.9780 N.am      8 SEL2        0.0000 
      3 N          74.4280   30.6400    9.0600 N.am      5 SEP2        0.0000 
      4 N          72.7035   36.7460    9.2475 N.am      2 SEC2        0.0000 
      5 N          73.4190   35.4590    8.7330 N.am      8 SEL2        0.0000 
      6 N          71.9880   38.0330    9.7620 N.am      5 SEP2        0.0000 
      7 CA         74.6420   32.0705   11.1480 C.3       3 GLC5        0.0000 
      8 CA         75.1770   34.0890   11.9350 C.3       9 GLL5        0.0000 
      9 CA         74.1070   30.0520   10.3610 C.3       6 GLP5        0.0000 
     10 CA         76.1630   35.8470   14.1960 C.3       3 GLC5        0.0000 
     11 CA         76.1600   35.1200   12.5370 C.3       9 GLL5        0.0000 
     12 CA         76.1660   36.5740   15.8550 C.3       6 GLP5        0.0000 
     13 N          77.0890   37.6245   12.9840 N.am      2 SEC2        0.0000 
     14 N          77.7030   36.8810   11.7300 N.am      8 SEL2        0.0000 
     15 N          76.4750   38.3680   14.2380 N.am      5 SEP2        0.0000 
     16 N          78.1040   38.3100   12.3320 N.am      2 SEC2        0.0000 
     17 N          78.5050   39.7390   12.9340 N.am      5 SEP2        0.0000 
     18 CA         77.2340   35.5960   14.6010 C.3       3 GLC5        0.0000 
     19 CA         78.3020   34.6180   13.3470 C.3       9 GLL5        0.0000 
     20 CA         77.5065   33.9495   15.2860 C.3       3 GLC5        0.0000 
     21 CA         76.7110   33.2810   17.2250 C.3       6 GLP5        0.0000 
     22 CA         81.1580   32.4480   14.3920 C.3       3 GLC5        0.0000 
     23 CA         79.7880   32.2630   15.6290 C.3       9 GLL5        0.0000 
     24 CA         82.5280   32.6330   13.1550 C.3       6 GLP5        0.0000 
     25 CA         81.9250   33.0415   16.3310 C.3       3 GLC5        0.0000 
     26 CA         80.4080   32.0650   16.8800 C.3       9 GLL5        0.0000 
     27 CA         83.4420   34.0180   15.7820 C.3       6 GLP5        0.0000 
     28 CA         79.1400   30.3710   17.2910 C.3       3 GLC5        0.0000 
     29 CA         77.8720   28.6770   17.7020 C.3       6 GLP5        0.0000 
     30 CA         79.2290   34.9960   18.4965 C.3       3 GLC5        0.0000 
     31 CA         80.2030   34.3890   17.1680 C.3       9 GLL5        0.0000 
     32 CA         78.2550   35.6030   19.8250 C.3       6 GLP5        0.0000 
     33 CA         80.5505   36.3265   16.4140 C.3       3 GLC5        0.0000 
     34 CA         80.8980   38.2640   15.6600 C.3       6 GLP5        0.0000 
     35 CA         81.8225   34.2035   16.4750 C.3       3 GLC5        0.0000 
     36 CA         81.9810   35.0835   18.2555 C.3       3 GLC5        0.0000 
     37 CA         83.7590   35.7780   19.3430 C.3       6 GLP5        0.0000 
     38 CA         78.4570   33.8350   17.1965 C.3       3 GLC5        0.0000 
     39 CA         77.8040   35.0640   15.5775 C.3       3 GLC5        0.0000 
     40 CA         79.4420   33.5540   15.3000 C.3       9 GLL5        0.0000 
     41 CA         80.9245   33.8310   14.4010 C.3       3 GLC5        0.0000 
     42 CA         82.4070   34.1080   13.5020 C.3       6 GLP5        0.0000 
     43 N          73.5135   32.0220    9.5095 N.am      2 SEC2        0.0000 
     44 N          72.5990   33.4040    9.9590 N.am      8 SEL2        0.0000 
     45 N          70.5660   33.4100    7.7350 N.am      2 SEC2        0.0000 
     46 N          70.2540   33.6850    9.1490 N.am      8 SEL2        0.0000 
     47 N          70.8780   33.1350    6.3210 N.am      5 SEP2        0.0000 
     48 N          69.7090   32.3865    9.2595 N.am      2 SEC2        0.0000 
     49 N          69.1640   31.0880    9.3700 N.am      5 SEP2        0.0000 
     50 N          70.4520   36.4175   11.2335 N.am      2 SEC2        0.0000 
     51 N          71.0980   35.2130   10.8880 N.am      8 SEL2        0.0000 
     52 N          69.8060   37.6220   11.5790 N.am      5 SEP2        0.0000 
     53 CA         70.1400   34.6085   13.1135 C.3       3 GLC5        0.0000 
     54 CA         71.3610   32.9210   12.7700 C.3       9 GLL5        0.0000 
     55 CA         68.9190   36.2960   13.4570 C.3       6 GLP5        0.0000 
     56 CA         71.3800   33.2470   15.3585 C.3       3 GLC5        0.0000 
     57 CA         70.6920   31.9240   13.7000 C.3       9 GLL5        0.0000 
     58 CA         72.0680   34.5700   17.0170 C.3       6 GLP5        0.0000 
     59 CA         72.3235   29.5975   14.1295 C.3       3 GLC5        0.0000 
     60 CA         70.6340   30.4830   13.2200 C.3       9 GLL5        0.0000 
     61 CA         74.0130   28.7120   15.0390 C.3       6 GLP5        0.0000 
     62 O          70.8220   28.2530   14.1290 O.2       1 ALC1        0.0000 
     63 O          70.6830   29.5840   14.3390 O.2       7 ALL1        0.0000 
     64 O          70.9610   26.9220   13.9190 O.2       4 ALP1        0.0000 
     65 N          69.2755   27.8365   12.3765 N.am      2 SEC2        0.0000 
     66 N          68.8090   29.0230   12.6980 N.am      8 SEL2        0.0000 
     67 N          69.7420   26.6500   12.0550 N.am      5 SEP2        0.0000 
     68 CA         68.1905   33.3945   13.0635 C.3       3 GLC5        0.0000 
     69 CA         68.4380   31.2810   13.5740 C.3       9 GLL5        0.0000 
     70 CA         67.9430   35.5080   12.5530 C.3       6 GLP5        0.0000 
     71 CA         67.6405   33.8920   12.1050 C.3       3 GLC5        0.0000 
     72 CA         67.3380   32.2760   11.6570 C.3       9 GLL5        0.0000 
     73 CA         68.4550   31.1430   10.1045 C.3       3 GLC5        0.0000 
     74 CA         69.5720   30.0100    8.5520 C.3       6 GLP5        0.0000 
     75 O          64.3565   34.2180    8.0160 O.2       1 ALC1        0.0000 
     76 O          65.0010   33.6630    9.1230 O.2       7 ALL1        0.0000 
     77 O          63.7120   34.7730    6.9090 O.2       4 ALP1        0.0000 
     78 CA         64.0715   34.0305   13.4580 C.3       3 GLC5        0.0000 
     79 CA         65.0550   33.0900   11.7380 C.3       9 GLL5        0.0000 
     80 CA         63.0880   34.9710   15.1780 C.3       6 GLP5        0.0000 
     81 CA         64.6720   33.6625   14.5640 C.3       3 GLC5        0.0000 
     82 CA         65.0610   32.6400   13.0700 C.3       9 GLL5        0.0000 
     83 CA         64.2830   34.6850   16.0580 C.3       6 GLP5        0.0000 
     84 CA         65.0600   32.0680   15.3335 C.3       3 GLC5        0.0000 
     85 CA         66.0820   32.0440   13.7360 C.3       9 GLL5        0.0000 
     86 CA         64.0380   32.0920   16.9310 C.3       6 GLP5        0.0000 
     87 CA         75.2897   33.4638   14.0120 C.3       3 GLC5        0.0000 
     88 CA         74.9110   32.3230   15.7880 C.3       6 GLP5        0.0000 
     89 CA         75.3349   36.5861   11.3100 C.3       3 GLC5        0.0000 
     90 CA         74.2220   38.0910   10.7390 C.3       6 GLP5        0.0000 
     91 CA         80.3777   34.3615   13.0420 C.3       3 GLC5        0.0000 
     92 CA         78.3950   34.6120   11.8170 C.3       9 GLL5        0.0000 
     93 CA         78.2405   33.0700   16.5011 C.3       3 GLC5        0.0000 
     94 CA         70.2347   29.7815   11.1307 C.3       3 GLC5        0.0000 
     95 CA         70.5470   29.1230    9.3470 C.3       6 GLP5        0.0000 
     96 CA         66.0718   34.4557   12.0205 C.3       3 GLC5        0.0000 
     97 CA         66.2720   32.8670   11.0540 C.3       9 GLL5        0.0000 
     98 CA         66.4800   35.9330   12.6450 C.3       6 GLP5        0.0000 
     99 CA         63.4415   32.5920   12.0720 C.3       3 GLC5        0.0000 
    100 CA         61.8250   32.3190   11.7400 C.3       6 GLP5        0.0000 
    101 CA         66.0258   34.1375   13.0240 C.3       3 GLC5        0.0000 
@<TRIPOS>BOND
@<TRIPOS>SUBSTRUCTURE
     1 ALC1       62 GROUP        1 X    ALC  0     ROOT ALC X 1
     2 SEC2        1 GROUP        1 X    SEC  0     **** SEC X 2
     3 GLC5        7 GROUP        1 X    GLC  0     **** GLC X 6
     4 ALP1       64 GROUP        1 Y    ALP  0     ROOT ALP Y 8
     5 SEP2        3 GROUP        1 Y    SEP  0     **** SEP Y 9
     6 GLP5        9 GROUP        1 Y    GLP  0     **** GLP Y 13
     7 ALL1       63 GROUP        1 Z    ALL  0     ROOT ALL Z 15
     8 SEL2        2 GROUP        1 Z    SEL  0     **** SEL Z 16
     9 GLL5        8 GROUP        1 Z    GLL  0     **** GLL Z 20
@<TRIPOS>SET

