#    Name: 1nvm_NAD_2_ligand
#    Modification time : Mon Mar 24 19:02:17 2014

@<TRIPOS>MOLECULE
1nvm_NAD_2_ligand
   70    74     1     0     0
SMALL
NO_CHARGES


@<TRIPOS>ATOM
      1 PA         73.8780   34.3540    9.5420 P.3       1 NAD3502     0.0000 
      2 O1A        74.9080   33.4680    8.9780 O.co2     1 NAD3502     0.0000 
      3 O2A        73.4190   35.4590    8.7330 O.co2     1 NAD3502     0.0000 
      4 O5B        74.3390   34.7970   11.0010 O.3       1 NAD3502     0.0000 
      5 C5B        75.1770   34.0890   11.9350 C.3       1 NAD3502     0.0000 
      6 C4B        76.1600   35.1200   12.5370 C.3       1 NAD3502     0.0000 
      7 O4B        76.8880   34.4100   13.5830 O.3       1 NAD3502     0.0000 
      8 C3B        77.2270   35.5580   11.5260 C.3       1 NAD3502     0.0000 
      9 O3B        77.7030   36.8810   11.7300 O.3       1 NAD3502     0.0000 
     10 C2B        78.3950   34.6120   11.8170 C.3       1 NAD3502     0.0000 
     11 O2B        79.6470   35.1760   11.3870 O.3       1 NAD3502     0.0000 
     12 C1B        78.3020   34.6180   13.3470 C.3       1 NAD3502     0.0000 
     13 N9A        78.8780   33.4660   14.0340 N.pl3     1 NAD3502     0.0000 
     14 C8A        78.8850   32.1570   13.7000 C.2       1 NAD3502     0.0000 
     15 N7A        79.4510   31.3790   14.6330 N.2       1 NAD3502     0.0000 
     16 C5A        79.7880   32.2630   15.6290 C.ar      1 NAD3502     0.0000 
     17 C6A        80.4080   32.0650   16.8800 C.ar      1 NAD3502     0.0000 
     18 N6A        80.7960   30.8690   17.2930 N.pl3     1 NAD3502     0.0000 
     19 N1A        80.6120   33.1720   17.6280 N.ar      1 NAD3502     0.0000 
     20 C2A        80.2030   34.3890   17.1680 C.ar      1 NAD3502     0.0000 
     21 N3A        79.6280   34.6790   16.0280 N.ar      1 NAD3502     0.0000 
     22 C4A        79.4420   33.5540   15.3000 C.ar      1 NAD3502     0.0000 
     23 O3         72.5990   33.4040    9.9590 O.3       1 NAD3502     0.0000 
     24 PN         71.1420   33.8520   10.3280 P.3       1 NAD3502     0.0000 
     25 O1N        70.2540   33.6850    9.1490 O.co2     1 NAD3502     0.0000 
     26 O2N        71.0980   35.2130   10.8880 O.co2     1 NAD3502     0.0000 
     27 O5D        70.7610   32.7460   11.4570 O.3       1 NAD3502     0.0000 
     28 C5D        71.3610   32.9210   12.7700 C.3       1 NAD3502     0.0000 
     29 C4D        70.6920   31.9240   13.7000 C.3       1 NAD3502     0.0000 
     30 O4D        69.3100   32.3840   13.8250 O.3       1 NAD3502     0.0000 
     31 C3D        70.6340   30.4830   13.2200 C.3       1 NAD3502     0.0000 
     32 O3D        70.6830   29.5840   14.3390 O.3       1 NAD3502     0.0000 
     33 C2D        69.2110   30.3970   12.6090 C.3       1 NAD3502     0.0000 
     34 O2D        68.8090   29.0230   12.6980 O.3       1 NAD3502     0.0000 
     35 C1D        68.4380   31.2810   13.5740 C.3       1 NAD3502     0.0000 
     36 N1N        67.2600   31.8880   12.9550 N.pl3     1 NAD3502     0.0000 
     37 C2N        67.3380   32.2760   11.6570 C.ar      1 NAD3502     0.0000 
     38 C3N        66.2720   32.8670   11.0540 C.ar      1 NAD3502     0.0000 
     39 C7N        66.2110   33.3850    9.5850 C.2       1 NAD3502     0.0000 
     40 O7N        67.2660   33.5610    8.9430 O.2       1 NAD3502     0.0000 
     41 N7N        65.0010   33.6630    9.1230 N.am      1 NAD3502     0.0000 
     42 C4N        65.0550   33.0900   11.7380 C.ar      1 NAD3502     0.0000 
     43 C5N        65.0610   32.6400   13.0700 C.ar      1 NAD3502     0.0000 
     44 C6N        66.0820   32.0440   13.7360 C.ar      1 NAD3502     0.0000 
     45 H          75.7627   33.3183   11.4515 H         1 NAD3502     0.0000 
     46 H          74.6067   33.6625   12.7497 H         1 NAD3502     0.0000 
     47 H          75.6469   35.9387   12.9145 H         1 NAD3502     0.0000 
     48 H          76.8884   35.3591   10.5515 H         1 NAD3502     0.0000 
     49 H          78.1677   33.6720   11.4700 H         1 NAD3502     0.0000 
     50 H          78.5985   35.5266   13.7396 H         1 NAD3502     0.0000 
     51 H          78.5061   31.8106   12.8448 H         1 NAD3502     0.0000 
     52 H          80.8120   30.7292   18.2831 H         1 NAD3502     0.0000 
     53 H          81.0379   30.2136   16.5776 H         1 NAD3502     0.0000 
     54 H          80.3902   35.2276   17.8631 H         1 NAD3502     0.0000 
     55 H          71.1886   33.9195   13.1509 H         1 NAD3502     0.0000 
     56 H          72.4234   32.7144   12.7473 H         1 NAD3502     0.0000 
     57 H          71.1568   31.9685   14.6664 H         1 NAD3502     0.0000 
     58 H          71.3268   30.3151   12.4829 H         1 NAD3502     0.0000 
     59 H          69.2327   30.8044   11.6717 H         1 NAD3502     0.0000 
     60 H          68.2126   30.7649   14.4461 H         1 NAD3502     0.0000 
     61 H          68.2158   32.1214   11.1202 H         1 NAD3502     0.0000 
     62 H          64.9587   34.0343    8.1955 H         1 NAD3502     0.0000 
     63 H          64.2394   33.4764    9.7436 H         1 NAD3502     0.0000 
     64 H          64.2812   33.5188   11.3191 H         1 NAD3502     0.0000 
     65 H          64.1345   32.7954   13.6122 H         1 NAD3502     0.0000 
     66 H          66.0442   31.7365   14.6718 H         1 NAD3502     0.0000 
     67 H          78.6991   36.7962   11.7575 H         1 NAD3502     0.0000 
     68 H          80.3292   34.7993   12.0137 H         1 NAD3502     0.0000 
     69 H          70.9217   28.6957   13.9468 H         1 NAD3502     0.0000 
     70 H          69.0214   28.7516   13.6368 H         1 NAD3502     0.0000 
@<TRIPOS>BOND
     1    2    1 ar   
     2    3    1 ar   
     3    4    1 1    
     4   23    1 1    
     5    5    4 1    
     6    6    5 1    
     7   45    5 1    
     8   46    5 1    
     9    7    6 1    
    10    8    6 1    
    11   47    6 1    
    12   12    7 1    
    13    9    8 1    
    14   10    8 1    
    15   48    8 1    
    16   67    9 1    
    17   11   10 1    
    18   12   10 1    
    19   49   10 1    
    20   68   11 1    
    21   13   12 1    
    22   50   12 1    
    23   14   13 1    
    24   22   13 1    
    25   15   14 2    
    26   51   14 1    
    27   16   15 1    
    28   17   16 ar   
    29   22   16 ar   
    30   18   17 1    
    31   19   17 ar   
    32   52   18 1    
    33   53   18 1    
    34   20   19 ar   
    35   21   20 ar   
    36   54   20 1    
    37   22   21 ar   
    38   24   23 1    
    39   25   24 ar   
    40   26   24 ar   
    41   27   24 1    
    42   28   27 1    
    43   29   28 1    
    44   55   28 1    
    45   56   28 1    
    46   30   29 1    
    47   31   29 1    
    48   57   29 1    
    49   35   30 1    
    50   32   31 1    
    51   33   31 1    
    52   58   31 1    
    53   69   32 1    
    54   34   33 1    
    55   35   33 1    
    56   59   33 1    
    57   70   34 1    
    58   36   35 1    
    59   60   35 1    
    60   37   36 ar   
    61   44   36 ar   
    62   38   37 ar   
    63   61   37 1    
    64   39   38 1    
    65   42   38 ar   
    66   40   39 2    
    67   41   39 am   
    68   62   41 1    
    69   63   41 1    
    70   43   42 ar   
    71   64   42 1    
    72   44   43 ar   
    73   65   43 1    
    74   66   44 1    
@<TRIPOS>SUBSTRUCTURE
     1 NAD3502     1 GROUP   
@<TRIPOS>SET

