#    Name: 3glv_AMP_1_INTS_M
#    Modification time : Tue Mar 25 12:37:15 2014

@<TRIPOS>MOLECULE
3glv_AMP_1_INTS_M
   50     0     9     0     0
SMALL
NO_CHARGES


@<TRIPOS>ATOM
      1 N          24.3025   29.8800   -4.0330 N.am      2 SEC2        0.0000 
      2 N          23.0970   29.4020   -4.7780 N.am      8 SEL2        0.0000 
      3 N          25.5080   30.3580   -3.2880 N.am      5 SEP2        0.0000 
      4 N          25.3400   31.3380   -6.0150 N.am      2 SEC2        0.0000 
      5 N          24.1110   30.9290   -6.5230 N.am      8 SEL2        0.0000 
      6 N          26.5690   31.7470   -5.5070 N.am      5 SEP2        0.0000 
      7 N          23.7885   32.0865   -7.2940 N.am      2 SEC2        0.0000 
      8 N          23.4660   33.2440   -8.0650 N.am      5 SEP2        0.0000 
      9 CA         18.8420   30.3205   -2.7750 C.3       3 GLC5        0.0000 
     10 CA         19.5070   31.7000   -3.9240 C.3       9 GLL5        0.0000 
     11 CA         18.1770   28.9410   -1.6260 C.3       6 GLP5        0.0000 
     12 O          17.0485   29.8970   -5.3555 O.2       1 ALC1        0.0000 
     13 O          17.3170   31.1910   -5.1270 O.2       7 ALL1        0.0000 
     14 O          16.7800   28.6030   -5.5840 O.2       4 ALP1        0.0000 
     15 CA         20.7050   33.6485   -6.7240 C.3       3 GLC5        0.0000 
     16 CA         18.8060   33.0570   -5.7660 C.3       9 GLL5        0.0000 
     17 CA         22.6040   34.2400   -7.6820 C.3       6 GLP5        0.0000 
     18 CA         18.3405   34.8120   -5.3030 C.3       3 GLC5        0.0000 
     19 CA         17.8750   36.5670   -4.8400 C.3       6 GLP5        0.0000 
     20 N          19.8985   32.9470  -10.4285 N.am      2 SEC2        0.0000 
     21 N          18.8600   32.6100   -9.4320 N.am      8 SEL2        0.0000 
     22 N          20.9370   33.2840  -11.4250 N.am      5 SEP2        0.0000 
     23 CA         15.5510   35.1250  -10.7920 C.3       3 GLC5        0.0000 
     24 CA         16.5360   33.5380  -10.1500 C.3       9 GLL5        0.0000 
     25 CA         14.5660   36.7120  -11.4340 C.3       6 GLP5        0.0000 
     26 N          14.1620   34.7475   -9.9535 N.am      2 SEC2        0.0000 
     27 N          15.3980   34.0950   -9.6510 N.am      8 SEL2        0.0000 
     28 N          12.9260   35.4000  -10.2560 N.am      5 SEP2        0.0000 
     29 CA         14.6125   36.1795   -8.0765 C.3       3 GLC5        0.0000 
     30 CA         15.3070   34.3520   -8.3100 C.3       9 GLL5        0.0000 
     31 CA         13.9180   38.0070   -7.8430 C.3       6 GLP5        0.0000 
     32 CA         13.4855   34.1385   -8.5435 C.3       3 GLC5        0.0000 
     33 CA         11.6640   33.9250   -8.7770 C.3       6 GLP5        0.0000 
     34 CA         14.9365   35.5320   -9.8720 C.3       3 GLC5        0.0000 
     35 CA         17.6550   35.0165   -6.3325 C.3       3 GLC5        0.0000 
     36 CA         17.4350   33.4660   -7.8250 C.3       9 GLL5        0.0000 
     37 CA         22.5943   31.7895   -3.0935 C.3       3 GLC5        0.0000 
     38 CA         20.6050   32.6730   -4.2630 C.3       9 GLL5        0.0000 
     39 CA         23.9220   31.1960   -1.6770 C.3       6 GLP5        0.0000 
     40 CA         22.4982   33.8875   -4.4365 C.3       3 GLC5        0.0000 
     41 CA         21.9280   32.0930   -4.7570 C.3       9 GLL5        0.0000 
     42 CA         23.7300   35.3920   -4.3630 C.3       6 GLP5        0.0000 
     43 CA         21.9352   33.3115   -6.0960 C.3       3 GLC5        0.0000 
     44 CA         19.7405   33.9972   -3.5442 C.3       3 GLC5        0.0000 
     45 CA         19.4250   35.8080   -2.9950 C.3       6 GLP5        0.0000 
     46 CA         17.3712   31.9160   -3.5633 C.3       3 GLC5        0.0000 
     47 CA         15.6260   32.1730   -2.5430 C.3       6 GLP5        0.0000 
     48 CA         17.8169   34.8918   -9.8347 C.3       3 GLC5        0.0000 
     49 CA         17.6250   33.1680   -9.2500 C.3       9 GLL5        0.0000 
     50 CA         18.3760   36.3740  -10.9070 C.3       6 GLP5        0.0000 
@<TRIPOS>BOND
@<TRIPOS>SUBSTRUCTURE
     1 ALC1       12 GROUP        1 X    ALC  0     ROOT ALC X 1
     2 SEC2        1 GROUP        1 X    SEC  0     **** SEC X 2
     3 GLC5        9 GROUP        1 X    GLC  0     **** GLC X 6
     4 ALP1       14 GROUP        1 Y    ALP  0     ROOT ALP Y 8
     5 SEP2        3 GROUP        1 Y    SEP  0     **** SEP Y 9
     6 GLP5       11 GROUP        1 Y    GLP  0     **** GLP Y 13
     7 ALL1       13 GROUP        1 Z    ALL  0     ROOT ALL Z 15
     8 SEL2        2 GROUP        1 Z    SEL  0     **** SEL Z 16
     9 GLL5       10 GROUP        1 Z    GLL  0     **** GLL Z 20
@<TRIPOS>SET

