#    Name: 3glv_AMP_1_ligand
#    Modification time : Tue Mar 25 12:37:15 2014

@<TRIPOS>MOLECULE
3glv_AMP_1_ligand
   35    37     1     0     0
SMALL
NO_CHARGES


@<TRIPOS>ATOM
      1 P          22.9260   30.1260   -6.1170 P.3       1 AMP201      0.0000 
      2 O1P        23.0970   29.4020   -4.7780 O.co2     1 AMP201      0.0000 
      3 O2P        24.1110   30.9290   -6.5230 O.co2     1 AMP201      0.0000 
      4 O3P        22.2280   29.3240   -7.1660 O.co2     1 AMP201      0.0000 
      5 O5'        21.6950   31.1120   -5.8010 O.3       1 AMP201      0.0000 
      6 C5'        21.9280   32.0930   -4.7570 C.3       1 AMP201      0.0000 
      7 C4'        20.6050   32.6730   -4.2630 C.3       1 AMP201      0.0000 
      8 O4'        20.0860   33.4610   -5.3740 O.3       1 AMP201      0.0000 
      9 C3'        19.5070   31.7000   -3.9240 C.3       1 AMP201      0.0000 
     10 O3'        18.6280   32.2580   -2.8900 O.3       1 AMP201      0.0000 
     11 C2'        18.7260   31.6180   -5.2430 C.3       1 AMP201      0.0000 
     12 O2'        17.3170   31.1910   -5.1270 O.3       1 AMP201      0.0000 
     13 C1'        18.8060   33.0570   -5.7660 C.3       1 AMP201      0.0000 
     14 N9         18.5720   33.0500   -7.2380 N.pl3     1 AMP201      0.0000 
     15 C8         19.4150   32.5180   -8.1880 C.2       1 AMP201      0.0000 
     16 N7         18.8600   32.6100   -9.4320 N.2       1 AMP201      0.0000 
     17 C5         17.6250   33.1680   -9.2500 C.ar      1 AMP201      0.0000 
     18 C6         16.5360   33.5380  -10.1500 C.ar      1 AMP201      0.0000 
     19 N6         16.7390   33.2570  -11.4620 N.pl3     1 AMP201      0.0000 
     20 N1         15.3980   34.0950   -9.6510 N.ar      1 AMP201      0.0000 
     21 C2         15.3070   34.3520   -8.3100 C.ar      1 AMP201      0.0000 
     22 N3         16.2780   34.0530   -7.4180 N.ar      1 AMP201      0.0000 
     23 C4         17.4350   33.4660   -7.8250 C.ar      1 AMP201      0.0000 
     24 H          22.5467   32.9206   -5.1238 H         1 AMP201      0.0000 
     25 H          22.4435   31.6430   -3.9002 H         1 AMP201      0.0000 
     26 H          20.7865   33.3298   -3.4359 H         1 AMP201      0.0000 
     27 H          19.8950   30.7716   -3.6965 H         1 AMP201      0.0000 
     28 H          19.2842   31.0078   -5.9249 H         1 AMP201      0.0000 
     29 H          18.0357   33.6046   -5.2609 H         1 AMP201      0.0000 
     30 H          20.2853   32.1312   -7.9930 H         1 AMP201      0.0000 
     31 H          17.6122   32.8261  -11.6897 H         1 AMP201      0.0000 
     32 H          15.9975   33.5057  -12.0851 H         1 AMP201      0.0000 
     33 H          14.4160   34.8150   -7.9546 H         1 AMP201      0.0000 
     34 H          17.7149   31.9181   -3.1157 H         1 AMP201      0.0000 
     35 H          17.3281   30.2087   -5.3142 H         1 AMP201      0.0000 
@<TRIPOS>BOND
     1    2    1 ar   
     2    3    1 ar   
     3    4    1 ar   
     4    5    1 1    
     5    6    5 1    
     6    7    6 1    
     7   24    6 1    
     8   25    6 1    
     9    8    7 1    
    10    9    7 1    
    11   26    7 1    
    12   13    8 1    
    13   10    9 1    
    14   11    9 1    
    15   27    9 1    
    16   34   10 1    
    17   12   11 1    
    18   13   11 1    
    19   28   11 1    
    20   35   12 1    
    21   14   13 1    
    22   29   13 1    
    23   15   14 1    
    24   23   14 1    
    25   16   15 2    
    26   30   15 1    
    27   17   16 1    
    28   18   17 ar   
    29   23   17 ar   
    30   19   18 1    
    31   20   18 ar   
    32   31   19 1    
    33   32   19 1    
    34   21   20 ar   
    35   22   21 ar   
    36   33   21 1    
    37   23   22 ar   
@<TRIPOS>SUBSTRUCTURE
     1 AMP201      1 GROUP   
@<TRIPOS>SET

