#    Name: 1lqu_FAD_1_INTS_M
#    Modification time : Tue Mar 25 11:15:18 2014

@<TRIPOS>MOLECULE
1lqu_FAD_1_INTS_M
  121     0     9     0     0
SMALL
NO_CHARGES


@<TRIPOS>ATOM
      1 N           3.9980  -12.3020   15.7175 N.am      2 SEC2        0.0000 
      2 N           4.4900  -10.9730   16.1180 N.am      8 SEL2        0.0000 
      3 N           3.5060  -13.6310   15.3170 N.am      5 SEP2        0.0000 
      4 CA          2.6660   -8.6340   19.4345 C.3       3 GLC5        0.0000 
      5 CA          3.4830  -10.4450   19.7380 C.3       9 GLL5        0.0000 
      6 CA          1.8490   -6.8230   19.1310 C.3       6 GLP5        0.0000 
      7 CA          4.7835  -11.4675   22.3955 C.3       3 GLC5        0.0000 
      8 CA          3.6560  -11.5680   20.7630 C.3       9 GLL5        0.0000 
      9 CA          5.9110  -11.3670   24.0280 C.3       6 GLP5        0.0000 
     10 O           4.1180  -14.3275   21.7380 O.2       1 ALC1        0.0000 
     11 O           3.6000  -14.0170   20.5610 O.2       7 ALL1        0.0000 
     12 O           4.6360  -14.6380   22.9150 O.2       4 ALP1        0.0000 
     13 CA         -0.1145  -13.0940   22.3955 C.3       3 GLC5        0.0000 
     14 CA          1.7310  -12.7650   21.5310 C.3       9 GLL5        0.0000 
     15 CA         -1.9600  -13.4230   23.2600 C.3       6 GLP5        0.0000 
     16 N           0.1320  -14.0920   20.9105 N.am      2 SEC2        0.0000 
     17 N           1.1290  -13.9890   21.8870 N.am      8 SEL2        0.0000 
     18 N          -0.8650  -14.1950   19.9340 N.am      5 SEP2        0.0000 
     19 O           1.9315  -14.8740   22.4750 O.2       1 ALC1        0.0000 
     20 O           1.1290  -13.9890   21.8870 O.2       7 ALL1        0.0000 
     21 O           2.7340  -15.7590   23.0630 O.2       4 ALP1        0.0000 
     22 CA          4.1895  -11.7220   23.3570 C.3       3 GLC5        0.0000 
     23 CA          2.4680  -12.0770   22.6860 C.3       9 GLL5        0.0000 
     24 CA          2.6270   -9.8830   22.6840 C.3       3 GLC5        0.0000 
     25 CA          2.7860   -7.6890   22.6820 C.3       6 GLP5        0.0000 
     26 CA          2.4130   -9.9895   27.4520 C.3       3 GLC5        0.0000 
     27 CA          0.5080  -10.7160   26.9280 C.3       9 GLL5        0.0000 
     28 CA          4.3180   -9.2630   27.9760 C.3       6 GLP5        0.0000 
     29 CA          1.3135  -10.2930   28.9540 C.3       3 GLC5        0.0000 
     30 CA          2.1190   -9.8700   30.9800 C.3       6 GLP5        0.0000 
     31 O          -0.6880   -9.7675   28.9790 O.2       1 ALC1        0.0000 
     32 O          -0.3840   -9.9210   27.5420 O.2       7 ALL1        0.0000 
     33 O          -0.9920   -9.6140   30.4160 O.2       4 ALP1        0.0000 
     34 N           1.0165  -11.6520   29.1880 N.am      2 SEC2        0.0000 
     35 N           1.3550  -11.4680   27.6900 N.am      8 SEL2        0.0000 
     36 N           0.6780  -11.8360   30.6860 N.am      5 SEP2        0.0000 
     37 CA          3.3105  -10.7435   27.5305 C.3       3 GLC5        0.0000 
     38 CA          2.3030  -12.2240   27.0850 C.3       9 GLL5        0.0000 
     39 CA          3.5755  -13.7730   26.6865 C.3       3 GLC5        0.0000 
     40 CA          4.8480  -15.3220   26.2880 C.3       6 GLP5        0.0000 
     41 CA          1.2235  -13.4830   26.4440 C.3       3 GLC5        0.0000 
     42 CA          0.1440  -14.7420   25.8030 C.3       6 GLP5        0.0000 
     43 CA          1.0335  -13.1360   28.6810 C.3       3 GLC5        0.0000 
     44 CA         -0.2360  -14.0480   30.2770 C.3       6 GLP5        0.0000 
     45 CA          2.8315  -11.4820   29.0800 C.3       3 GLC5        0.0000 
     46 CA          3.3600  -10.7400   31.0750 C.3       6 GLP5        0.0000 
     47 N           2.4730  -13.8185   25.9665 N.am      2 SEC2        0.0000 
     48 N           2.4980  -12.3180   25.7520 N.am      8 SEL2        0.0000 
     49 N           2.4480  -15.3190   26.1810 N.am      5 SEP2        0.0000 
     50 CA          3.7945  -11.4660   24.5175 C.3       3 GLC5        0.0000 
     51 CA          1.6780  -11.5650   25.0070 C.3       9 GLL5        0.0000 
     52 N           7.0015   -8.9965    8.1825 N.am      2 SEC2        0.0000 
     53 N           5.6820   -9.8790    7.5850 N.am      8 SEL2        0.0000 
     54 N           8.3210   -8.1140    8.7800 N.am      5 SEP2        0.0000 
     55 N           7.9990   -8.9825    7.6645 N.am      2 SEC2        0.0000 
     56 N           7.6770   -9.8510    6.5490 N.am      8 SEL2        0.0000 
     57 CA         -2.6795  -13.5785    9.4915 C.3       3 GLC5        0.0000 
     58 CA         -1.7060  -12.0200    8.9500 C.3       9 GLL5        0.0000 
     59 CA         -3.6530  -15.1370   10.0330 C.3       6 GLP5        0.0000 
     60 CA         -2.8215  -11.1480   10.5105 C.3       3 GLC5        0.0000 
     61 CA         -3.9370  -10.2760   12.0710 C.3       6 GLP5        0.0000 
     62 CA         -2.4090  -10.0135   11.3605 C.3       3 GLC5        0.0000 
     63 CA         -0.8810   -9.7510   10.6500 C.3       9 GLL5        0.0000 
     64 CA          0.1465   -8.1400   10.9950 C.3       3 GLC5        0.0000 
     65 CA          1.1740   -6.5290   11.3400 C.3       6 GLP5        0.0000 
     66 CA          2.1795   -8.5120    7.5845 C.3       3 GLC5        0.0000 
     67 CA          2.3000  -10.4060    8.7420 C.3       9 GLL5        0.0000 
     68 CA          2.0590   -6.6180    6.4270 C.3       6 GLP5        0.0000 
     69 CA          5.6125   -7.6680    8.4800 C.3       3 GLC5        0.0000 
     70 CA          4.1010   -8.8300    9.5360 C.3       9 GLL5        0.0000 
     71 CA          7.1240   -6.5060    7.4240 C.3       6 GLP5        0.0000 
     72 CA          3.0800   -7.7240    7.9815 C.3       3 GLC5        0.0000 
     73 CA          6.4380  -10.1710   10.3020 C.3       3 GLC5        0.0000 
     74 CA          4.7020   -9.4080   10.8150 C.3       9 GLL5        0.0000 
     75 CA          8.1740  -10.9340    9.7890 C.3       6 GLP5        0.0000 
     76 N           7.0195   -6.8750   12.1625 N.am      2 SEC2        0.0000 
     77 N           5.7960   -7.3020   11.3760 N.am      8 SEL2        0.0000 
     78 N           8.2430   -6.4480   12.9490 N.am      5 SEP2        0.0000 
     79 O           5.5090   -6.4245   10.3220 O.2       1 ALC1        0.0000 
     80 O           5.7960   -7.3020   11.3760 O.2       7 ALL1        0.0000 
     81 O           5.2220   -5.5470    9.2680 O.2       4 ALP1        0.0000 
     82 CA          6.9810   -9.9090   13.7090 C.3       3 GLC5        0.0000 
     83 CA          5.5000   -8.7590   13.1770 C.3       9 GLL5        0.0000 
     84 CA          8.4620  -11.0590   14.2410 C.3       6 GLP5        0.0000 
     85 CA          4.1835   -7.0210   12.7760 C.3       3 GLC5        0.0000 
     86 CA          2.8670   -5.2830   12.3750 C.3       6 GLP5        0.0000 
     87 CA          4.6015   -5.9525   14.0810 C.3       3 GLC5        0.0000 
     88 CA          5.1480   -7.7860   14.3030 C.3       9 GLL5        0.0000 
     89 CA          4.0550   -4.1190   13.8590 C.3       6 GLP5        0.0000 
     90 N           8.1680   -8.4665   17.4675 N.am      2 SEC2        0.0000 
     91 N           6.6980   -8.4680   17.6900 N.am      8 SEL2        0.0000 
     92 N           9.6380   -8.4650   17.2450 N.am      5 SEP2        0.0000 
     93 N           7.3985   -7.5230   18.3730 N.am      2 SEC2        0.0000 
     94 N           8.0990   -6.5780   19.0560 N.am      5 SEP2        0.0000 
     95 N           6.9000   -9.1080   18.8725 N.am      2 SEC2        0.0000 
     96 N           7.1020   -9.7480   20.0550 N.am      5 SEP2        0.0000 
     97 N           4.9625   -5.0690   17.0440 N.am      2 SEC2        0.0000 
     98 N           5.2340   -6.4550   17.1570 N.am      8 SEL2        0.0000 
     99 N           4.6910   -3.6830   16.9310 N.am      5 SEP2        0.0000 
    100 CA          3.1778   -9.3477   21.4663 C.3       3 GLC5        0.0000 
    101 CA          3.7523  -13.3330   19.0337 C.3       3 GLC5        0.0000 
    102 CA          4.2610  -14.4660   17.4440 C.3       6 GLP5        0.0000 
    103 CA          0.6410  -12.9475   25.7141 C.3       3 GLC5        0.0000 
    104 CA          0.6880  -10.7660   25.5590 C.3       9 GLL5        0.0000 
    105 CA          1.7910   -9.3760   25.4056 C.3       3 GLC5        0.0000 
    106 CA          2.4440   -7.5990   25.1860 C.3       6 GLP5        0.0000 
    107 CA          1.8567  -13.6170    8.0368 C.3       3 GLC5        0.0000 
    108 CA          1.9110  -11.4780    7.9300 C.3       9 GLL5        0.0000 
    109 CA          2.4480  -15.5250    8.1020 C.3       6 GLP5        0.0000 
    110 CA         -1.7982  -10.3050    7.9740 C.3       3 GLC5        0.0000 
    111 CA         -0.3210  -11.4260    8.8840 C.3       9 GLL5        0.0000 
    112 CA         -2.5830   -8.8870    7.0310 C.3       6 GLP5        0.0000 
    113 CA         -0.2776  -13.3167    9.8826 C.3       3 GLC5        0.0000 
    114 CA          0.2230  -14.7820   11.0660 C.3       6 GLP5        0.0000 
    115 CA         -1.4915   -9.4737    8.6020 C.3       3 GLC5        0.0000 
    116 CA          0.8848  -10.1159   11.7942 C.3       3 GLC5        0.0000 
    117 CA          0.0810  -10.3700    9.6960 C.3       9 GLL5        0.0000 
    118 CA          1.2780  -10.2620   13.6870 C.3       6 GLP5        0.0000 
    119 CA          3.5139   -7.2952   11.1309 C.3       3 GLC5        0.0000 
    120 CA          4.9060   -8.2920   11.8600 C.3       9 GLL5        0.0000 
    121 CA          2.3740   -5.8850   11.2440 C.3       6 GLP5        0.0000 
@<TRIPOS>BOND
@<TRIPOS>SUBSTRUCTURE
     1 ALC1       10 GROUP        1 X    ALC  0     ROOT ALC X 1
     2 SEC2        1 GROUP        1 X    SEC  0     **** SEC X 2
     3 GLC5        4 GROUP        1 X    GLC  0     **** GLC X 6
     4 ALP1       12 GROUP        1 Y    ALP  0     ROOT ALP Y 8
     5 SEP2        3 GROUP        1 Y    SEP  0     **** SEP Y 9
     6 GLP5        6 GROUP        1 Y    GLP  0     **** GLP Y 13
     7 ALL1       11 GROUP        1 Z    ALL  0     ROOT ALL Z 15
     8 SEL2        2 GROUP        1 Z    SEL  0     **** SEL Z 16
     9 GLL5        5 GROUP        1 Z    GLL  0     **** GLL Z 20
@<TRIPOS>SET

