#    Name: 1lqu_FAD_1_ligand
#    Modification time : Tue Mar 25 11:15:18 2014

@<TRIPOS>MOLECULE
1lqu_FAD_1_ligand
   84    89     1     0     0
SMALL
NO_CHARGES


@<TRIPOS>ATOM
      1 PA          3.7470  -10.2200   17.1560 P.3       1 FAD1457     0.0000 
      2 O1A         2.2760  -10.1360   17.0910 O.co2     1 FAD1457     0.0000 
      3 O2A         4.4900  -10.9730   16.1180 O.co2     1 FAD1457     0.0000 
      4 O5B         4.1800  -10.8400   18.5560 O.3       1 FAD1457     0.0000 
      5 C5B         3.4830  -10.4450   19.7380 C.3       1 FAD1457     0.0000 
      6 C4B         3.6560  -11.5680   20.7630 C.3       1 FAD1457     0.0000 
      7 O4B         3.2400  -11.0790   22.0420 O.3       1 FAD1457     0.0000 
      8 C3B         2.8310  -12.8320   20.4840 C.3       1 FAD1457     0.0000 
      9 O3B         3.6000  -14.0170   20.5610 O.3       1 FAD1457     0.0000 
     10 C2B         1.7310  -12.7650   21.5310 C.3       1 FAD1457     0.0000 
     11 O2B         1.1290  -13.9890   21.8870 O.3       1 FAD1457     0.0000 
     12 C1B         2.4680  -12.0770   22.6860 C.3       1 FAD1457     0.0000 
     13 N9A         1.5980  -11.4230   23.6590 N.pl3     1 FAD1457     0.0000 
     14 C8A         0.5790  -10.5450   23.3900 C.2       1 FAD1457     0.0000 
     15 N7A         0.0290  -10.1190   24.5290 N.2       1 FAD1457     0.0000 
     16 C5A         0.6880  -10.7660   25.5590 C.ar      1 FAD1457     0.0000 
     17 C6A         0.5080  -10.7160   26.9280 C.ar      1 FAD1457     0.0000 
     18 N6A        -0.3840   -9.9210   27.5420 N.pl3     1 FAD1457     0.0000 
     19 N1A         1.3550  -11.4680   27.6900 N.ar      1 FAD1457     0.0000 
     20 C2A         2.3030  -12.2240   27.0850 C.ar      1 FAD1457     0.0000 
     21 N3A         2.4980  -12.3180   25.7520 N.ar      1 FAD1457     0.0000 
     22 C4A         1.6780  -11.5650   25.0070 C.ar      1 FAD1457     0.0000 
     23 N1          5.6820   -9.8790    7.5850 N.2       1 FAD1457     0.0000 
     24 C2          6.5290  -10.3050    6.6210 C.2       1 FAD1457     0.0000 
     25 O2          7.6770   -9.8510    6.5490 O.2       1 FAD1457     0.0000 
     26 N3          6.0950  -11.2500    5.7190 N.am      1 FAD1457     0.0000 
     27 C4          4.8520  -11.8310    5.7820 C.2       1 FAD1457     0.0000 
     28 O4          4.5330  -12.7210    4.9470 O.2       1 FAD1457     0.0000 
     29 C4X         4.0140  -11.4200    6.8100 C.2       1 FAD1457     0.0000 
     30 N5          2.7780  -12.0060    6.9810 N.2       1 FAD1457     0.0000 
     31 C5X         1.9110  -11.4780    7.9300 C.ar      1 FAD1457     0.0000 
     32 C6          0.6200  -11.9400    8.0130 C.ar      1 FAD1457     0.0000 
     33 C7         -0.3210  -11.4260    8.8840 C.ar      1 FAD1457     0.0000 
     34 C7M        -1.7060  -12.0200    8.9500 C.3       1 FAD1457     0.0000 
     35 C8          0.0810  -10.3700    9.6960 C.ar      1 FAD1457     0.0000 
     36 C8M        -0.8810   -9.7510   10.6500 C.3       1 FAD1457     0.0000 
     37 C9          1.3830   -9.8790    9.6300 C.ar      1 FAD1457     0.0000 
     38 C9A         2.3000  -10.4060    8.7420 C.ar      1 FAD1457     0.0000 
     39 N10         3.6080   -9.9210    8.6430 N.pl3     1 FAD1457     0.0000 
     40 C10         4.4400  -10.4280    7.6910 C.2       1 FAD1457     0.0000 
     41 C1'         4.1010   -8.8300    9.5360 C.3       1 FAD1457     0.0000 
     42 C2'         4.7020   -9.4080   10.8150 C.3       1 FAD1457     0.0000 
     43 O2'         3.8360  -10.3990   11.2840 O.3       1 FAD1457     0.0000 
     44 C3'         4.9060   -8.2920   11.8600 C.3       1 FAD1457     0.0000 
     45 O3'         5.7960   -7.3020   11.3760 O.3       1 FAD1457     0.0000 
     46 C4'         5.5000   -8.7590   13.1770 C.3       1 FAD1457     0.0000 
     47 O4'         5.0910  -10.0670   13.5410 O.3       1 FAD1457     0.0000 
     48 C5'         5.1480   -7.7860   14.3030 C.3       1 FAD1457     0.0000 
     49 O5'         5.9280   -8.2090   15.4070 O.3       1 FAD1457     0.0000 
     50 P           5.5770   -7.8860   16.9240 P.3       1 FAD1457     0.0000 
     51 O1P         6.6980   -8.4680   17.6900 O.co2     1 FAD1457     0.0000 
     52 O2P         5.2340   -6.4550   17.1570 O.co2     1 FAD1457     0.0000 
     53 O3P         4.2170   -8.6830   17.2400 O.3       1 FAD1457     0.0000 
     54 H           2.4197  -10.3151   19.5609 H         1 FAD1457     0.0000 
     55 H           3.8905   -9.5349   20.1675 H         1 FAD1457     0.0000 
     56 H           4.7010  -11.8474   20.8020 H         1 FAD1457     0.0000 
     57 H           2.3614  -12.6873   19.5200 H         1 FAD1457     0.0000 
     58 H           1.0120  -12.0183   21.1669 H         1 FAD1457     0.0000 
     59 H           3.1089  -12.7975   23.1472 H         1 FAD1457     0.0000 
     60 H           0.3113  -10.2834   22.4898 H         1 FAD1457     0.0000 
     61 H          -0.9117   -9.3121   26.9497 H         1 FAD1457     0.0000 
     62 H          -0.4406  -10.0091   28.5365 H         1 FAD1457     0.0000 
     63 H           2.9559  -12.7984   27.7234 H         1 FAD1457     0.0000 
     64 H           6.7485  -11.5407    4.9436 H         1 FAD1457     0.0000 
     65 H           0.3273  -12.7325    7.3766 H         1 FAD1457     0.0000 
     66 H           1.6633   -9.1046   10.2605 H         1 FAD1457     0.0000 
     67 H           3.2775   -8.1645    9.8047 H         1 FAD1457     0.0000 
     68 H           4.8659   -8.2425    9.0231 H         1 FAD1457     0.0000 
     69 H           5.6758   -9.8088   10.5626 H         1 FAD1457     0.0000 
     70 H           3.9365   -7.8426   12.0756 H         1 FAD1457     0.0000 
     71 H           6.6001   -8.7210   13.0733 H         1 FAD1457     0.0000 
     72 H           4.0890   -7.8636   14.4903 H         1 FAD1457     0.0000 
     73 H           5.4016   -6.7910   13.9739 H         1 FAD1457     0.0000 
     74 H          -1.6838  -12.9866    9.2055 H         1 FAD1457     0.0000 
     75 H          -2.2791  -11.5521    9.6228 H         1 FAD1457     0.0000 
     76 H          -2.1781  -11.9601    8.0705 H         1 FAD1457     0.0000 
     77 H          -0.4623   -9.0051   11.1681 H         1 FAD1457     0.0000 
     78 H          -1.6774   -9.3705   10.1799 H         1 FAD1457     0.0000 
     79 H          -1.2229  -10.4144   11.3156 H         1 FAD1457     0.0000 
     80 H           3.9346  -14.0475   21.5029 H         1 FAD1457     0.0000 
     81 H           1.8691  -14.5380   22.2753 H         1 FAD1457     0.0000 
     82 H           4.0664  -10.5074   12.2510 H         1 FAD1457     0.0000 
     83 H           5.3036   -6.8540   10.6298 H         1 FAD1457     0.0000 
     84 H           4.9624  -10.0314   14.5321 H         1 FAD1457     0.0000 
@<TRIPOS>BOND
     1    2    1 ar   
     2    3    1 ar   
     3    4    1 1    
     4   53    1 1    
     5    5    4 1    
     6    6    5 1    
     7   54    5 1    
     8   55    5 1    
     9    7    6 1    
    10    8    6 1    
    11   56    6 1    
    12   12    7 1    
    13    9    8 1    
    14   10    8 1    
    15   57    8 1    
    16   80    9 1    
    17   11   10 1    
    18   12   10 1    
    19   58   10 1    
    20   81   11 1    
    21   13   12 1    
    22   59   12 1    
    23   14   13 1    
    24   22   13 1    
    25   15   14 2    
    26   60   14 1    
    27   16   15 1    
    28   17   16 ar   
    29   22   16 ar   
    30   18   17 1    
    31   19   17 ar   
    32   61   18 1    
    33   62   18 1    
    34   20   19 ar   
    35   21   20 ar   
    36   63   20 1    
    37   22   21 ar   
    38   24   23 1    
    39   40   23 2    
    40   25   24 2    
    41   26   24 am   
    42   27   26 am   
    43   64   26 1    
    44   28   27 2    
    45   29   27 1    
    46   30   29 2    
    47   40   29 1    
    48   31   30 1    
    49   32   31 ar   
    50   38   31 ar   
    51   33   32 ar   
    52   65   32 1    
    53   34   33 1    
    54   35   33 ar   
    55   74   34 1    
    56   75   34 1    
    57   76   34 1    
    58   36   35 1    
    59   37   35 ar   
    60   77   36 1    
    61   78   36 1    
    62   79   36 1    
    63   38   37 ar   
    64   66   37 1    
    65   39   38 1    
    66   40   39 1    
    67   41   39 1    
    68   42   41 1    
    69   67   41 1    
    70   68   41 1    
    71   43   42 1    
    72   44   42 1    
    73   69   42 1    
    74   82   43 1    
    75   45   44 1    
    76   46   44 1    
    77   70   44 1    
    78   83   45 1    
    79   47   46 1    
    80   48   46 1    
    81   71   46 1    
    82   84   47 1    
    83   49   48 1    
    84   72   48 1    
    85   73   48 1    
    86   50   49 1    
    87   51   50 ar   
    88   52   50 ar   
    89   53   50 1    
@<TRIPOS>SUBSTRUCTURE
     1 FAD1457     1 GROUP   
@<TRIPOS>SET

