#    Name: 1nen_DNT_1_INTS_M
#    Modification time : Mon Mar 24 18:06:46 2014

@<TRIPOS>MOLECULE
1nen_DNT_1_INTS_M
   41     0     6     0     0
SMALL
NO_CHARGES


@<TRIPOS>ATOM
      1 CA         89.1970   94.8725  110.5530 C.3       2 GLC5        0.0000 
      2 CA         89.4940   95.2170  108.8400 C.3       6 GLL5        0.0000 
      3 CA         88.9000   94.5280  112.2660 C.3       4 GLP5        0.0000 
      4 CA         91.0290   94.5955  108.5460 C.3       2 GLC5        0.0000 
      5 CA         92.5640   93.9740  108.2520 C.3       4 GLP5        0.0000 
      6 CA         89.3905   93.0785  109.4735 C.3       2 GLC5        0.0000 
      7 CA         89.2870   90.9400  110.1070 C.3       4 GLP5        0.0000 
      8 CA         86.3570   95.8440  109.1450 C.3       2 GLC5        0.0000 
      9 CA         87.3170   95.4350  107.4580 C.3       6 GLL5        0.0000 
     10 CA         85.3970   96.2530  110.8320 C.3       4 GLP5        0.0000 
     11 N          87.1120   98.8290  108.3035 N.am      1 SEC2        0.0000 
     12 N          87.1510   97.7940  107.0900 N.am      5 SEL2        0.0000 
     13 N          87.0730   99.8640  109.5170 N.am      3 SEP2        0.0000 
     14 N          87.0490   98.6420  106.0760 N.am      1 SEC2        0.0000 
     15 N          86.9470   99.4900  105.0620 N.am      3 SEP2        0.0000 
     16 CA         85.6825   93.8620  105.6570 C.3       2 GLC5        0.0000 
     17 CA         86.6210   94.2140  107.6530 C.3       6 GLL5        0.0000 
     18 CA         84.7440   93.5100  103.6610 C.3       4 GLP5        0.0000 
     19 N          86.0280   99.3825  108.2035 N.am      1 SEC2        0.0000 
     20 N          84.9830   98.9010  106.8900 N.am      5 SEL2        0.0000 
     21 N          85.9650   99.1955  105.9760 N.am      1 SEC2        0.0000 
     22 CA         88.3137   95.0740  102.4870 C.3       2 GLC5        0.0000 
     23 CA         88.9920   96.4040  102.4730 C.3       6 GLL5        0.0000 
     24 CA         87.2250   93.6300  103.1120 C.3       4 GLP5        0.0000 
     25 CA         87.9168   96.2625  100.5155 C.3       2 GLC5        0.0000 
     26 CA         86.4310   96.0070   99.1690 C.3       4 GLP5        0.0000 
     27 CA         90.8635   94.7815  107.5540 C.3       2 GLC5        0.0000 
     28 CA         89.4570   95.7090  106.2490 C.3       6 GLL5        0.0000 
     29 CA         88.3015   94.7556  104.2150 C.3       2 GLC5        0.0000 
     30 CA         89.2687   97.1045  109.0072 C.3       2 GLC5        0.0000 
     31 CA         88.8690   95.4690  107.4630 C.3       6 GLL5        0.0000 
     32 CA         89.3560   98.8660  109.8630 C.3       4 GLP5        0.0000 
     33 CA         85.0217   96.1625  109.0862 C.3       2 GLC5        0.0000 
     34 CA         84.9910   96.6920  107.2410 C.3       6 GLL5        0.0000 
     35 CA         83.0495   94.7677  108.5143 C.3       2 GLC5        0.0000 
     36 CA         84.3020   95.4520  107.4400 C.3       6 GLL5        0.0000 
     37 CA         81.4050   94.7340  109.4830 C.3       4 GLP5        0.0000 
     38 CA         84.7190   94.1557  105.6033 C.3       2 GLC5        0.0000 
     39 CA         85.5583   94.4843  109.3130 C.3       2 GLC5        0.0000 
     40 CA         85.0860   94.1510  107.6510 C.3       6 GLL5        0.0000 
     41 CA         85.2630   94.7860  110.9740 C.3       4 GLP5        0.0000 
@<TRIPOS>BOND
@<TRIPOS>SUBSTRUCTURE
     1 SEC2       11 GROUP        1 X    SEC  0     ROOT SEC X 2
     2 GLC5        1 GROUP        1 X    GLC  0     **** GLC X 6
     3 SEP2       13 GROUP        1 Y    SEP  0     ROOT SEP Y 9
     4 GLP5        3 GROUP        1 Y    GLP  0     **** GLP Y 13
     5 SEL2       12 GROUP        1 Z    SEL  0     ROOT SEL Z 16
     6 GLL5        2 GROUP        1 Z    GLL  0     **** GLL Z 20
@<TRIPOS>SET

