#    Name: 1nen_DNT_1_ligand
#    Modification time : Mon Mar 24 18:06:46 2014

@<TRIPOS>MOLECULE
1nen_DNT_1_ligand
   37    37     1     0     0
SMALL
NO_CHARGES


@<TRIPOS>ATOM
      1 C13        89.8130   96.6320  101.2510 C.3       1 DNT306      0.0000 
      2 C12        88.9920   96.4040  102.4730 C.3       1 DNT306      0.0000 
      3 C11        89.7390   96.1740  103.7770 C.3       1 DNT306      0.0000 
      4 C9         88.8590   95.9330  104.9970 C.3       1 DNT306      0.0000 
      5 C8         89.4570   95.7090  106.2490 C.3       1 DNT306      0.0000 
      6 C7         88.8690   95.4690  107.4630 C.3       1 DNT306      0.0000 
      7 C10        89.4940   95.2170  108.8400 C.3       1 DNT306      0.0000 
      8 C6         87.3170   95.4350  107.4580 C.ar      1 DNT306      0.0000 
      9 C1         86.5200   96.7010  107.2610 C.ar      1 DNT306      0.0000 
     10 O1         87.1510   97.7940  107.0900 O.co2     1 DNT306      0.0000 
     11 C2         84.9910   96.6920  107.2410 C.ar      1 DNT306      0.0000 
     12 C3         84.3020   95.4520  107.4400 C.ar      1 DNT306      0.0000 
     13 C4         85.0860   94.1510  107.6510 C.ar      1 DNT306      0.0000 
     14 C5         86.6210   94.2140  107.6530 C.ar      1 DNT306      0.0000 
     15 N4         84.4560   93.0580  107.8300 N.pl3     1 DNT306      0.0000 
     16 O61        83.1470   93.0650  107.8170 O.2       1 DNT306      0.0000 
     17 O41        85.0450   91.9330  108.0270 O.2       1 DNT306      0.0000 
     18 N6         84.3720   97.7810  107.0700 N.pl3     1 DNT306      0.0000 
     19 O62        84.9830   98.9010  106.8900 O.2       1 DNT306      0.0000 
     20 O42        83.0800   97.7960  107.0590 O.2       1 DNT306      0.0000 
     21 H          88.3115   95.5287  102.3032 H         1 DNT306      0.0000 
     22 H          88.2972   97.2723  102.6189 H         1 DNT306      0.0000 
     23 H          90.3916   97.0490  103.9756 H         1 DNT306      0.0000 
     24 H          90.4201   95.3071  103.6520 H         1 DNT306      0.0000 
     25 H          88.1606   95.0721  104.7219 H         1 DNT306      0.0000 
     26 H          88.1335   96.8139  105.0465 H         1 DNT306      0.0000 
     27 H          90.2554   96.5972  106.4035 H         1 DNT306      0.0000 
     28 H          90.2894   94.8561  106.0757 H         1 DNT306      0.0000 
     29 H          88.7732   96.8800  107.7642 H         1 DNT306      0.0000 
     30 H          83.3018   95.3885  107.4488 H         1 DNT306      0.0000 
     31 H          87.1032   93.3354  107.8012 H         1 DNT306      0.0000 
     32 H          90.3959   97.4396  101.3405 H         1 DNT306      0.0000 
     33 H          90.4141   95.8566  101.0575 H         1 DNT306      0.0000 
     34 H          89.2430   96.7703  100.4411 H         1 DNT306      0.0000 
     35 H          90.0813   94.4076  108.8388 H         1 DNT306      0.0000 
     36 H          90.0572   95.9874  109.1388 H         1 DNT306      0.0000 
     37 H          88.7977   95.0728  109.5431 H         1 DNT306      0.0000 
@<TRIPOS>BOND
     1    2    1 1    
     2   32    1 1    
     3   33    1 1    
     4   34    1 1    
     5    3    2 1    
     6   21    2 1    
     7   22    2 1    
     8    4    3 1    
     9   23    3 1    
    10   24    3 1    
    11    5    4 1    
    12   25    4 1    
    13   26    4 1    
    14    6    5 1    
    15   27    5 1    
    16   28    5 1    
    17    7    6 1    
    18    8    6 1    
    19   29    6 1    
    20   35    7 1    
    21   36    7 1    
    22   37    7 1    
    23    9    8 ar   
    24   14    8 ar   
    25   10    9 ar   
    26   11    9 ar   
    27   12   11 ar   
    28   18   11 1    
    29   13   12 ar   
    30   30   12 1    
    31   14   13 ar   
    32   15   13 1    
    33   31   14 1    
    34   16   15 2    
    35   17   15 2    
    36   19   18 2    
    37   20   18 2    
@<TRIPOS>SUBSTRUCTURE
     1 DNT306      1 GROUP   
@<TRIPOS>SET

