#    Name: 1pjt_SAH_2_INTS_M
#    Modification time : Mon Mar 24 21:45:23 2014

@<TRIPOS>MOLECULE
1pjt_SAH_2_INTS_M
   79     0     9     0     0
SMALL
NO_CHARGES


@<TRIPOS>ATOM
      1 O         -14.1830  144.7110   48.4175 O.2       1 ALC1        0.0000 
      2 O         -12.7680  144.6970   48.2550 O.2       7 ALL1        0.0000 
      3 O         -15.5980  144.7250   48.5800 O.2       4 ALP1        0.0000 
      4 O         -12.6930  144.2725   49.4925 O.2       1 ALC1        0.0000 
      5 O         -12.6180  143.8480   50.7300 O.2       4 ALP1        0.0000 
      6 CA        -12.9995  143.5840   45.7435 C.3       3 GLC5        0.0000 
      7 CA        -11.7980  144.0290   47.3690 C.3       9 GLL5        0.0000 
      8 CA        -14.2010  143.1390   44.1180 C.3       6 GLP5        0.0000 
      9 CA         -9.2575  145.0095   50.6695 C.3       3 GLC5        0.0000 
     10 CA         -8.2780  145.6080   49.0140 C.3       9 GLL5        0.0000 
     11 CA        -10.2370  144.4110   52.3250 C.3       6 GLP5        0.0000 
     12 CA         -8.2400  143.5320   49.3375 C.3       3 GLC5        0.0000 
     13 CA         -8.2020  141.4560   49.6610 C.3       6 GLP5        0.0000 
     14 CA         -7.2910  145.6385   50.6395 C.3       3 GLC5        0.0000 
     15 CA         -6.3040  145.6690   52.2650 C.3       6 GLP5        0.0000 
     16 N         -14.3840  142.6550   46.8740 N.am      2 SEC2        0.0000 
     17 N         -13.3340  142.2200   47.5610 N.am      8 SEL2        0.0000 
     18 N         -15.4340  143.0900   46.1870 N.am      5 SEP2        0.0000 
     19 N         -13.2465  140.9840   47.8665 N.am      2 SEC2        0.0000 
     20 N         -13.1590  139.7480   48.1720 N.am      5 SEP2        0.0000 
     21 N         -12.2715  140.7855   47.3775 N.am      2 SEC2        0.0000 
     22 N         -11.3840  141.8230   46.5830 N.am      8 SEL2        0.0000 
     23 N         -11.5910  140.5285   46.0320 N.am      2 SEC2        0.0000 
     24 N         -11.7980  139.2340   45.4810 N.am      5 SEP2        0.0000 
     25 CA         -7.2770  142.9190   48.5275 C.3       3 GLC5        0.0000 
     26 CA         -6.3520  144.3820   47.3940 C.3       9 GLL5        0.0000 
     27 N          -3.6640  142.7125   48.5870 N.am      2 SEC2        0.0000 
     28 N          -4.1060  142.5990   47.1730 N.am      8 SEL2        0.0000 
     29 N          -3.2220  142.8260   50.0010 N.am      5 SEP2        0.0000 
     30 O          -3.3620  141.6730   46.6575 O.2       1 ALC1        0.0000 
     31 O          -4.1060  142.5990   47.1730 O.2       7 ALL1        0.0000 
     32 O          -2.6180  140.7470   46.1420 O.2       4 ALP1        0.0000 
     33 CA         -7.8430  141.0295   45.8380 C.3       3 GLC5        0.0000 
     34 CA         -6.2730  142.3230   46.1740 C.3       9 GLL5        0.0000 
     35 CA         -9.4130  139.7360   45.5020 C.3       6 GLP5        0.0000 
     36 CA         -7.2375  141.8895   47.9175 C.3       3 GLC5        0.0000 
     37 CA         -9.2435  140.4260   41.2315 C.3       3 GLC5        0.0000 
     38 CA         -7.3390  140.9400   41.6020 C.3       9 GLL5        0.0000 
     39 CA        -11.1480  139.9120   40.8610 C.3       6 GLP5        0.0000 
     40 CA         -7.1750  138.8415   42.1100 C.3       3 GLC5        0.0000 
     41 CA         -7.0110  136.7430   42.6180 C.3       6 GLP5        0.0000 
     42 CA         -5.9760  140.7730   39.9020 C.3       3 GLC5        0.0000 
     43 CA         -4.6130  140.6060   38.2020 C.3       6 GLP5        0.0000 
     44 CA         -7.0555  139.2560   40.2855 C.3       3 GLC5        0.0000 
     45 CA         -6.7720  137.5720   38.9690 C.3       6 GLP5        0.0000 
     46 O          -8.4110  139.9735   39.3755 O.2       1 ALC1        0.0000 
     47 O          -8.2220  141.0860   40.6130 O.2       7 ALL1        0.0000 
     48 O          -8.6000  138.8610   38.1380 O.2       4 ALP1        0.0000 
     49 N          -6.1570  139.3590   40.2980 N.am      2 SEC2        0.0000 
     50 N          -6.3860  139.9700   41.5360 N.am      8 SEL2        0.0000 
     51 N          -5.9280  138.7480   39.0600 N.am      5 SEP2        0.0000 
     52 CA         -6.2695  138.2545   42.5865 C.3       3 GLC5        0.0000 
     53 CA         -5.5280  139.7660   42.5550 C.3       9 GLL5        0.0000 
     54 CA         -3.6500  139.4070   41.3695 C.3       3 GLC5        0.0000 
     55 CA         -1.7720  139.0480   40.1840 C.3       6 GLP5        0.0000 
     56 CA         -6.1500  138.6690   40.7620 C.3       3 GLC5        0.0000 
     57 CA         -3.7880  140.0845   43.1995 C.3       3 GLC5        0.0000 
     58 CA         -2.0480  140.4030   43.8440 C.3       6 GLP5        0.0000 
     59 CA         -5.5750  139.0155   44.5450 C.3       3 GLC5        0.0000 
     60 CA         -5.6220  138.2650   46.5350 C.3       6 GLP5        0.0000 
     61 CA         -6.0925  139.8625   45.1760 C.3       3 GLC5        0.0000 
     62 CA         -6.5630  141.4600   43.8170 C.3       9 GLL5        0.0000 
     63 CA        -10.2067  142.4087   48.4435 C.3       3 GLC5        0.0000 
     64 CA        -10.3990  144.0780   47.9950 C.3       9 GLL5        0.0000 
     65 CA         -9.3150  140.7640   49.2050 C.3       6 GLP5        0.0000 
     66 CA        -10.2022  144.6043   50.2197 C.3       3 GLC5        0.0000 
     67 CA         -6.9569  145.8049   45.5034 C.3       3 GLC5        0.0000 
     68 CA         -7.1990  145.6410   47.5370 C.3       9 GLL5        0.0000 
     69 CA         -7.8760  146.8610   44.1170 C.3       6 GLP5        0.0000 
     70 CA         -5.1599  145.0959   48.6234 C.3       3 GLC5        0.0000 
     71 CA         -4.2820  145.4430   50.3570 C.3       6 GLP5        0.0000 
     72 CA         -4.6480  144.0645   44.4477 C.3       3 GLC5        0.0000 
     73 CA         -5.3000  144.4860   46.3140 C.3       9 GLL5        0.0000 
     74 CA         -4.1800  144.3620   42.6890 C.3       6 GLP5        0.0000 
     75 CA         -5.6728  140.8822   46.9787 C.3       3 GLC5        0.0000 
     76 CA         -4.9320  143.0480   46.0990 C.3       9 GLL5        0.0000 
     77 CA         -5.7430  139.0790   47.8210 C.3       6 GLP5        0.0000 
     78 CA         -8.2155  140.6538   44.4008 C.3       3 GLC5        0.0000 
     79 CA         -5.5990  142.9667   42.9943 C.3       3 GLC5        0.0000 
@<TRIPOS>BOND
@<TRIPOS>SUBSTRUCTURE
     1 ALC1        1 GROUP        1 X    ALC  0     ROOT ALC X 1
     2 SEC2       16 GROUP        1 X    SEC  0     **** SEC X 2
     3 GLC5        6 GROUP        1 X    GLC  0     **** GLC X 6
     4 ALP1        3 GROUP        1 Y    ALP  0     ROOT ALP Y 8
     5 SEP2       18 GROUP        1 Y    SEP  0     **** SEP Y 9
     6 GLP5        8 GROUP        1 Y    GLP  0     **** GLP Y 13
     7 ALL1        2 GROUP        1 Z    ALL  0     ROOT ALL Z 15
     8 SEL2       17 GROUP        1 Z    SEL  0     **** SEL Z 16
     9 GLL5        7 GROUP        1 Z    GLL  0     **** GLL Z 20
@<TRIPOS>SET

