#    Name: 1pjt_SAH_2_ligand
#    Modification time : Mon Mar 24 21:45:23 2014

@<TRIPOS>MOLECULE
1pjt_SAH_2_ligand
   46    48     1     0     0
SMALL
NO_CHARGES


@<TRIPOS>ATOM
      1 N         -12.7680  144.6970   48.2550 N.4       1 SAH502      0.0000 
      2 CA        -11.7980  144.0290   47.3690 C.3       1 SAH502      0.0000 
      3 CB        -10.3990  144.0780   47.9950 C.3       1 SAH502      0.0000 
      4 CG         -9.9360  145.5170   48.2340 C.3       1 SAH502      0.0000 
      5 SD         -8.2780  145.6080   49.0140 S.3       1 SAH502      0.0000 
      6 C         -12.2080  142.5650   47.1520 C.2       1 SAH502      0.0000 
      7 O         -13.3340  142.2200   47.5610 O.co2     1 SAH502      0.0000 
      8 OXT       -11.3840  141.8230   46.5830 O.co2     1 SAH502      0.0000 
      9 C5'        -7.1990  145.6410   47.5370 C.3       1 SAH502      0.0000 
     10 C4'        -6.3520  144.3820   47.3940 C.3       1 SAH502      0.0000 
     11 O4'        -7.1180  143.1850   47.0420 O.3       1 SAH502      0.0000 
     12 C3'        -5.3000  144.4860   46.3140 C.3       1 SAH502      0.0000 
     13 O3'        -4.1680  145.2080   46.8100 O.3       1 SAH502      0.0000 
     14 C2'        -4.9320  143.0480   46.0990 C.3       1 SAH502      0.0000 
     15 O2'        -4.1060  142.5990   47.1730 O.3       1 SAH502      0.0000 
     16 C1'        -6.2730  142.3230   46.1740 C.3       1 SAH502      0.0000 
     17 N9         -6.9020  142.2780   44.8180 N.pl3     1 SAH502      0.0000 
     18 C8         -7.9250  143.0410   44.3930 C.2       1 SAH502      0.0000 
     19 N7         -8.2630  142.6860   43.1460 N.2       1 SAH502      0.0000 
     20 C5         -7.4730  141.6830   42.7820 C.ar      1 SAH502      0.0000 
     21 C6         -7.3390  140.9400   41.6020 C.ar      1 SAH502      0.0000 
     22 N6         -8.2220  141.0860   40.6130 N.pl3     1 SAH502      0.0000 
     23 N1         -6.3860  139.9700   41.5360 N.ar      1 SAH502      0.0000 
     24 C2         -5.5280  139.7660   42.5550 C.ar      1 SAH502      0.0000 
     25 N3         -5.6370  140.4660   43.7000 N.ar      1 SAH502      0.0000 
     26 C4         -6.5630  141.4600   43.8170 C.ar      1 SAH502      0.0000 
     27 H         -11.7611  144.5167   46.4136 H         1 SAH502      0.0000 
     28 H          -9.6923  143.5795   47.3289 H         1 SAH502      0.0000 
     29 H         -10.4149  143.5433   48.9465 H         1 SAH502      0.0000 
     30 H         -10.5404  146.0538   48.9371 H         1 SAH502      0.0000 
     31 H          -9.7872  146.0779   47.3334 H         1 SAH502      0.0000 
     32 H          -6.6253  146.5329   47.7019 H         1 SAH502      0.0000 
     33 H          -7.9112  145.7765   46.7456 H         1 SAH502      0.0000 
     34 H          -5.8263  144.1944   48.3351 H         1 SAH502      0.0000 
     35 H          -5.7239  144.8777   45.4506 H         1 SAH502      0.0000 
     36 H          -4.5229  142.9163   45.1531 H         1 SAH502      0.0000 
     37 H          -6.1518  141.3807   46.5858 H         1 SAH502      0.0000 
     38 H          -8.3536  143.7451   44.9155 H         1 SAH502      0.0000 
     39 H          -8.6861  141.9705   40.5644 H         1 SAH502      0.0000 
     40 H          -8.3405  140.2979   40.0090 H         1 SAH502      0.0000 
     41 H          -4.7659  139.0529   42.4544 H         1 SAH502      0.0000 
     42 H         -12.5044  144.6235   49.2168 H         1 SAH502      0.0000 
     43 H         -12.8506  145.6717   48.0475 H         1 SAH502      0.0000 
     44 H         -13.6823  144.3009   48.1705 H         1 SAH502      0.0000 
     45 H          -3.5492  144.5070   47.1646 H         1 SAH502      0.0000 
     46 H          -3.2460  142.3266   46.7415 H         1 SAH502      0.0000 
@<TRIPOS>BOND
     1    2    1 1    
     2   42    1 1    
     3   43    1 1    
     4   44    1 1    
     5    3    2 1    
     6    6    2 1    
     7   27    2 1    
     8    4    3 1    
     9   28    3 1    
    10   29    3 1    
    11    5    4 1    
    12   30    4 1    
    13   31    4 1    
    14    9    5 1    
    15    7    6 ar   
    16    8    6 ar   
    17   10    9 1    
    18   32    9 1    
    19   33    9 1    
    20   11   10 1    
    21   12   10 1    
    22   34   10 1    
    23   16   11 1    
    24   13   12 1    
    25   14   12 1    
    26   35   12 1    
    27   45   13 1    
    28   15   14 1    
    29   16   14 1    
    30   36   14 1    
    31   46   15 1    
    32   17   16 1    
    33   37   16 1    
    34   18   17 1    
    35   26   17 1    
    36   19   18 2    
    37   38   18 1    
    38   20   19 1    
    39   21   20 ar   
    40   26   20 ar   
    41   22   21 1    
    42   23   21 ar   
    43   39   22 1    
    44   40   22 1    
    45   24   23 ar   
    46   25   24 ar   
    47   41   24 1    
    48   26   25 ar   
@<TRIPOS>SUBSTRUCTURE
     1 SAH502      1 GROUP   
@<TRIPOS>SET

