#    Name: 1dwc_MIT_1_INTS_M
#    Modification time : Mon Mar 24 22:29:14 2014

@<TRIPOS>MOLECULE
1dwc_MIT_1_INTS_M
   46     0    12     0     0
SMALL
NO_CHARGES


@<TRIPOS>ATOM
      1 CA         32.9465   12.9940   28.9845 C.3       4 GLC5        0.0000 
      2 CA         31.7960   11.7570   28.2400 C.3      12 GLL5        0.0000 
      3 CA         34.0970   14.2310   29.7290 C.3       8 GLP5        0.0000 
      4 CA         34.0400   12.4770   27.1175 C.3       4 GLC5        0.0000 
      5 CA         32.8640   10.9560   27.6000 C.3      12 GLL5        0.0000 
      6 CA         35.2160   13.9980   26.6350 C.3       8 GLP5        0.0000 
      7 CA         34.5825   12.1830   28.9610 C.3       4 GLC5        0.0000 
      8 CA         33.7940   10.4240   28.6730 C.3      12 GLL5        0.0000 
      9 CA         35.3710   13.9420   29.2490 C.3       8 GLP5        0.0000 
     10 N          32.8780   15.1690   26.2865 N.am      2 SEC2        0.0000 
     11 N          32.5200   14.2960   25.1110 N.am     10 SEL2        0.0000 
     12 N          33.2360   16.0420   27.4620 N.am      6 SEP2        0.0000 
     13 CA         31.6620   16.9895   26.4835 C.3       4 GLC5        0.0000 
     14 CA         30.9130   17.1700   24.5960 C.3      12 GLL5        0.0000 
     15 CA         32.4110   16.8090   28.3710 C.3       8 GLP5        0.0000 
     16 CA         31.1145   20.0590   22.8755 C.3       4 GLC5        0.0000 
     17 CA         31.3610   18.5140   24.0090 C.3      12 GLL5        0.0000 
     18 CA         30.8680   21.6040   21.7420 C.3       8 GLP5        0.0000 
     19 CA         29.6845   19.6845   23.7860 C.3       4 GLC5        0.0000 
     20 CA         28.0080   20.8550   23.5630 C.3       8 GLP5        0.0000 
     21 O          30.1410   19.5150   25.7820 O.2       1 ALC1        0.0000 
     22 O          31.5800   19.5010   25.0670 O.2       9 ALL1        0.0000 
     23 O          28.7020   19.5290   26.4970 O.2       5 ALP1        0.0000 
     24 OD1        32.0500   21.6520   26.8975 O.co2     3 ASC3        0.0000 
     25 OD1        32.8380   19.8780   25.3590 O.co2    11 ASL3        0.0000 
     26 OD1        31.0520   22.6030   27.3890 O.co2     7 ASP3        0.0000 
     27 O          32.0500   21.6520   26.8975 O.2       1 ALC1        0.0000 
     28 O          33.0480   20.7010   26.4060 O.2       9 ALL1        0.0000 
     29 O          31.0520   22.6030   27.3890 O.2       5 ALP1        0.0000 
     30 CA         34.4220   13.4640   24.8570 C.3       4 GLC5        0.0000 
     31 CA         33.6280   12.9300   23.0790 C.3      12 GLL5        0.0000 
     32 CA         34.4835   11.2595   20.2660 C.3       4 GLC5        0.0000 
     33 CA         32.8000   10.2190   20.4830 C.3      12 GLL5        0.0000 
     34 CA         36.1670   12.3000   20.0490 C.3       8 GLP5        0.0000 
     35 CA         32.7380    8.5075   20.4630 C.3       4 GLC5        0.0000 
     36 CA         32.6760    6.7960   20.4430 C.3       8 GLP5        0.0000 
     37 CA         34.7459   10.5554   26.5707 C.3       4 GLC5        0.0000 
     38 CA         36.3130   10.7030   25.1940 C.3       8 GLP5        0.0000 
     39 CA         32.7595   10.6311   30.1047 C.3       4 GLC5        0.0000 
     40 CA         32.4570   10.3720   31.9130 C.3       8 GLP5        0.0000 
     41 CA         34.9562   11.4832   23.9690 C.3       4 GLC5        0.0000 
     42 CA         33.5710   11.5970   22.4090 C.3      12 GLL5        0.0000 
     43 CA         34.8033   12.2851   21.2242 C.3       4 GLC5        0.0000 
     44 CA         30.9042   10.4112   20.0540 C.3       4 GLC5        0.0000 
     45 CA         32.9310   11.6240   21.0310 C.3      12 GLL5        0.0000 
     46 CA         29.2850    9.7550   19.3360 C.3       8 GLP5        0.0000 
@<TRIPOS>BOND
@<TRIPOS>SUBSTRUCTURE
     1 ALC1       21 GROUP        1 X    ALC  0     ROOT ALC X 1
     2 SEC2       10 GROUP        1 X    SEC  0     **** SEC X 2
     3 ASC3       24 GROUP        1 X    ASC  0     **** ASC X 3
     4 GLC5        1 GROUP        1 X    GLC  0     **** GLC X 6
     5 ALP1       23 GROUP        1 Y    ALP  0     ROOT ALP Y 8
     6 SEP2       12 GROUP        1 Y    SEP  0     **** SEP Y 9
     7 ASP3       26 GROUP        1 Y    ASP  0     **** ASP Y 10
     8 GLP5        3 GROUP        1 Y    GLP  0     **** GLP Y 13
     9 ALL1       22 GROUP        1 Z    ALL  0     ROOT ALL Z 15
    10 SEL2       11 GROUP        1 Z    SEL  0     **** SEL Z 16
    11 ASL3       25 GROUP        1 Z    ASL  0     **** ASL Z 17
    12 GLL5        2 GROUP        1 Z    GLL  0     **** GLL Z 20
@<TRIPOS>SET

