#    Name: 1dwc_MIT_1_ligand
#    Modification time : Mon Mar 24 22:29:14 2014

@<TRIPOS>MOLECULE
1dwc_MIT_1_ligand
   70    72     1     0     0
SMALL
NO_CHARGES


@<TRIPOS>ATOM
      1 S          28.7520   13.5130   25.6380 S.o2      1 MIT1        0.0000 
      2 O1         28.5540   13.6490   27.0570 O.2       1 MIT1        0.0000 
      3 O2         27.6690   13.3990   24.6800 O.2       1 MIT1        0.0000 
      4 C1         31.7960   11.7570   28.2400 C.3       1 MIT1        0.0000 
      5 C2         32.8640   10.9560   27.6000 C.3       1 MIT1        0.0000 
      6 C3         32.2630    9.8270   26.8440 C.3       1 MIT1        0.0000 
      7 C4         31.3110   10.3570   25.8650 C.ar      1 MIT1        0.0000 
      8 C5         31.0580    9.6760   24.6800 C.ar      1 MIT1        0.0000 
      9 C6         30.1090   10.2040   23.8000 C.ar      1 MIT1        0.0000 
     10 C7         29.3790   11.3580   24.1210 C.ar      1 MIT1        0.0000 
     11 C8         29.5620   11.9600   25.3330 C.ar      1 MIT1        0.0000 
     12 C9         30.5960   11.5460   26.2180 C.ar      1 MIT1        0.0000 
     13 C10        33.7940   10.4240   28.6730 C.3       1 MIT1        0.0000 
     14 N          30.8260   12.2470   27.3000 N.3       1 MIT1        0.0000 
     15 N1         29.7320   14.8200   25.1830 N.pl3     1 MIT1        0.0000 
     16 CA         30.4930   14.8340   23.9360 C.3       1 MIT1        0.0000 
     17 C          31.8340   14.1520   24.1210 C.2       1 MIT1        0.0000 
     18 O          32.5200   14.2960   25.1110 O.2       1 MIT1        0.0000 
     19 CB         30.7090   16.2410   23.4460 C.3       1 MIT1        0.0000 
     20 CG         30.9130   17.1700   24.5960 C.3       1 MIT1        0.0000 
     21 CD         31.3610   18.5140   24.0090 C.3       1 MIT1        0.0000 
     22 NE         31.5800   19.5010   25.0670 N.pl3     1 MIT1        0.0000 
     23 CZ         32.8380   19.8780   25.3590 C.cat     1 MIT1        0.0000 
     24 NH1        33.8690   19.3020   24.6870 N.pl3     1 MIT1        0.0000 
     25 NH2        33.0480   20.7010   26.4060 N.pl3     1 MIT1        0.0000 
     26 N2         32.3370   13.5310   23.0090 N.am      1 MIT1        0.0000 
     27 C11        31.6320   13.5940   21.7350 C.3       1 MIT1        0.0000 
     28 C21        31.5630   12.2080   21.0910 C.3       1 MIT1        0.0000 
     29 C31        32.9310   11.6240   21.0310 C.3       1 MIT1        0.0000 
     30 C41        33.5710   11.5970   22.4090 C.3       1 MIT1        0.0000 
     31 C51        33.6280   12.9300   23.0790 C.3       1 MIT1        0.0000 
     32 C61        32.2420   14.6520   20.8170 C.2       1 MIT1        0.0000 
     33 O11        31.8780   14.5770   19.6490 O.co2     1 MIT1        0.0000 
     34 O21        32.5180   15.7230   21.3050 O.co2     1 MIT1        0.0000 
     35 C71        32.8000   10.2190   20.4830 C.3       1 MIT1        0.0000 
     36 H          32.2659   12.6031   28.7894 H         1 MIT1        0.0000 
     37 H          31.3017   11.1343   29.0188 H         1 MIT1        0.0000 
     38 H          33.4326   11.5788   26.9323 H         1 MIT1        0.0000 
     39 H          31.7557    9.1526   27.5394 H         1 MIT1        0.0000 
     40 H          33.0537    9.2658   26.3384 H         1 MIT1        0.0000 
     41 H          31.5488    8.8154   24.4557 H         1 MIT1        0.0000 
     42 H          29.9400    9.7358   22.8931 H         1 MIT1        0.0000 
     43 H          28.7125   11.7363   23.4348 H         1 MIT1        0.0000 
     44 H          29.7250   15.5533   25.8493 H         1 MIT1        0.0000 
     45 H          29.9482   14.2870   23.1648 H         1 MIT1        0.0000 
     46 H          29.8388   16.5579   22.8639 H         1 MIT1        0.0000 
     47 H          31.5849   16.2646   22.7911 H         1 MIT1        0.0000 
     48 H          31.6843   16.8002   25.2487 H         1 MIT1        0.0000 
     49 H          29.9923   17.3140   25.1338 H         1 MIT1        0.0000 
     50 H          30.5876   18.8548   23.3108 H         1 MIT1        0.0000 
     51 H          32.2801   18.3453   23.4358 H         1 MIT1        0.0000 
     52 H          30.7570   19.8653   25.5437 H         1 MIT1        0.0000 
     53 H          34.7863   19.6060   24.9441 H         1 MIT1        0.0000 
     54 H          33.6194   18.6249   23.9947 H         1 MIT1        0.0000 
     55 H          32.2301   21.0294   26.8785 H         1 MIT1        0.0000 
     56 H          34.0029   20.9098   26.6170 H         1 MIT1        0.0000 
     57 H          30.5826   13.9052   21.9329 H         1 MIT1        0.0000 
     58 H          31.1499   12.3081   20.0909 H         1 MIT1        0.0000 
     59 H          30.9084   11.5783   21.6875 H         1 MIT1        0.0000 
     60 H          33.5409   12.1991   20.3633 H         1 MIT1        0.0000 
     61 H          34.5946   11.1854   22.3137 H         1 MIT1        0.0000 
     62 H          33.0084   10.8859   23.0446 H         1 MIT1        0.0000 
     63 H          33.9468   12.7874   24.1172 H         1 MIT1        0.0000 
     64 H          34.3826   13.5438   22.5752 H         1 MIT1        0.0000 
     65 H          34.5323    9.8726   28.2846 H         1 MIT1        0.0000 
     66 H          34.2225   11.1630   29.1929 H         1 MIT1        0.0000 
     67 H          33.3106    9.8455   29.3300 H         1 MIT1        0.0000 
     68 H          33.6873    9.7631   20.4138 H         1 MIT1        0.0000 
     69 H          32.2208    9.6465   21.0633 H         1 MIT1        0.0000 
     70 H          32.3954   10.2133   19.5685 H         1 MIT1        0.0000 
@<TRIPOS>BOND
     1    2    1 2    
     2    3    1 2    
     3   11    1 1    
     4   15    1 1    
     5    5    4 1    
     6   14    4 1    
     7   36    4 1    
     8   37    4 1    
     9    6    5 1    
    10   13    5 1    
    11   38    5 1    
    12    7    6 1    
    13   39    6 1    
    14   40    6 1    
    15    8    7 ar   
    16   12    7 ar   
    17    9    8 ar   
    18   41    8 1    
    19   10    9 ar   
    20   42    9 1    
    21   11   10 ar   
    22   43   10 1    
    23   12   11 ar   
    24   14   12 1    
    25   65   13 1    
    26   66   13 1    
    27   67   13 1    
    28   16   15 1    
    29   44   15 1    
    30   17   16 1    
    31   19   16 1    
    32   45   16 1    
    33   18   17 2    
    34   26   17 am   
    35   20   19 1    
    36   46   19 1    
    37   47   19 1    
    38   21   20 1    
    39   48   20 1    
    40   49   20 1    
    41   22   21 1    
    42   50   21 1    
    43   51   21 1    
    44   23   22 ar   
    45   52   22 1    
    46   24   23 ar   
    47   25   23 ar   
    48   53   24 1    
    49   54   24 1    
    50   55   25 1    
    51   56   25 1    
    52   27   26 1    
    53   31   26 1    
    54   28   27 1    
    55   32   27 1    
    56   57   27 1    
    57   29   28 1    
    58   58   28 1    
    59   59   28 1    
    60   30   29 1    
    61   35   29 1    
    62   60   29 1    
    63   31   30 1    
    64   61   30 1    
    65   62   30 1    
    66   63   31 1    
    67   64   31 1    
    68   33   32 ar   
    69   34   32 ar   
    70   68   35 1    
    71   69   35 1    
    72   70   35 1    
@<TRIPOS>SUBSTRUCTURE
     1 MIT1        1 GROUP   
@<TRIPOS>SET

