#    Name: 4dlb_NAD_2_INTS_M
#    Modification time : Tue Mar 25 09:50:24 2014

@<TRIPOS>MOLECULE
4dlb_NAD_2_INTS_M
   92     0    12     0     0
SMALL
NO_CHARGES


@<TRIPOS>ATOM
      1 CA         10.4525   25.7720  -23.8375 C.3       4 GLC5        0.0000 
      2 CA         10.8750   26.7870  -22.2420 C.3      12 GLL5        0.0000 
      3 CA         10.0300   24.7570  -25.4330 C.3       8 GLP5        0.0000 
      4 CA         14.2630   27.2840  -21.6310 C.3       4 GLC5        0.0000 
      5 CA         12.2270   27.4750  -22.0180 C.3      12 GLL5        0.0000 
      6 CA         16.2990   27.0930  -21.2440 C.3       8 GLP5        0.0000 
      7 O          13.7110   27.3300  -24.0210 O.2       1 ALC1        0.0000 
      8 O          13.2780   26.6620  -22.5140 O.2       9 ALL1        0.0000 
      9 O          14.1440   27.9980  -25.5280 O.2       5 ALP1        0.0000 
     10 O          13.4535   26.3040  -23.7360 O.2       1 ALC1        0.0000 
     11 O          13.6290   25.9460  -24.9580 O.2       5 ALP1        0.0000 
     12 O          13.7505   28.6130  -24.4300 O.2       1 ALC1        0.0000 
     13 O          13.3570   29.2280  -23.3320 O.2       9 ALL1        0.0000 
     14 CA         10.6095   26.5335  -24.6950 C.3       4 GLC5        0.0000 
     15 CA         11.1890   28.3100  -23.9570 C.3      12 GLL5        0.0000 
     16 CA          9.1295   27.7305  -24.4410 C.3       4 GLC5        0.0000 
     17 CA          7.0700   27.1510  -24.9250 C.3       8 GLP5        0.0000 
     18 CA         10.5655   31.3780  -28.1970 C.3       4 GLC5        0.0000 
     19 CA          8.9460   30.6970  -27.5390 C.3      12 GLL5        0.0000 
     20 CA         12.1850   32.0590  -28.8550 C.3       8 GLP5        0.0000 
     21 CA          7.0755   30.6630  -28.2110 C.3       4 GLC5        0.0000 
     22 CA          5.2050   30.6290  -28.8830 C.3       8 GLP5        0.0000 
     23 CA         10.2990   27.5765  -29.9405 C.3       4 GLC5        0.0000 
     24 CA         10.0080   28.7210  -28.1130 C.3      12 GLL5        0.0000 
     25 CA         10.5900   26.4320  -31.7680 C.3       8 GLP5        0.0000 
     26 CA         11.7055   27.8780  -28.2045 C.3       4 GLC5        0.0000 
     27 CA         13.4030   27.0350  -28.2960 C.3       8 GLP5        0.0000 
     28 CA         11.0965   30.3900  -28.4840 C.3       4 GLC5        0.0000 
     29 CA         10.6240   29.3315  -30.1695 C.3       4 GLC5        0.0000 
     30 CA         11.2400   29.9420  -32.2260 C.3       8 GLP5        0.0000 
     31 CA          8.5390   28.1905  -27.2140 C.3       4 GLC5        0.0000 
     32 CA          7.0700   27.6600  -26.3150 C.3       8 GLP5        0.0000 
     33 NZ          9.5505   22.8560  -15.0485 N.4       3 LYC4        0.0000 
     34 NZ          9.0950   23.5710  -16.2290 N.4      11 LYL4        0.0000 
     35 NZ          9.4670   21.1890  -13.1240 N.4       7 LYP4        0.0000 
     36 N           9.5505   22.8560  -15.0485 N.am      2 SEC2        0.0000 
     37 N           9.0950   23.5710  -16.2290 N.am     10 SEL2        0.0000 
     38 N          10.0060   22.1410  -13.8680 N.am      6 SEP2        0.0000 
     39 N           9.5295   21.5590  -18.8830 N.am      2 SEC2        0.0000 
     40 N           9.4860   23.0120  -18.6740 N.am     10 SEL2        0.0000 
     41 N           9.5730   20.1060  -19.0920 N.am      6 SEP2        0.0000 
     42 CA          6.9410   22.4690  -19.3305 C.3       4 GLC5        0.0000 
     43 CA          6.7810   24.5430  -19.1700 C.3      12 GLL5        0.0000 
     44 CA          7.1010   20.3950  -19.4910 C.3       8 GLP5        0.0000 
     45 CA          3.5775   24.7785  -20.1350 C.3       4 GLC5        0.0000 
     46 CA          5.3090   24.8780  -19.0890 C.3      12 GLL5        0.0000 
     47 CA          1.8460   24.6790  -21.1810 C.3       8 GLP5        0.0000 
     48 N           2.3695   26.4725  -19.0740 N.am      2 SEC2        0.0000 
     49 N           3.9410   26.8600  -18.6440 N.am     10 SEL2        0.0000 
     50 N           0.7980   26.0850  -19.5040 N.am      6 SEP2        0.0000 
     51 O           4.3510   27.4940  -19.7575 O.2       1 ALC1        0.0000 
     52 O           3.9410   26.8600  -18.6440 O.2       9 ALL1        0.0000 
     53 O           4.7610   28.1280  -20.8710 O.2       5 ALP1        0.0000 
     54 N           2.9200   25.4130  -14.6655 N.am      2 SEC2        0.0000 
     55 N           3.2550   25.8560  -16.2630 N.am     10 SEL2        0.0000 
     56 N           2.5850   24.9700  -13.0680 N.am      6 SEP2        0.0000 
     57 CA          2.6755   24.3540  -19.5200 C.3       4 GLC5        0.0000 
     58 CA          3.5050   24.0290  -17.8590 C.3      12 GLL5        0.0000 
     59 CA          1.3860   24.4715  -17.5010 C.3       4 GLC5        0.0000 
     60 CA         -0.7330   24.9140  -17.1430 C.3       8 GLP5        0.0000 
     61 N          -0.9555   18.2070  -16.2820 N.am      2 SEC2        0.0000 
     62 N          -0.4490   19.5260  -16.3380 N.am     10 SEL2        0.0000 
     63 N          -1.4620   16.8880  -16.2260 N.am      6 SEP2        0.0000 
     64 O           0.0995   21.5685  -19.1445 O.2       1 ALC1        0.0000 
     65 O          -0.6100   20.9080  -18.1730 O.2       9 ALL1        0.0000 
     66 O           0.8090   22.2290  -20.1160 O.2       5 ALP1        0.0000 
     67 O          -1.6825   20.1220  -18.9925 O.2       1 ALC1        0.0000 
     68 O          -2.7550   19.3360  -19.8120 O.2       5 ALP1        0.0000 
     69 CA          5.0995   19.4955  -15.1835 C.3       4 GLC5        0.0000 
     70 CA          3.4900   20.9770  -15.5410 C.3      12 GLL5        0.0000 
     71 CA          6.7090   18.0140  -14.8260 C.3       8 GLP5        0.0000 
     72 CA         11.3918   30.8200  -26.2773 C.3       4 GLC5        0.0000 
     73 CA         10.1420   29.3350  -25.9990 C.3      12 GLL5        0.0000 
     74 CA         13.0120   31.7320  -26.4430 C.3       8 GLP5        0.0000 
     75 CA          8.3639   28.8110  -26.3776 C.3       4 GLC5        0.0000 
     76 CA          9.4010   30.4810  -26.2240 C.3      12 GLL5        0.0000 
     77 CA          5.8630   25.8248  -20.9473 C.3       4 GLC5        0.0000 
     78 CA          5.6810   26.9390  -22.7650 C.3       8 GLP5        0.0000 
     79 CA          4.8785   27.2197  -16.7843 C.3       4 GLC5        0.0000 
     80 CA          4.8870   25.9480  -18.0840 C.3      12 GLL5        0.0000 
     81 CA          5.2000   28.9090  -16.0330 C.3       8 GLP5        0.0000 
     82 CA          1.9282   19.8457  -17.6028 C.3       4 GLC5        0.0000 
     83 CA          1.8140   22.2490  -17.3330 C.3      12 GLL5        0.0000 
     84 CA          2.2670   18.0160  -18.1910 C.3       8 GLP5        0.0000 
     85 CA          0.4283   23.2948  -17.0787 C.3       4 GLC5        0.0000 
     86 CA          1.3650   21.1020  -16.6960 C.3      12 GLL5        0.0000 
     87 CA          2.5593   19.3710  -16.9260 C.3       4 GLC5        0.0000 
     88 CA          5.2240   20.9815  -16.9370 C.3       4 GLC5        0.0000 
     89 CA          6.7460   20.4060  -18.0130 C.3       8 GLP5        0.0000 
     90 CA          3.5774   20.6752  -14.2090 C.3       4 GLC5        0.0000 
     91 CA          3.9140   22.1370  -16.1810 C.3      12 GLL5        0.0000 
     92 CA          3.7720   19.9190  -12.4970 C.3       8 GLP5        0.0000 
@<TRIPOS>BOND
@<TRIPOS>SUBSTRUCTURE
     1 ALC1        7 GROUP        1 X    ALC  0     ROOT ALC X 1
     2 SEC2       36 GROUP        1 X    SEC  0     **** SEC X 2
     3 LYC4       33 GROUP        1 X    LYC  0     **** LYC X 4
     4 GLC5        1 GROUP        1 X    GLC  0     **** GLC X 6
     5 ALP1        9 GROUP        1 Y    ALP  0     ROOT ALP Y 8
     6 SEP2       38 GROUP        1 Y    SEP  0     **** SEP Y 9
     7 LYP4       35 GROUP        1 Y    LYP  0     **** LYP Y 11
     8 GLP5        3 GROUP        1 Y    GLP  0     **** GLP Y 13
     9 ALL1        8 GROUP        1 Z    ALL  0     ROOT ALL Z 15
    10 SEL2       37 GROUP        1 Z    SEL  0     **** SEL Z 16
    11 LYL4       34 GROUP        1 Z    LYL  0     **** LYL Z 18
    12 GLL5        2 GROUP        1 Z    GLL  0     **** GLL Z 20
@<TRIPOS>SET

