#    Name: 4dlb_NAD_2_ligand
#    Modification time : Tue Mar 25 09:50:24 2014

@<TRIPOS>MOLECULE
4dlb_NAD_2_ligand
   70    74     1     0     0
SMALL
NO_CHARGES


@<TRIPOS>ATOM
      1 PA         10.6110   26.1110  -18.5630 P.3       1 NAD403      0.0000 
      2 O1A        10.6260   27.5630  -18.2530 O.co2     1 NAD403      0.0000 
      3 O2A        11.8540   25.3990  -18.0230 O.co2     1 NAD403      0.0000 
      4 O5B        10.5080   25.8690  -20.1180 O.3       1 NAD403      0.0000 
      5 C5B         9.9370   26.7910  -21.0610 C.3       1 NAD403      0.0000 
      6 C4B        10.8750   26.7870  -22.2420 C.3       1 NAD403      0.0000 
      7 O4B        10.2480   27.4520  -23.3590 O.3       1 NAD403      0.0000 
      8 C3B        12.2270   27.4750  -22.0180 C.3       1 NAD403      0.0000 
      9 O3B        13.2780   26.6620  -22.5140 O.3       1 NAD403      0.0000 
     10 C2B        12.1050   28.7700  -22.8290 C.3       1 NAD403      0.0000 
     11 O2B        13.3570   29.2280  -23.3320 O.3       1 NAD403      0.0000 
     12 C1B        11.1890   28.3100  -23.9570 C.3       1 NAD403      0.0000 
     13 N9A        10.4640   29.3520  -24.6650 N.pl3     1 NAD403      0.0000 
     14 C8A         9.9320   30.5140  -24.1700 C.2       1 NAD403      0.0000 
     15 N7A         9.2800   31.2230  -25.0580 N.2       1 NAD403      0.0000 
     16 C5A         9.4010   30.4810  -26.2240 C.ar      1 NAD403      0.0000 
     17 C6A         8.9460   30.6970  -27.5390 C.ar      1 NAD403      0.0000 
     18 N6A         8.2210   31.7540  -27.9120 N.pl3     1 NAD403      0.0000 
     19 N1A         9.2720   29.7780  -28.4720 N.ar      1 NAD403      0.0000 
     20 C2A        10.0080   28.7210  -28.1130 C.ar      1 NAD403      0.0000 
     21 N3A        10.4940   28.4100  -26.9100 N.ar      1 NAD403      0.0000 
     22 C4A        10.1420   29.3350  -25.9990 C.ar      1 NAD403      0.0000 
     23 O3          9.3230   25.4040  -17.9170 O.3       1 NAD403      0.0000 
     24 PN          8.8610   23.8900  -17.6560 P.3       1 NAD403      0.0000 
     25 O1N         9.0950   23.5710  -16.2290 O.co2     1 NAD403      0.0000 
     26 O2N         9.4860   23.0120  -18.6740 O.co2     1 NAD403      0.0000 
     27 O5D         7.2930   23.9870  -17.9350 O.3       1 NAD403      0.0000 
     28 C5D         6.7810   24.5430  -19.1700 C.3       1 NAD403      0.0000 
     29 C4D         5.3090   24.8780  -19.0890 C.3       1 NAD403      0.0000 
     30 O4D         4.5350   23.7020  -18.7540 O.3       1 NAD403      0.0000 
     31 C3D         4.8870   25.9480  -18.0840 C.3       1 NAD403      0.0000 
     32 O3D         3.9410   26.8600  -18.6440 O.3       1 NAD403      0.0000 
     33 C2D         4.2270   25.1130  -16.9870 C.3       1 NAD403      0.0000 
     34 O2D         3.2550   25.8560  -16.2630 O.3       1 NAD403      0.0000 
     35 C1D         3.5050   24.0290  -17.8590 C.3       1 NAD403      0.0000 
     36 N1N         3.1070   22.7670  -17.0570 N.pl3     1 NAD403      0.0000 
     37 C2N         1.8140   22.2490  -17.3330 C.ar      1 NAD403      0.0000 
     38 C3N         1.3650   21.1020  -16.6960 C.ar      1 NAD403      0.0000 
     39 C7N         0.0390   20.4430  -17.0810 C.2       1 NAD403      0.0000 
     40 O7N        -0.4490   19.5260  -16.3380 O.2       1 NAD403      0.0000 
     41 N7N        -0.6100   20.9080  -18.1730 N.am      1 NAD403      0.0000 
     42 C4N         2.2130   20.4750  -15.7810 C.ar      1 NAD403      0.0000 
     43 C5N         3.4900   20.9770  -15.5410 C.ar      1 NAD403      0.0000 
     44 C6N         3.9140   22.1370  -16.1810 C.ar      1 NAD403      0.0000 
     45 H           9.8872   27.7920  -20.6602 H         1 NAD403      0.0000 
     46 H           8.9608   26.4703  -21.3915 H         1 NAD403      0.0000 
     47 H          11.0803   25.7488  -22.5275 H         1 NAD403      0.0000 
     48 H          12.3079   27.7237  -20.9982 H         1 NAD403      0.0000 
     49 H          11.5741   29.4722  -22.2454 H         1 NAD403      0.0000 
     50 H          11.7988   27.7320  -24.6566 H         1 NAD403      0.0000 
     51 H          10.0492   30.7719  -23.2050 H         1 NAD403      0.0000 
     52 H           7.9820   32.4012  -27.1881 H         1 NAD403      0.0000 
     53 H           7.9820   31.8036  -28.8818 H         1 NAD403      0.0000 
     54 H          10.2460   28.0073  -28.9253 H         1 NAD403      0.0000 
     55 H           6.9281   23.8352  -20.0085 H         1 NAD403      0.0000 
     56 H           7.3302   25.4651  -19.4414 H         1 NAD403      0.0000 
     57 H           4.9706   25.2240  -20.0850 H         1 NAD403      0.0000 
     58 H           5.7484   26.3969  -17.6849 H         1 NAD403      0.0000 
     59 H           4.9543   24.6341  -16.4280 H         1 NAD403      0.0000 
     60 H           2.6864   24.4669  -18.3237 H         1 NAD403      0.0000 
     61 H           1.2178   22.7383  -18.0120 H         1 NAD403      0.0000 
     62 H          -0.1581   21.6477  -18.6717 H         1 NAD403      0.0000 
     63 H          -1.4841   20.4708  -18.3847 H         1 NAD403      0.0000 
     64 H           1.8903   19.6342  -15.2799 H         1 NAD403      0.0000 
     65 H           4.1190   20.4892  -14.8902 H         1 NAD403      0.0000 
     66 H           4.8620   22.5043  -15.9691 H         1 NAD403      0.0000 
     67 H          13.1125   26.5971  -23.4981 H         1 NAD403      0.0000 
     68 H          13.5116   28.6960  -24.1645 H         1 NAD403      0.0000 
     69 H           4.4934   27.5675  -19.0848 H         1 NAD403      0.0000 
     70 H           2.9381   26.5579  -16.9008 H         1 NAD403      0.0000 
@<TRIPOS>BOND
     1    2    1 ar   
     2    3    1 ar   
     3    4    1 1    
     4   23    1 1    
     5    5    4 1    
     6    6    5 1    
     7   45    5 1    
     8   46    5 1    
     9    7    6 1    
    10    8    6 1    
    11   47    6 1    
    12   12    7 1    
    13    9    8 1    
    14   10    8 1    
    15   48    8 1    
    16   67    9 1    
    17   11   10 1    
    18   12   10 1    
    19   49   10 1    
    20   68   11 1    
    21   13   12 1    
    22   50   12 1    
    23   14   13 1    
    24   22   13 1    
    25   15   14 2    
    26   51   14 1    
    27   16   15 1    
    28   17   16 ar   
    29   22   16 ar   
    30   18   17 1    
    31   19   17 ar   
    32   52   18 1    
    33   53   18 1    
    34   20   19 ar   
    35   21   20 ar   
    36   54   20 1    
    37   22   21 ar   
    38   24   23 1    
    39   25   24 ar   
    40   26   24 ar   
    41   27   24 1    
    42   28   27 1    
    43   29   28 1    
    44   55   28 1    
    45   56   28 1    
    46   30   29 1    
    47   31   29 1    
    48   57   29 1    
    49   35   30 1    
    50   32   31 1    
    51   33   31 1    
    52   58   31 1    
    53   69   32 1    
    54   34   33 1    
    55   35   33 1    
    56   59   33 1    
    57   70   34 1    
    58   36   35 1    
    59   60   35 1    
    60   37   36 ar   
    61   44   36 ar   
    62   38   37 ar   
    63   61   37 1    
    64   39   38 1    
    65   42   38 ar   
    66   40   39 2    
    67   41   39 am   
    68   62   41 1    
    69   63   41 1    
    70   43   42 ar   
    71   64   42 1    
    72   44   43 ar   
    73   65   43 1    
    74   66   44 1    
@<TRIPOS>SUBSTRUCTURE
     1 NAD403      1 GROUP   
@<TRIPOS>SET

