#    Name: 2eva_ADN_1_INTS_M
#    Modification time : Mon Apr  7 17:56:13 2014

@<TRIPOS>MOLECULE
2eva_ADN_1_INTS_M
   46     0     9     0     0
SMALL
NO_CHARGES


@<TRIPOS>ATOM
      1 O          10.3715   55.2285   14.2600 O.2       1 ALC1        0.0000 
      2 O          11.2630   53.9360   14.3070 O.2       7 ALL1        0.0000 
      3 O           9.4800   56.5210   14.2130 O.2       4 ALP1        0.0000 
      4 CA         12.7905   54.8065   11.8235 C.3       3 GLC5        0.0000 
      5 CA         12.4980   53.9590   13.5640 C.3       9 GLL5        0.0000 
      6 CA         13.0830   55.6540   10.0830 C.3       6 GLP5        0.0000 
      7 CA         11.1235   54.0340   12.3070 C.3       3 GLC5        0.0000 
      8 CA          9.7490   54.1090   11.0500 C.3       6 GLP5        0.0000 
      9 CA         12.3560   56.1320   14.0545 C.3       3 GLC5        0.0000 
     10 CA         12.2140   58.3050   14.5450 C.3       6 GLP5        0.0000 
     11 CA         14.4440   51.2340   17.8080 C.3       3 GLC5        0.0000 
     12 CA         14.0170   53.0900   16.8810 C.3       9 GLL5        0.0000 
     13 CA         14.8710   49.3780   18.7350 C.3       6 GLP5        0.0000 
     14 CA         13.3795   52.8705   18.7175 C.3       3 GLC5        0.0000 
     15 CA         12.7420   52.6510   20.5540 C.3       6 GLP5        0.0000 
     16 CA         15.4520   56.0205   16.3565 C.3       3 GLC5        0.0000 
     17 CA         14.0310   54.6180   16.6440 C.3       9 GLL5        0.0000 
     18 CA         16.8730   57.4230   16.0690 C.3       6 GLP5        0.0000 
     19 CA         12.0540   58.6520   19.0330 C.3       3 GLC5        0.0000 
     20 CA         13.1340   56.7870   19.5010 C.3       9 GLL5        0.0000 
     21 CA         10.9740   60.5170   18.5650 C.3       6 GLP5        0.0000 
     22 CA         14.5530   58.6320   22.2860 C.3       3 GLC5        0.0000 
     23 CA         13.5510   57.4210   20.7490 C.3       9 GLL5        0.0000 
     24 CA         15.5550   59.8430   23.8230 C.3       6 GLP5        0.0000 
     25 CA         14.1265   56.2535   22.2315 C.3       3 GLC5        0.0000 
     26 CA         14.7020   55.0860   23.7140 C.3       6 GLP5        0.0000 
     27 O          12.7755   59.0195   22.4115 O.2       1 ALC1        0.0000 
     28 O          12.7160   58.1790   21.4640 O.2       7 ALL1        0.0000 
     29 O          12.8350   59.8600   23.3590 O.2       4 ALP1        0.0000 
     30 N          15.1605   57.3190   22.5305 N.am      2 SEC2        0.0000 
     31 N          14.8810   57.2190   21.1970 N.am      8 SEL2        0.0000 
     32 N          15.4400   57.4190   23.8640 N.am      5 SEP2        0.0000 
     33 CA         15.2365   55.7575   22.0915 C.3       3 GLC5        0.0000 
     34 CA         15.7710   56.4290   20.4690 C.3       9 GLL5        0.0000 
     35 CA         15.5080   56.7110   17.4595 C.3       3 GLC5        0.0000 
     36 CA         14.1430   55.9990   18.8500 C.3       9 GLL5        0.0000 
     37 CA         13.4425   54.3250   19.7020 C.3       3 GLC5        0.0000 
     38 CA         14.6750   54.7020   13.1145 C.3       3 GLC5        0.0000 
     39 CA         13.6960   53.8370   14.5780 C.3       9 GLL5        0.0000 
     40 CA         16.2530   55.5060   12.1580 C.3       6 GLP5        0.0000 
     41 CA         13.8117   57.7520   17.6502 C.3       3 GLC5        0.0000 
     42 CA         13.9850   59.1110   16.1250 C.3       6 GLP5        0.0000 
     43 CA         13.9408   59.0065   20.1000 C.3       3 GLC5        0.0000 
     44 CA         14.5390   60.9090   20.0750 C.3       6 GLP5        0.0000 
     45 CA         12.4062   55.8195   20.8875 C.3       3 GLC5        0.0000 
     46 CA         11.4700   54.5350   21.6500 C.3       6 GLP5        0.0000 
@<TRIPOS>BOND
@<TRIPOS>SUBSTRUCTURE
     1 ALC1        1 GROUP        1 X    ALC  0     ROOT ALC X 1
     2 SEC2       30 GROUP        1 X    SEC  0     **** SEC X 2
     3 GLC5        4 GROUP        1 X    GLC  0     **** GLC X 6
     4 ALP1        3 GROUP        1 Y    ALP  0     ROOT ALP Y 8
     5 SEP2       32 GROUP        1 Y    SEP  0     **** SEP Y 9
     6 GLP5        6 GROUP        1 Y    GLP  0     **** GLP Y 13
     7 ALL1        2 GROUP        1 Z    ALL  0     ROOT ALL Z 15
     8 SEL2       31 GROUP        1 Z    SEL  0     **** SEL Z 16
     9 GLL5        5 GROUP        1 Z    GLL  0     **** GLL Z 20
@<TRIPOS>SET

