#    Name: 2eva_ADN_1_ligand
#    Modification time : Mon Apr  7 17:56:14 2014

@<TRIPOS>MOLECULE
2eva_ADN_1_ligand
   32    34     1     0     0
SMALL
NO_CHARGES


@<TRIPOS>ATOM
      1 O5'        11.2630   53.9360   14.3070 O.3       1 ADN498      0.0000 
      2 C5'        12.4980   53.9590   13.5640 C.3       1 ADN498      0.0000 
      3 C4'        13.6960   53.8370   14.5780 C.3       1 ADN498      0.0000 
      4 O4'        13.2370   54.8490   15.5000 O.3       1 ADN498      0.0000 
      5 C3'        13.5370   52.6200   15.4960 C.3       1 ADN498      0.0000 
      6 O3'        14.3530   51.5620   14.9470 O.3       1 ADN498      0.0000 
      7 C2'        14.0170   53.0900   16.8810 C.3       1 ADN498      0.0000 
      8 O2'        15.2270   52.4890   17.3520 O.3       1 ADN498      0.0000 
      9 C1'        14.0310   54.6180   16.6440 C.3       1 ADN498      0.0000 
     10 N9         13.5200   55.5040   17.7150 N.pl3     1 ADN498      0.0000 
     11 C8         12.1920   56.0280   17.7770 C.2       1 ADN498      0.0000 
     12 N7         11.9350   56.7770   18.8030 N.2       1 ADN498      0.0000 
     13 C5         13.1340   56.7870   19.5010 C.ar      1 ADN498      0.0000 
     14 C6         13.5510   57.4210   20.7490 C.ar      1 ADN498      0.0000 
     15 N6         12.7160   58.1790   21.4640 N.pl3     1 ADN498      0.0000 
     16 N1         14.8810   57.2190   21.1970 N.ar      1 ADN498      0.0000 
     17 C2         15.7710   56.4290   20.4690 C.ar      1 ADN498      0.0000 
     18 N3         15.4720   55.7820   19.2740 N.ar      1 ADN498      0.0000 
     19 C4         14.1430   55.9990   18.8500 C.ar      1 ADN498      0.0000 
     20 H          12.6356   54.8892   13.0222 H         1 ADN498      0.0000 
     21 H          12.5801   53.1242   12.8754 H         1 ADN498      0.0000 
     22 H          14.5543   53.9850   14.2002 H         1 ADN498      0.0000 
     23 H          12.5128   52.3759   15.5432 H         1 ADN498      0.0000 
     24 H          13.1574   52.9145   17.5497 H         1 ADN498      0.0000 
     25 H          15.0676   54.8977   16.4041 H         1 ADN498      0.0000 
     26 H          11.5462   55.7919   17.0385 H         1 ADN498      0.0000 
     27 H          13.1059   58.6221   22.2712 H         1 ADN498      0.0000 
     28 H          11.7758   58.2354   21.1280 H         1 ADN498      0.0000 
     29 H          16.7536   56.3132   20.8587 H         1 ADN498      0.0000 
     30 H          10.8666   54.8450   14.1782 H         1 ADN498      0.0000 
     31 H          14.9381   51.2679   15.7028 H         1 ADN498      0.0000 
     32 H          15.7543   53.2425   17.7447 H         1 ADN498      0.0000 
@<TRIPOS>BOND
     1    2    1 1    
     2   30    1 1    
     3    3    2 1    
     4   20    2 1    
     5   21    2 1    
     6    4    3 1    
     7    5    3 1    
     8   22    3 1    
     9    9    4 1    
    10    6    5 1    
    11    7    5 1    
    12   23    5 1    
    13   31    6 1    
    14    8    7 1    
    15    9    7 1    
    16   24    7 1    
    17   32    8 1    
    18   10    9 1    
    19   25    9 1    
    20   11   10 1    
    21   19   10 1    
    22   12   11 2    
    23   26   11 1    
    24   13   12 1    
    25   14   13 ar   
    26   19   13 ar   
    27   15   14 1    
    28   16   14 ar   
    29   27   15 1    
    30   28   15 1    
    31   17   16 ar   
    32   18   17 ar   
    33   29   17 1    
    34   19   18 ar   
@<TRIPOS>SUBSTRUCTURE
     1 ADN498      1 GROUP   
@<TRIPOS>SET

