#    Name: 2v6g_NAP_1_INTS_M
#    Modification time : Tue Mar 25 01:04:31 2014

@<TRIPOS>MOLECULE
2v6g_NAP_1_INTS_M
  136     0    12     0     0
SMALL
NO_CHARGES


@<TRIPOS>ATOM
      1 N          -7.4525  -25.0985   30.3740 N.am      2 SEC2        0.0000 
      2 N          -6.9230  -26.0370   31.4730 N.am     10 SEL2        0.0000 
      3 N          -7.9820  -24.1600   29.2750 N.am      6 SEP2        0.0000 
      4 N          -3.0860  -26.0390   30.7445 N.am      2 SEC2        0.0000 
      5 N          -4.4820  -25.7480   31.1170 N.am     10 SEL2        0.0000 
      6 N          -1.6900  -26.3300   30.3720 N.am      6 SEP2        0.0000 
      7 N          -4.7500  -24.5650   30.4925 N.am      2 SEC2        0.0000 
      8 N          -5.0180  -23.3820   29.8680 N.am      6 SEP2        0.0000 
      9 CA         -6.3625  -29.6485   33.8620 C.3       4 GLC5        0.0000 
     10 CA         -6.3270  -29.0210   31.8280 C.3      12 GLL5        0.0000 
     11 CA         -6.3980  -30.2760   35.8960 C.3       8 GLP5        0.0000 
     12 CA         -6.3130  -31.0260   33.3230 C.3       4 GLC5        0.0000 
     13 CA         -5.8230  -30.3820   31.3810 C.3      12 GLL5        0.0000 
     14 CA         -6.8030  -31.6700   35.2650 C.3       8 GLP5        0.0000 
     15 N          -7.2210  -31.4625   33.1575 N.am      2 SEC2        0.0000 
     16 N          -6.5640  -31.4260   31.9830 N.am     10 SEL2        0.0000 
     17 N          -7.8780  -31.4990   34.3320 N.am      6 SEP2        0.0000 
     18 N          -3.4405  -31.8265   28.9015 N.am      2 SEC2        0.0000 
     19 N          -4.8910  -31.3980   29.4070 N.am     10 SEL2        0.0000 
     20 N          -1.9900  -32.2550   28.3960 N.am      6 SEP2        0.0000 
     21 N          -4.6175  -31.6165   28.1830 N.am      2 SEC2        0.0000 
     22 N          -4.3440  -31.8350   26.9590 N.am      6 SEP2        0.0000 
     23 O          -3.5695  -31.4615   30.5190 O.2       1 ALC1        0.0000 
     24 O          -4.8910  -31.3980   29.4070 O.2       9 ALL1        0.0000 
     25 O          -2.2480  -31.5250   31.6310 O.2       5 ALP1        0.0000 
     26 CA         -5.5375  -32.6115   31.7410 C.3       4 GLC5        0.0000 
     27 CA         -7.1910  -32.1990   30.9610 C.3      12 GLL5        0.0000 
     28 CA         -3.8840  -33.0240   32.5210 C.3       8 GLP5        0.0000 
     29 CA         -6.9970  -31.9345   33.1130 C.3       4 GLC5        0.0000 
     30 CA        -11.2380  -37.1890   32.0230 C.3       4 GLC5        0.0000 
     31 CA        -10.6990  -35.1200   32.5610 C.3      12 GLL5        0.0000 
     32 CA        -11.7770  -39.2580   31.4850 C.3       8 GLP5        0.0000 
     33 CA        -10.3290  -35.9750   34.2405 C.3       4 GLC5        0.0000 
     34 CA         -9.9590  -36.8300   35.9200 C.3       8 GLP5        0.0000 
     35 O         -12.8220  -36.3490   32.8015 O.2       1 ALC1        0.0000 
     36 O         -11.9540  -35.1540   32.9810 O.2       9 ALL1        0.0000 
     37 O         -13.6900  -37.5440   32.6220 O.2       5 ALP1        0.0000 
     38 N         -10.5295  -37.5335   33.1210 N.am      2 SEC2        0.0000 
     39 N          -9.9570  -36.2800   32.4580 N.am     10 SEL2        0.0000 
     40 N         -11.1020  -38.7870   33.7840 N.am      6 SEP2        0.0000 
     41 CA         -7.1115  -37.5610   32.0830 C.3       4 GLC5        0.0000 
     42 CA         -8.6460  -36.2470   31.9990 C.3      12 GLL5        0.0000 
     43 CA         -5.5770  -38.8750   32.1670 C.3       8 GLP5        0.0000 
     44 CA         -7.3315  -36.2160   30.5070 C.3       4 GLC5        0.0000 
     45 CA         -6.0170  -36.1850   29.0150 C.3       8 GLP5        0.0000 
     46 CA         -9.8955  -36.3410   30.5450 C.3       4 GLC5        0.0000 
     47 CA        -11.1450  -36.4350   29.0910 C.3       8 GLP5        0.0000 
     48 CA        -10.2115  -37.7525   31.7420 C.3       4 GLC5        0.0000 
     49 CA         -8.5630  -37.5000   33.5975 C.3       4 GLC5        0.0000 
     50 CA         -8.4800  -38.7530   35.1960 C.3       8 GLP5        0.0000 
     51 CA         -9.9805  -35.1650   30.4205 C.3       4 GLC5        0.0000 
     52 CA         -8.8160  -33.8950   31.7500 C.3      12 GLL5        0.0000 
     53 CA         -6.1090  -28.2715   36.2320 C.3       4 GLC5        0.0000 
     54 CA         -5.8200  -26.2670   36.5680 C.3      12 GLL5        0.0000 
     55 CA         -3.5350  -25.9435   38.8750 C.3       4 GLC5        0.0000 
     56 CA         -5.4310  -25.7860   37.9580 C.3      12 GLL5        0.0000 
     57 CA         -1.6390  -26.1010   39.7920 C.3       8 GLP5        0.0000 
     58 N          -3.0600  -25.0675   37.6885 N.am      2 SEC2        0.0000 
     59 N          -4.4670  -24.7230   37.9380 N.am     10 SEL2        0.0000 
     60 N          -1.6530  -25.4120   37.4390 N.am      6 SEP2        0.0000 
     61 CA         -8.2205  -25.8715   37.6065 C.3       4 GLC5        0.0000 
     62 CA         -6.7410  -25.2390   38.4890 C.3      12 GLL5        0.0000 
     63 CA         -9.7000  -26.5040   36.7240 C.3       8 GLP5        0.0000 
     64 CA         -7.3845  -24.6850   40.5275 C.3       4 GLC5        0.0000 
     65 CA         -8.0280  -24.1310   42.5660 C.3       8 GLP5        0.0000 
     66 O          -6.8790  -26.7340   40.0415 O.2       1 ALC1        0.0000 
     67 O          -6.8860  -25.5160   39.8490 O.2       9 ALL1        0.0000 
     68 O          -6.8720  -27.9520   40.2340 O.2       5 ALP1        0.0000 
     69 CA         -7.7375  -25.0260   36.8975 C.3       4 GLC5        0.0000 
     70 CA         -6.5910  -23.7820   38.1430 C.3      12 GLL5        0.0000 
     71 CA         -8.8840  -26.2700   35.6520 C.3       8 GLP5        0.0000 
     72 O          -7.3455  -22.6240   40.1015 O.2       1 ALC1        0.0000 
     73 O          -7.5170  -23.0150   38.8670 O.2       9 ALL1        0.0000 
     74 O          -7.1740  -22.2330   41.3360 O.2       5 ALP1        0.0000 
     75 CA         -3.3715  -24.8345   39.1210 C.3       4 GLC5        0.0000 
     76 CA         -5.1040  -23.5680   38.4500 C.3      12 GLL5        0.0000 
     77 N          -2.3245  -18.3610   34.6510 N.am      2 SEC2        0.0000 
     78 N          -3.6390  -19.0610   34.3510 N.am     10 SEL2        0.0000 
     79 N          -1.0100  -17.6610   34.9510 N.am      6 SEP2        0.0000 
     80 N          -3.3560  -18.4965   33.1135 N.am      2 SEC2        0.0000 
     81 N          -3.0730  -17.9320   31.8760 N.am      6 SEP2        0.0000 
     82 O          -4.5130  -20.9395   32.5525 O.2       1 ALC1        0.0000 
     83 O          -4.1700  -21.3650   33.8500 O.2       9 ALL1        0.0000 
     84 O          -4.8560  -20.5140   31.2550 O.2       5 ALP1        0.0000 
     85 CA         -2.8360  -17.8430   36.7925 C.3       4 GLC5        0.0000 
     86 CA         -3.7390  -19.7500   37.1470 C.3      12 GLL5        0.0000 
     87 CA         -1.9330  -15.9360   36.4380 C.3       8 GLP5        0.0000 
     88 CA         -3.9940  -21.3560   40.9015 C.3       4 GLC5        0.0000 
     89 CA         -4.1860  -21.3470   38.8830 C.3      12 GLL5        0.0000 
     90 CA         -3.8020  -21.3650   42.9200 C.3       8 GLP5        0.0000 
     91 NZ        -10.8560  -31.6520   28.5905 N.4       3 LYC4        0.0000 
     92 NZ         -9.6080  -31.4800   27.7900 N.4      11 LYL4        0.0000 
     93 NZ        -12.6360  -33.0360   29.4610 N.4       7 LYP4        0.0000 
     94 NZ         -9.2930  -30.4700   26.7640 N.4       3 LYC4        0.0000 
     95 NZ         -9.3650  -29.9130   24.5560 N.4       7 LYP4        0.0000 
     96 N         -10.8560  -31.6520   28.5905 N.am      2 SEC2        0.0000 
     97 N          -9.6080  -31.4800   27.7900 N.am     10 SEL2        0.0000 
     98 N         -12.1040  -31.8240   29.3910 N.am      6 SEP2        0.0000 
     99 N          -9.5400  -31.3525   26.0670 N.am      2 SEC2        0.0000 
    100 N          -9.4720  -31.2250   24.3440 N.am      6 SEP2        0.0000 
    101 N          -9.2930  -30.4700   26.7640 N.am      2 SEC2        0.0000 
    102 N          -8.9780  -29.4600   25.7380 N.am      6 SEP2        0.0000 
    103 NZ        -10.4840  -33.9390   29.0045 N.4       3 LYC4        0.0000 
    104 NZ         -9.1220  -33.7770   28.6490 N.4      11 LYL4        0.0000 
    105 N          -8.6900  -35.0310   28.3550 N.am      2 SEC2        0.0000 
    106 N          -9.1220  -33.7770   28.6490 N.am     10 SEL2        0.0000 
    107 N          -8.2580  -36.2850   28.0610 N.am      6 SEP2        0.0000 
    108 N         -10.4840  -33.9390   29.0045 N.am      2 SEC2        0.0000 
    109 N         -11.8460  -34.1010   29.3600 N.am      6 SEP2        0.0000 
    110 NZ         -8.9045  -32.1855   25.3920 N.4       3 LYC4        0.0000 
    111 NZ         -8.3370  -33.1460   26.4400 N.4      11 LYL4        0.0000 
    112 N          -8.6010  -34.4160   25.8360 N.am      2 SEC2        0.0000 
    113 N          -8.3370  -33.1460   26.4400 N.am     10 SEL2        0.0000 
    114 N          -8.8650  -35.6860   25.2320 N.am      6 SEP2        0.0000 
    115 N          -8.9045  -32.1855   25.3920 N.am      2 SEC2        0.0000 
    116 CA         -4.8842  -31.7515   31.5712 C.3       4 GLC5        0.0000 
    117 CA         -4.3727  -29.2874   30.2601 C.3       4 GLC5        0.0000 
    118 CA         -2.7350  -28.4360   29.7870 C.3       8 GLP5        0.0000 
    119 CA        -11.3520  -35.0010   30.8985 C.3       4 GLC5        0.0000 
    120 CA        -10.1270  -33.9040   32.2070 C.3      12 GLL5        0.0000 
    121 CA        -12.2910  -35.4900   29.4130 C.3       8 GLP5        0.0000 
    122 CA        -10.7850  -33.8195   34.3905 C.3       4 GLC5        0.0000 
    123 CA        -11.1570  -33.1270   36.3970 C.3       8 GLP5        0.0000 
    124 CA         -7.2548  -26.1482   36.4575 C.3       4 GLC5        0.0000 
    125 CA         -6.8127  -22.5080   36.9483 C.3       4 GLC5        0.0000 
    126 CA         -7.7780  -21.3410   35.6000 C.3       8 GLP5        0.0000 
    127 CA         -2.6920  -21.6150   36.0385 C.3       4 GLC5        0.0000 
    128 CA         -4.6210  -21.9350   36.6140 C.3      12 GLL5        0.0000 
    129 CA         -0.9800  -21.9290   35.6700 C.3       8 GLP5        0.0000 
    130 CA         -6.0910  -21.3210   36.0035 C.3       4 GLC5        0.0000 
    131 CA         -4.1870  -20.6670   36.2000 C.3      12 GLL5        0.0000 
    132 CA         -2.1360  -20.1980   36.7332 C.3       4 GLC5        0.0000 
    133 CA         -0.5310  -20.4730   35.6450 C.3       8 GLP5        0.0000 
    134 CA         -2.1037  -21.3233   39.2733 C.3       4 GLC5        0.0000 
    135 CA         -3.7430  -20.0960   38.4960 C.3      12 GLL5        0.0000 
    136 CA         -0.2430  -21.9250   39.8570 C.3       8 GLP5        0.0000 
@<TRIPOS>BOND
@<TRIPOS>SUBSTRUCTURE
     1 ALC1       23 GROUP        1 X    ALC  0     ROOT ALC X 1
     2 SEC2        1 GROUP        1 X    SEC  0     **** SEC X 2
     3 LYC4       91 GROUP        1 X    LYC  0     **** LYC X 4
     4 GLC5        9 GROUP        1 X    GLC  0     **** GLC X 6
     5 ALP1       25 GROUP        1 Y    ALP  0     ROOT ALP Y 8
     6 SEP2        3 GROUP        1 Y    SEP  0     **** SEP Y 9
     7 LYP4       93 GROUP        1 Y    LYP  0     **** LYP Y 11
     8 GLP5       11 GROUP        1 Y    GLP  0     **** GLP Y 13
     9 ALL1       24 GROUP        1 Z    ALL  0     ROOT ALL Z 15
    10 SEL2        2 GROUP        1 Z    SEL  0     **** SEL Z 16
    11 LYL4       92 GROUP        1 Z    LYL  0     **** LYL Z 18
    12 GLL5       10 GROUP        1 Z    GLL  0     **** GLL Z 20
@<TRIPOS>SET

