#    Name: 2v6g_NAP_1_ligand
#    Modification time : Tue Mar 25 01:04:32 2014

@<TRIPOS>MOLECULE
2v6g_NAP_1_ligand
   73    77     1     0     0
SMALL
NO_CHARGES


@<TRIPOS>ATOM
      1 PA         -5.5630  -26.5400   31.7300 P.3       1 NAP1390     0.0000 
      2 O1A        -6.9230  -26.0370   31.4730 O.co2     1 NAP1390     0.0000 
      3 O2A        -4.4820  -25.7480   31.1170 O.co2     1 NAP1390     0.0000 
      4 O5B        -5.3920  -28.0770   31.3710 O.3       1 NAP1390     0.0000 
      5 C5B        -6.3270  -29.0210   31.8280 C.3       1 NAP1390     0.0000 
      6 C4B        -5.8230  -30.3820   31.3810 C.3       1 NAP1390     0.0000 
      7 O4B        -6.5640  -31.4260   31.9830 O.3       1 NAP1390     0.0000 
      8 C3B        -5.9460  -30.5760   29.8620 C.3       1 NAP1390     0.0000 
      9 O3B        -4.8910  -31.3980   29.4070 O.3       1 NAP1390     0.0000 
     10 C2B        -7.2320  -31.3390   29.6900 C.3       1 NAP1390     0.0000 
     11 O2B        -7.2370  -32.0760   28.4700 O.3       1 NAP1390     0.0000 
     12 C1B        -7.1910  -32.1990   30.9610 C.3       1 NAP1390     0.0000 
     13 N9A        -8.5180  -32.6080   31.4470 N.pl3     1 NAP1390     0.0000 
     14 C8A        -9.6170  -31.8150   31.7360 C.2       1 NAP1390     0.0000 
     15 N7A       -10.5990  -32.6280   32.2040 N.2       1 NAP1390     0.0000 
     16 C5A       -10.1270  -33.9040   32.2070 C.ar      1 NAP1390     0.0000 
     17 C6A       -10.6990  -35.1200   32.5610 C.ar      1 NAP1390     0.0000 
     18 N6A       -11.9540  -35.1540   32.9810 N.pl3     1 NAP1390     0.0000 
     19 N1A        -9.9570  -36.2800   32.4580 N.ar      1 NAP1390     0.0000 
     20 C2A        -8.6460  -36.2470   31.9990 C.ar      1 NAP1390     0.0000 
     21 N3A        -8.0820  -35.0250   31.6480 N.ar      1 NAP1390     0.0000 
     22 C4A        -8.8160  -33.8950   31.7500 C.ar      1 NAP1390     0.0000 
     23 O3         -5.3960  -26.5380   33.3840 O.3       1 NAP1390     0.0000 
     24 PN         -4.4820  -25.6210   34.4020 P.3       1 NAP1390     0.0000 
     25 O1N        -3.0350  -25.9830   34.2100 O.co2     1 NAP1390     0.0000 
     26 O2N        -4.9530  -24.2340   34.2680 O.co2     1 NAP1390     0.0000 
     27 O5D        -4.6950  -26.3720   35.8030 O.3       1 NAP1390     0.0000 
     28 C5D        -5.8200  -26.2670   36.5680 C.3       1 NAP1390     0.0000 
     29 C4D        -5.4310  -25.7860   37.9580 C.3       1 NAP1390     0.0000 
     30 O4D        -4.4670  -24.7230   37.9380 O.3       1 NAP1390     0.0000 
     31 C3D        -6.7410  -25.2390   38.4890 C.3       1 NAP1390     0.0000 
     32 O3D        -6.8860  -25.5160   39.8490 O.3       1 NAP1390     0.0000 
     33 C2D        -6.5910  -23.7820   38.1430 C.3       1 NAP1390     0.0000 
     34 O2D        -7.5170  -23.0150   38.8670 O.3       1 NAP1390     0.0000 
     35 C1D        -5.1040  -23.5680   38.4500 C.3       1 NAP1390     0.0000 
     36 N1N        -4.6050  -22.2610   37.9520 N.pl3     1 NAP1390     0.0000 
     37 C2N        -4.6210  -21.9350   36.6140 C.ar      1 NAP1390     0.0000 
     38 C3N        -4.1870  -20.6670   36.2000 C.ar      1 NAP1390     0.0000 
     39 C7N        -3.9970  -20.3690   34.7350 C.2       1 NAP1390     0.0000 
     40 O7N        -3.6390  -19.0610   34.3510 O.2       1 NAP1390     0.0000 
     41 N7N        -4.1700  -21.3650   33.8500 N.am      1 NAP1390     0.0000 
     42 C4N        -3.7390  -19.7500   37.1470 C.ar      1 NAP1390     0.0000 
     43 C5N        -3.7430  -20.0960   38.4960 C.ar      1 NAP1390     0.0000 
     44 C6N        -4.1860  -21.3470   38.8830 C.ar      1 NAP1390     0.0000 
     45 P2B        -8.6280  -32.6150   27.8250 P.3       1 NAP1390     0.0000 
     46 O1X        -9.6080  -31.4800   27.7900 O.co2     1 NAP1390     0.0000 
     47 O2X        -9.1220  -33.7770   28.6490 O.co2     1 NAP1390     0.0000 
     48 O3X        -8.3370  -33.1460   26.4400 O.co2     1 NAP1390     0.0000 
     49 H          -7.3142  -28.8722   31.3971 H         1 NAP1390     0.0000 
     50 H          -6.4096  -29.0348   32.9121 H         1 NAP1390     0.0000 
     51 H          -4.7706  -30.4662   31.6301 H         1 NAP1390     0.0000 
     52 H          -6.0144  -29.6512   29.3987 H         1 NAP1390     0.0000 
     53 H          -8.0325  -30.6473   29.7968 H         1 NAP1390     0.0000 
     54 H          -6.5894  -33.0755   30.7473 H         1 NAP1390     0.0000 
     55 H          -9.6598  -30.8710   31.6214 H         1 NAP1390     0.0000 
     56 H         -12.4483  -36.0085   32.8216 H         1 NAP1390     0.0000 
     57 H         -12.2939  -34.3221   33.4196 H         1 NAP1390     0.0000 
     58 H          -8.1024  -37.1093   31.9200 H         1 NAP1390     0.0000 
     59 H          -6.3509  -27.2245   36.6964 H         1 NAP1390     0.0000 
     60 H          -6.5514  -25.5441   36.1710 H         1 NAP1390     0.0000 
     61 H          -5.1538  -26.6106   38.5472 H         1 NAP1390     0.0000 
     62 H          -7.5154  -25.6458   37.8642 H         1 NAP1390     0.0000 
     63 H          -6.7048  -23.7156   37.0692 H         1 NAP1390     0.0000 
     64 H          -5.0414  -23.5812   39.5593 H         1 NAP1390     0.0000 
     65 H          -4.9477  -22.6104   35.9124 H         1 NAP1390     0.0000 
     66 H          -4.0063  -21.1346   32.8908 H         1 NAP1390     0.0000 
     67 H          -4.4470  -22.2477   34.2296 H         1 NAP1390     0.0000 
     68 H          -3.4081  -18.8254   36.8532 H         1 NAP1390     0.0000 
     69 H          -3.4167  -19.4200   39.1982 H         1 NAP1390     0.0000 
     70 H          -4.1994  -21.5917   39.8920 H         1 NAP1390     0.0000 
     71 H          -4.2188  -31.3896   30.1473 H         1 NAP1390     0.0000 
     72 H          -7.3933  -26.3771   39.8850 H         1 NAP1390     0.0000 
     73 H          -7.1191  -22.9228   39.7798 H         1 NAP1390     0.0000 
@<TRIPOS>BOND
     1    2    1 ar   
     2    3    1 ar   
     3    4    1 1    
     4   23    1 1    
     5    5    4 1    
     6    6    5 1    
     7   49    5 1    
     8   50    5 1    
     9    7    6 1    
    10    8    6 1    
    11   51    6 1    
    12   12    7 1    
    13    9    8 1    
    14   10    8 1    
    15   52    8 1    
    16   71    9 1    
    17   11   10 1    
    18   12   10 1    
    19   53   10 1    
    20   45   11 1    
    21   13   12 1    
    22   54   12 1    
    23   14   13 1    
    24   22   13 1    
    25   15   14 2    
    26   55   14 1    
    27   16   15 1    
    28   17   16 ar   
    29   22   16 ar   
    30   18   17 1    
    31   19   17 ar   
    32   56   18 1    
    33   57   18 1    
    34   20   19 ar   
    35   21   20 ar   
    36   58   20 1    
    37   22   21 ar   
    38   24   23 1    
    39   25   24 ar   
    40   26   24 ar   
    41   27   24 1    
    42   28   27 1    
    43   29   28 1    
    44   59   28 1    
    45   60   28 1    
    46   30   29 1    
    47   31   29 1    
    48   61   29 1    
    49   35   30 1    
    50   32   31 1    
    51   33   31 1    
    52   62   31 1    
    53   72   32 1    
    54   34   33 1    
    55   35   33 1    
    56   63   33 1    
    57   73   34 1    
    58   36   35 1    
    59   64   35 1    
    60   37   36 ar   
    61   44   36 ar   
    62   38   37 ar   
    63   65   37 1    
    64   39   38 1    
    65   42   38 ar   
    66   40   39 2    
    67   41   39 am   
    68   66   41 1    
    69   67   41 1    
    70   43   42 ar   
    71   68   42 1    
    72   44   43 ar   
    73   69   43 1    
    74   70   44 1    
    75   46   45 ar   
    76   47   45 ar   
    77   48   45 ar   
@<TRIPOS>SUBSTRUCTURE
     1 NAP1390     1 GROUP   
@<TRIPOS>SET

