#    Name: 3dng_AXA_2_INTS_M
#    Modification time : Mon Mar 24 23:51:13 2014

@<TRIPOS>MOLECULE
3dng_AXA_2_INTS_M
   66     0     9     0     0
SMALL
NO_CHARGES


@<TRIPOS>ATOM
      1 CA        -10.0995   -4.5565    7.6670 C.3       3 GLC5        0.0000 
      2 CA        -11.3030   -4.5470    5.9860 C.3       9 GLL5        0.0000 
      3 CA         -8.8960   -4.5660    9.3480 C.3       6 GLP5        0.0000 
      4 CA        -13.1520   -2.9410    5.2675 C.3       3 GLC5        0.0000 
      5 CA        -11.3840   -3.2190    5.5840 C.3       9 GLL5        0.0000 
      6 CA        -14.9200   -2.6630    4.9510 C.3       6 GLP5        0.0000 
      7 O         -11.4600   -2.7000    7.9540 O.2       1 ALC1        0.0000 
      8 O         -11.6740   -2.2290    6.5310 O.2       7 ALL1        0.0000 
      9 O         -11.2460   -3.1710    9.3770 O.2       4 ALP1        0.0000 
     10 CA         -9.6510    0.2250    4.5060 C.3       3 GLC5        0.0000 
     11 CA        -11.3670   -0.6160    4.7900 C.3       9 GLL5        0.0000 
     12 CA         -7.9350    1.0660    4.2220 C.3       6 GLP5        0.0000 
     13 CA        -11.6805    0.2035    2.9225 C.3       3 GLC5        0.0000 
     14 CA        -11.9940    1.0230    1.0550 C.3       6 GLP5        0.0000 
     15 CA        -13.1435   -1.6395    4.8705 C.3       3 GLC5        0.0000 
     16 CA        -12.9810   -3.2890    4.1670 C.3       3 GLC5        0.0000 
     17 CA        -11.2530   -2.8870    4.2390 C.3       9 GLL5        0.0000 
     18 CA        -14.7090   -3.6910    4.0950 C.3       6 GLP5        0.0000 
     19 CA        -11.4530   -2.5790    1.6460 C.3       3 GLC5        0.0000 
     20 CA        -11.0010   -3.8860    3.3050 C.3       9 GLL5        0.0000 
     21 CA        -11.9050   -1.2720   -0.0130 C.3       6 GLP5        0.0000 
     22 CA        -11.5120   -8.0930    7.0580 C.3       3 GLC5        0.0000 
     23 CA        -10.9920   -7.0080    5.4950 C.3       9 GLL5        0.0000 
     24 CA        -12.0320   -9.1780    8.6210 C.3       6 GLP5        0.0000 
     25 O         -12.4020   -7.6005    4.3710 O.2       1 ALC1        0.0000 
     26 O         -10.7840   -7.8510    4.3090 O.2       7 ALL1        0.0000 
     27 O         -14.0200   -7.3500    4.4330 O.2       4 ALP1        0.0000 
     28 N          -7.3445   -6.7595    4.5695 N.am      2 SEC2        0.0000 
     29 N          -8.5410   -7.5670    4.2580 N.am      8 SEL2        0.0000 
     30 N          -6.1480   -5.9520    4.8810 N.am      5 SEP2        0.0000 
     31 O          -7.0290   -8.8010    2.5395 O.2       1 ALC1        0.0000 
     32 O          -8.3720   -9.0450    1.8000 O.2       7 ALL1        0.0000 
     33 O          -5.6860   -8.5570    3.2790 O.2       4 ALP1        0.0000 
     34 N          -6.0330   -9.8075    0.0930 N.am      2 SEC2        0.0000 
     35 N          -7.3920   -9.7420   -0.1260 N.am      8 SEL2        0.0000 
     36 N          -4.6740   -9.8730    0.3120 N.am      5 SEP2        0.0000 
     37 CA        -13.4320  -12.0460    0.2250 C.3       3 GLC5        0.0000 
     38 CA        -12.0660  -10.6940    0.0070 C.3       9 GLL5        0.0000 
     39 CA        -14.7980  -13.3980    0.4430 C.3       6 GLP5        0.0000 
     40 O          -5.8095  -10.9235   -2.9715 O.2       1 ALC1        0.0000 
     41 O          -6.5070  -10.0800   -3.8750 O.2       7 ALL1        0.0000 
     42 O          -5.1120  -11.7670   -2.0680 O.2       4 ALP1        0.0000 
     43 CA        -12.9470   -4.3688    4.8065 C.3       3 GLC5        0.0000 
     44 CA        -11.0670   -5.5460    5.0500 C.3       9 GLL5        0.0000 
     45 CA         -9.4623   -4.0560    5.7880 C.3       3 GLC5        0.0000 
     46 CA         -7.5810   -4.2290    5.7910 C.3       6 GLP5        0.0000 
     47 CA         -9.2850   -3.1313    4.4225 C.3       3 GLC5        0.0000 
     48 CA         -7.4430   -2.8760    5.0730 C.3       6 GLP5        0.0000 
     49 CA        -12.7440   -4.1308    3.0565 C.3       3 GLC5        0.0000 
     50 CA        -14.5330   -3.7120    2.6060 C.3       6 GLP5        0.0000 
     51 CA         -9.2855   -5.2114    5.3641 C.3       3 GLC5        0.0000 
     52 CA        -10.9090   -5.2130    3.7090 C.3       9 GLL5        0.0000 
     53 CA        -12.6375   -8.9410    0.7005 C.3       3 GLC5        0.0000 
     54 CA        -10.7420  -10.0480    0.8790 C.3       9 GLL5        0.0000 
     55 CA        -13.8710   -7.5110    0.9580 C.3       6 GLP5        0.0000 
     56 CA        -10.3272   -8.8524   -1.6996 C.3       3 GLC5        0.0000 
     57 CA         -9.6240  -10.1570    0.0540 C.3       9 GLL5        0.0000 
     58 CA        -10.1750   -6.9510   -2.3990 C.3       6 GLP5        0.0000 
     59 CA         -9.6345  -11.3135   -5.5515 C.3       3 GLC5        0.0000 
     60 CA        -10.7960  -11.3680   -3.8890 C.3       9 GLL5        0.0000 
     61 CA         -9.1790  -11.0590   -7.4280 C.3       6 GLP5        0.0000 
     62 CA         -8.0035  -12.6152   -3.5440 C.3       3 GLC5        0.0000 
     63 CA         -9.3840  -11.7680   -3.4610 C.3       9 GLL5        0.0000 
     64 CA         -6.8780  -13.9250   -4.1810 C.3       6 GLP5        0.0000 
     65 CA         -9.4663   -8.5475   -2.5200 C.3       3 GLC5        0.0000 
     66 CA         -8.8740  -10.8430   -2.3530 C.3       9 GLL5        0.0000 
@<TRIPOS>BOND
@<TRIPOS>SUBSTRUCTURE
     1 ALC1        7 GROUP        1 X    ALC  0     ROOT ALC X 1
     2 SEC2       28 GROUP        1 X    SEC  0     **** SEC X 2
     3 GLC5        1 GROUP        1 X    GLC  0     **** GLC X 6
     4 ALP1        9 GROUP        1 Y    ALP  0     ROOT ALP Y 8
     5 SEP2       30 GROUP        1 Y    SEP  0     **** SEP Y 9
     6 GLP5        3 GROUP        1 Y    GLP  0     **** GLP Y 13
     7 ALL1        8 GROUP        1 Z    ALL  0     ROOT ALL Z 15
     8 SEL2       29 GROUP        1 Z    SEL  0     **** SEL Z 16
     9 GLL5        2 GROUP        1 Z    GLL  0     **** GLL Z 20
@<TRIPOS>SET

