#    Name: 3dng_AXA_2_ligand
#    Modification time : Mon Mar 24 23:51:13 2014

@<TRIPOS>MOLECULE
3dng_AXA_2_ligand
   54    58     1     0     0
SMALL
NO_CHARGES


@<TRIPOS>ATOM
      1 CAH       -11.3030   -4.5470    5.9860 C.ar      1 AXA2        0.0000 
      2 CAY       -11.3840   -3.2190    5.5840 C.ar      1 AXA2        0.0000 
      3 N1        -11.6740   -2.2290    6.5310 N.am      1 AXA2        0.0000 
      4 CAV       -11.6860   -0.8940    6.1140 C.2       1 AXA2        0.0000 
      5 OAC       -11.9890    0.0050    6.8960 O.2       1 AXA2        0.0000 
      6 CAM       -11.3670   -0.6160    4.7900 C.3       1 AXA2        0.0000 
      7 OAS       -11.5370   -1.6330    3.7900 O.3       1 AXA2        0.0000 
      8 CAZ       -11.2530   -2.8870    4.2390 C.ar      1 AXA2        0.0000 
      9 CAG       -11.0010   -3.8860    3.3050 C.ar      1 AXA2        0.0000 
     10 CAF       -10.9090   -5.2130    3.7090 C.ar      1 AXA2        0.0000 
     11 CAX       -11.0670   -5.5460    5.0500 C.ar      1 AXA2        0.0000 
     12 CAL       -10.9920   -7.0080    5.4950 C.3       1 AXA2        0.0000 
     13 N2        -10.7840   -7.8510    4.3090 N.am      1 AXA2        0.0000 
     14 CAW        -9.5710   -8.0630    3.8060 C.2       1 AXA2        0.0000 
     15 OAD        -8.5410   -7.5670    4.2580 O.2       1 AXA2        0.0000 
     16 CBB        -9.5430   -8.9450    2.5570 C.2       1 AXA2        0.0000 
     17 N3        -10.6840   -9.4650    2.0840 N.2       1 AXA2        0.0000 
     18 N4         -8.3720   -9.0450    1.8000 N.am      1 AXA2        0.0000 
     19 CBD        -8.4210   -9.6540    0.5410 C.2       1 AXA2        0.0000 
     20 OAE        -7.3920   -9.7420   -0.1260 O.2       1 AXA2        0.0000 
     21 CBF        -9.6240  -10.1570    0.0540 C.2       1 AXA2        0.0000 
     22 CBC        -9.8800  -10.7080   -1.2030 C.2       1 AXA2        0.0000 
     23 CBE       -10.7420  -10.0480    0.8790 C.2       1 AXA2        0.0000 
     24 SAT       -12.0660  -10.6940    0.0070 S.3       1 AXA2        0.0000 
     25 CBA       -11.2070  -11.0750   -1.4260 C.2       1 AXA2        0.0000 
     26 CAJ       -11.7510  -11.6600   -2.7310 C.3       1 AXA2        0.0000 
     27 CAI       -10.7960  -11.3680   -3.8890 C.3       1 AXA2        0.0000 
     28 CAK        -9.3840  -11.7680   -3.4610 C.3       1 AXA2        0.0000 
     29 CBG        -8.8740  -10.8430   -2.3530 C.3       1 AXA2        0.0000 
     30 CAN        -8.6410   -9.4450   -2.9290 C.3       1 AXA2        0.0000 
     31 CAU        -7.6540   -9.4440   -4.0980 C.2       1 AXA2        0.0000 
     32 OAB        -7.9320   -8.8760   -5.1530 O.2       1 AXA2        0.0000 
     33 N5         -6.5070  -10.0800   -3.8750 N.am      1 AXA2        0.0000 
     34 H         -11.4182   -4.7906    6.9797 H         1 AXA2        0.0000 
     35 H         -11.8703   -2.4746    7.4948 H         1 AXA2        0.0000 
     36 H         -10.2814   -0.2339    4.7247 H         1 AXA2        0.0000 
     37 H         -11.9401    0.3216    4.4417 H         1 AXA2        0.0000 
     38 H         -10.8823   -3.6421    2.3119 H         1 AXA2        0.0000 
     39 H         -10.7238   -5.9499    3.0152 H         1 AXA2        0.0000 
     40 H         -11.9220   -7.2641    5.9945 H         1 AXA2        0.0000 
     41 H         -10.1679   -7.1131    6.1948 H         1 AXA2        0.0000 
     42 H         -11.6435   -8.2645    3.8968 H         1 AXA2        0.0000 
     43 H          -7.4908   -8.6781    2.1609 H         1 AXA2        0.0000 
     44 H         -12.7209  -11.2182   -2.9451 H         1 AXA2        0.0000 
     45 H         -11.8649  -12.7356   -2.6218 H         1 AXA2        0.0000 
     46 H         -10.8181  -10.3143   -4.1161 H         1 AXA2        0.0000 
     47 H         -11.0882  -11.9466   -4.7505 H         1 AXA2        0.0000 
     48 H          -8.7167  -11.7029   -4.3172 H         1 AXA2        0.0000 
     49 H          -9.3956  -12.7921   -3.0954 H         1 AXA2        0.0000 
     50 H          -7.9482  -11.2118   -1.9698 H         1 AXA2        0.0000 
     51 H          -8.2579   -8.7908   -2.1368 H         1 AXA2        0.0000 
     52 H          -9.5989   -9.0339   -3.2692 H         1 AXA2        0.0000 
     53 H          -6.3876  -10.4641   -2.9595 H         1 AXA2        0.0000 
     54 H          -5.8676  -10.1166   -4.6430 H         1 AXA2        0.0000 
@<TRIPOS>BOND
     1    2    1 ar   
     2   11    1 ar   
     3   34    1 1    
     4    3    2 1    
     5    8    2 ar   
     6    4    3 am   
     7   35    3 1    
     8    5    4 2    
     9    6    4 1    
    10    7    6 1    
    11   36    6 1    
    12   37    6 1    
    13    8    7 1    
    14    9    8 ar   
    15   10    9 ar   
    16   38    9 1    
    17   11   10 ar   
    18   39   10 1    
    19   12   11 1    
    20   13   12 1    
    21   40   12 1    
    22   41   12 1    
    23   14   13 am   
    24   42   13 1    
    25   15   14 2    
    26   16   14 1    
    27   17   16 2    
    28   18   16 1    
    29   23   17 1    
    30   19   18 am   
    31   43   18 1    
    32   20   19 2    
    33   21   19 1    
    34   22   21 1    
    35   23   21 2    
    36   25   22 2    
    37   29   22 1    
    38   24   23 1    
    39   25   24 1    
    40   26   25 1    
    41   27   26 1    
    42   44   26 1    
    43   45   26 1    
    44   28   27 1    
    45   46   27 1    
    46   47   27 1    
    47   29   28 1    
    48   48   28 1    
    49   49   28 1    
    50   30   29 1    
    51   50   29 1    
    52   31   30 1    
    53   51   30 1    
    54   52   30 1    
    55   32   31 2    
    56   33   31 am   
    57   53   33 1    
    58   54   33 1    
@<TRIPOS>SUBSTRUCTURE
     1 AXA2        1 GROUP   
@<TRIPOS>SET

