#    Name: 1pnv_TYD_1_INTS_M
#    Modification time : Mon Mar 24 21:59:18 2014

@<TRIPOS>MOLECULE
1pnv_TYD_1_INTS_M
   56     0     9     0     0
SMALL
NO_CHARGES


@<TRIPOS>ATOM
      1 N          41.4600   78.4685   30.2715 N.am      2 SEC2        0.0000 
      2 N          41.7300   79.9180   29.4220 N.am      8 SEL2        0.0000 
      3 N          41.1900   77.0190   31.1210 N.am      5 SEP2        0.0000 
      4 N          43.9740   77.9905   29.8150 N.am      2 SEC2        0.0000 
      5 N          43.3570   78.0590   28.7600 N.am      8 SEL2        0.0000 
      6 N          44.5910   77.9220   30.8700 N.am      5 SEP2        0.0000 
      7 N          42.2735   77.5390   29.9405 N.am      2 SEC2        0.0000 
      8 N          42.9945   76.7970   28.9940 N.am      2 SEC2        0.0000 
      9 N          42.6320   75.5350   29.2280 N.am      5 SEP2        0.0000 
     10 N          44.8075   82.7135   25.4255 N.am      2 SEC2        0.0000 
     11 N          44.5790   81.2860   25.6010 N.am      8 SEL2        0.0000 
     12 N          45.0360   84.1410   25.2500 N.am      5 SEP2        0.0000 
     13 N          43.1685   81.7735   25.4235 N.am      2 SEC2        0.0000 
     14 N          41.7580   82.2610   25.2460 N.am      5 SEP2        0.0000 
     15 N          44.9490   80.8560   24.3020 N.am      2 SEC2        0.0000 
     16 N          45.3190   80.4260   23.0030 N.am      5 SEP2        0.0000 
     17 N          45.6450   78.4370   24.9485 N.am      2 SEC2        0.0000 
     18 N          44.5840   78.7750   25.9990 N.am      8 SEL2        0.0000 
     19 N          46.7060   78.0990   23.8980 N.am      5 SEP2        0.0000 
     20 N          44.9515   79.6005   24.5010 N.am      2 SEC2        0.0000 
     21 N          45.6765   78.1270   27.0725 N.am      2 SEC2        0.0000 
     22 N          46.7690   77.4790   28.1460 N.am      5 SEP2        0.0000 
     23 N          46.2955   78.8995   27.8640 N.am      2 SEC2        0.0000 
     24 N          45.8220   80.3200   27.5820 N.am      8 SEL2        0.0000 
     25 CA         38.4300   80.1875   25.9300 C.3       3 GLC5        0.0000 
     26 CA         40.3050   79.3160   26.8010 C.3       9 GLL5        0.0000 
     27 CA         36.5550   81.0590   25.0590 C.3       6 GLP5        0.0000 
     28 CA         40.1485   79.2185   29.0340 C.3       3 GLC5        0.0000 
     29 CA         39.9920   79.1210   31.2670 C.3       6 GLP5        0.0000 
     30 CA         38.0020   79.2810   25.1505 C.3       3 GLC5        0.0000 
     31 CA         39.1170   78.4800   26.3590 C.3       9 GLL5        0.0000 
     32 CA         36.8870   80.0820   23.9420 C.3       6 GLP5        0.0000 
     33 CA         39.2960   78.2810   29.3035 C.3       3 GLC5        0.0000 
     34 CA         38.6000   77.4410   27.3400 C.3       9 GLL5        0.0000 
     35 CA         38.9000   74.6205   26.6700 C.3       3 GLC5        0.0000 
     36 CA         37.7980   76.4770   26.4590 C.3       9 GLL5        0.0000 
     37 CA         40.0020   72.7640   26.8810 C.3       6 GLP5        0.0000 
     38 CA         39.2225   77.7865   23.3090 C.3       3 GLC5        0.0000 
     39 CA         38.3020   76.7820   25.0430 C.3       9 GLL5        0.0000 
     40 CA         40.1430   78.7910   21.5750 C.3       6 GLP5        0.0000 
     41 O          37.4615   72.7480   22.5935 O.2       1 ALC1        0.0000 
     42 O          38.1150   73.9280   22.7530 O.2       7 ALL1        0.0000 
     43 O          36.8080   71.5680   22.4340 O.2       4 ALP1        0.0000 
     44 N          38.7680   71.8690   20.7795 N.am      2 SEC2        0.0000 
     45 N          39.6290   72.7580   21.5680 N.am      8 SEL2        0.0000 
     46 N          37.9070   70.9800   19.9910 N.am      5 SEP2        0.0000 
     47 CA         40.0900   77.0665   22.7645 C.3       3 GLC5        0.0000 
     48 CA         40.0370   75.3420   23.9540 C.3       9 GLL5        0.0000 
     49 CA         40.0025   79.4560   24.5055 C.3       3 GLC5        0.0000 
     50 CA         40.2940   80.0140   22.4310 C.3       6 GLP5        0.0000 
     51 CA         40.4705   80.6400   26.5880 C.3       3 GLC5        0.0000 
     52 CA         41.2300   82.3820   26.5960 C.3       6 GLP5        0.0000 
     53 CA         37.5210   75.8445   28.0418 C.3       3 GLC5        0.0000 
     54 CA         36.8430   74.7300   29.1840 C.3       6 GLP5        0.0000 
     55 CA         37.4685   78.3558   24.8465 C.3       3 GLC5        0.0000 
     56 CA         40.1188   73.8183   25.1980 C.3       3 GLC5        0.0000 
@<TRIPOS>BOND
@<TRIPOS>SUBSTRUCTURE
     1 ALC1       41 GROUP        1 X    ALC  0     ROOT ALC X 1
     2 SEC2        1 GROUP        1 X    SEC  0     **** SEC X 2
     3 GLC5       25 GROUP        1 X    GLC  0     **** GLC X 6
     4 ALP1       43 GROUP        1 Y    ALP  0     ROOT ALP Y 8
     5 SEP2        3 GROUP        1 Y    SEP  0     **** SEP Y 9
     6 GLP5       27 GROUP        1 Y    GLP  0     **** GLP Y 13
     7 ALL1       42 GROUP        1 Z    ALL  0     ROOT ALL Z 15
     8 SEL2        2 GROUP        1 Z    SEL  0     **** SEL Z 16
     9 GLL5       26 GROUP        1 Z    GLL  0     **** GLL Z 20
@<TRIPOS>SET

