#    Name: 1pnv_TYD_1_ligand
#    Modification time : Mon Mar 24 21:59:18 2014

@<TRIPOS>MOLECULE
1pnv_TYD_1_ligand
   38    39     1     0     0
SMALL
NO_CHARGES


@<TRIPOS>ATOM
      1 PA         42.4260   79.1450   28.3610 P.3       1 TYD405      0.0000 
      2 O1A        41.7300   79.9180   29.4220 O.co2     1 TYD405      0.0000 
      3 O2A        43.3570   78.0590   28.7600 O.co2     1 TYD405      0.0000 
      4 O3A        43.3260   80.2300   27.5430 O.3       1 TYD405      0.0000 
      5 PB         44.6600   80.1600   26.6170 P.3       1 TYD405      0.0000 
      6 O1B        44.5790   81.2860   25.6010 O.co2     1 TYD405      0.0000 
      7 O2B        44.5840   78.7750   25.9990 O.co2     1 TYD405      0.0000 
      8 O3B        45.8220   80.3200   27.5820 O.co2     1 TYD405      0.0000 
      9 O5'        41.3230   78.5050   27.3890 O.3       1 TYD405      0.0000 
     10 C5'        40.3050   79.3160   26.8010 C.3       1 TYD405      0.0000 
     11 C4'        39.1170   78.4800   26.3590 C.3       1 TYD405      0.0000 
     12 O4'        39.3890   77.6710   25.1950 O.3       1 TYD405      0.0000 
     13 C3'        38.6000   77.4410   27.3400 C.3       1 TYD405      0.0000 
     14 O3'        37.7380   78.0370   28.3010 O.3       1 TYD405      0.0000 
     15 C2'        37.7980   76.4770   26.4590 C.3       1 TYD405      0.0000 
     16 C1'        38.3020   76.7820   25.0430 C.3       1 TYD405      0.0000 
     17 N1         38.7120   75.5980   24.2520 N.am      1 TYD405      0.0000 
     18 C2         37.6950   74.8760   23.6530 C.2       1 TYD405      0.0000 
     19 O2         36.5140   75.0520   23.9050 O.2       1 TYD405      0.0000 
     20 N3         38.1150   73.9280   22.7530 N.am      1 TYD405      0.0000 
     21 C4         39.4140   73.6270   22.4010 C.2       1 TYD405      0.0000 
     22 O4         39.6290   72.7580   21.5680 O.2       1 TYD405      0.0000 
     23 C5         40.4340   74.4030   23.0760 C.2       1 TYD405      0.0000 
     24 C5M        41.8730   74.1240   22.7740 C.3       1 TYD405      0.0000 
     25 C6         40.0370   75.3420   23.9540 C.2       1 TYD405      0.0000 
     26 H          40.6827   79.8596   25.9175 H         1 TYD405      0.0000 
     27 H          39.9367   80.0778   27.5100 H         1 TYD405      0.0000 
     28 H          38.2693   79.1364   26.1219 H         1 TYD405      0.0000 
     29 H          39.4135   76.9181   27.7507 H         1 TYD405      0.0000 
     30 H          36.7666   76.7026   26.5277 H         1 TYD405      0.0000 
     31 H          38.0334   75.4777   26.7148 H         1 TYD405      0.0000 
     32 H          37.4848   77.3008   24.5234 H         1 TYD405      0.0000 
     33 H          37.3396   73.3495   22.2624 H         1 TYD405      0.0000 
     34 H          40.7702   75.9262   24.4530 H         1 TYD405      0.0000 
     35 H          42.4841   74.7199   23.2950 H         1 TYD405      0.0000 
     36 H          42.1231   73.1816   22.9960 H         1 TYD405      0.0000 
     37 H          42.0831   74.2628   21.8062 H         1 TYD405      0.0000 
     38 H          38.1323   77.7949   29.1875 H         1 TYD405      0.0000 
@<TRIPOS>BOND
     1    2    1 ar   
     2    3    1 ar   
     3    4    1 1    
     4    9    1 1    
     5    5    4 1    
     6    6    5 ar   
     7    7    5 ar   
     8    8    5 ar   
     9   10    9 1    
    10   11   10 1    
    11   26   10 1    
    12   27   10 1    
    13   12   11 1    
    14   13   11 1    
    15   28   11 1    
    16   16   12 1    
    17   14   13 1    
    18   15   13 1    
    19   29   13 1    
    20   38   14 1    
    21   16   15 1    
    22   30   15 1    
    23   31   15 1    
    24   17   16 1    
    25   32   16 1    
    26   18   17 1    
    27   25   17 1    
    28   19   18 2    
    29   20   18 1    
    30   21   20 1    
    31   33   20 1    
    32   22   21 2    
    33   23   21 1    
    34   24   23 1    
    35   25   23 2    
    36   35   24 1    
    37   36   24 1    
    38   37   24 1    
    39   34   25 1    
@<TRIPOS>SUBSTRUCTURE
     1 TYD405      1 GROUP   
@<TRIPOS>SET

