#    Name: 3r7n_ASP_VAL_ALA_ACE_ASA_1_INTS_M
#    Modification time : Mon Apr  7 19:57:20 2014

@<TRIPOS>MOLECULE
3r7n_ASP_VAL_ALA_ACE_ASA_1_INTS_M
   84     0    12     0     0
SMALL
NO_CHARGES


@<TRIPOS>ATOM
      1 O           4.0425  -27.3345   18.1690 O.2       1 ALC1        0.0000 
      2 O           4.0610  -26.8870   19.7440 O.2       9 ALL1        0.0000 
      3 O           4.0240  -27.7820   16.5940 O.2       5 ALP1        0.0000 
      4 CA          4.6610  -24.6540   21.1490 C.3       4 GLC5        0.0000 
      5 CA          3.1000  -25.9280   20.2780 C.3      12 GLL5        0.0000 
      6 CA          6.2220  -23.3800   22.0200 C.3       8 GLP5        0.0000 
      7 CA          0.6925  -24.6150   19.7800 C.3       4 GLC5        0.0000 
      8 CA          2.5430  -25.0420   19.1640 C.3      12 GLL5        0.0000 
      9 CA         -1.1580  -24.1880   20.3960 C.3       8 GLP5        0.0000 
     10 CA          1.9475  -23.2270   18.2530 C.3       4 GLC5        0.0000 
     11 CA          1.3520  -21.4120   17.3420 C.3       8 GLP5        0.0000 
     12 N           6.0320  -24.0390   19.1365 N.am      2 SEC2        0.0000 
     13 N           4.5470  -23.6640   19.0740 N.am     10 SEL2        0.0000 
     14 N           7.5170  -24.4140   19.1990 N.am      6 SEP2        0.0000 
     15 N           3.9120  -22.3055   18.9890 N.am      2 SEC2        0.0000 
     16 N           3.2770  -20.9470   18.9040 N.am      6 SEP2        0.0000 
     17 N           3.2480  -25.0200   16.0225 N.am      2 SEC2        0.0000 
     18 N           3.7390  -24.3520   17.1760 N.am     10 SEL2        0.0000 
     19 N           2.7570  -25.6880   14.8690 N.am      6 SEP2        0.0000 
     20 O           2.8365  -25.0575   22.6460 O.2       1 ALC1        0.0000 
     21 O           1.7750  -26.0580   22.3000 O.2       9 ALL1        0.0000 
     22 O           3.8980  -24.0570   22.9920 O.2       5 ALP1        0.0000 
     23 CA         -0.1890  -25.3655   21.8345 C.3       4 GLC5        0.0000 
     24 CA          0.7800  -26.5430   23.2730 C.3      12 GLL5        0.0000 
     25 CA         -0.7995  -27.4635   22.2450 C.3       4 GLC5        0.0000 
     26 CA         -2.3790  -28.3840   21.2170 C.3       8 GLP5        0.0000 
     27 N           1.2250  -23.0180   23.2610 N.am      2 SEC2        0.0000 
     28 N           0.4760  -24.1710   23.4480 N.am     10 SEL2        0.0000 
     29 N           1.9740  -21.8650   23.0740 N.am      6 SEP2        0.0000 
     30 CA          4.3890  -28.0410   24.4705 C.3       4 GLC5        0.0000 
     31 CA          2.3890  -28.4160   24.0250 C.3      12 GLL5        0.0000 
     32 CA          6.3890  -27.6660   24.9160 C.3       8 GLP5        0.0000 
     33 CA          2.7890  -24.1340   25.2205 C.3       4 GLC5        0.0000 
     34 CA          2.3260  -26.2940   25.2260 C.3      12 GLL5        0.0000 
     35 CA          3.2520  -21.9740   25.2150 C.3       8 GLP5        0.0000 
     36 CA          4.3575  -26.9800   25.0710 C.3       4 GLC5        0.0000 
     37 CA         -2.0405  -23.6335   22.9935 C.3       4 GLC5        0.0000 
     38 CA         -1.8610  -24.3910   25.0530 C.3      12 GLL5        0.0000 
     39 CA         -2.2200  -22.8760   20.9340 C.3       8 GLP5        0.0000 
     40 CA         -4.6015  -23.5385   24.0940 C.3       4 GLC5        0.0000 
     41 CA         -3.3120  -24.8340   24.9000 C.3      12 GLL5        0.0000 
     42 CA         -5.8910  -22.2430   23.2880 C.3       8 GLP5        0.0000 
     43 CA         -3.7240  -26.2120   23.7910 C.3       4 GLC5        0.0000 
     44 CA         -4.1360  -27.5900   22.6820 C.3       8 GLP5        0.0000 
     45 N           6.2575  -26.0630   22.4565 N.am      2 SEC2        0.0000 
     46 N           5.2560  -26.9750   21.6330 N.am     10 SEL2        0.0000 
     47 N           7.2590  -25.1510   23.2800 N.am      6 SEP2        0.0000 
     48 N           6.6215  -27.4870   22.3900 N.am      2 SEC2        0.0000 
     49 N           7.9870  -27.9990   23.1470 N.am      6 SEP2        0.0000 
     50 CA         -1.5845  -23.4370   29.6190 C.3       4 GLC5        0.0000 
     51 CA         -1.7820  -22.1600   28.0720 C.3      12 GLL5        0.0000 
     52 CA         -1.3870  -24.7140   31.1660 C.3       8 GLP5        0.0000 
     53 N          -2.8710  -22.6120   30.5455 N.am      2 SEC2        0.0000 
     54 N          -3.4990  -21.4920   29.6670 N.am     10 SEL2        0.0000 
     55 N          -2.2430  -23.7320   31.4240 N.am      6 SEP2        0.0000 
     56 N          -3.9120  -20.0535   29.2055 N.am      2 SEC2        0.0000 
     57 N          -4.3250  -18.6150   28.7440 N.am      6 SEP2        0.0000 
     58 CA         -1.9045  -18.9480   28.8495 C.3       4 GLC5        0.0000 
     59 CA         -1.2020  -20.7640   28.0680 C.3      12 GLL5        0.0000 
     60 CA         -2.6070  -17.1320   29.6310 C.3       8 GLP5        0.0000 
     61 CA         -1.7830  -19.3900   26.5235 C.3       4 GLC5        0.0000 
     62 CA         -2.3640  -18.0160   24.9790 C.3       8 GLP5        0.0000 
     63 NZ          1.8420  -20.5835   29.5720 N.4       3 LYC4        0.0000 
     64 NZ          0.8800  -19.7650   27.8960 N.4      11 LYL4        0.0000 
     65 NZ          2.9400  -20.1840   31.2770 N.4       7 LYP4        0.0000 
     66 N           1.9135  -19.5820   29.0525 N.am      2 SEC2        0.0000 
     67 N           0.8800  -19.7650   27.8960 N.am     10 SEL2        0.0000 
     68 N           2.9470  -19.3990   30.2090 N.am      6 SEP2        0.0000 
     69 N           0.9185  -18.6540   27.0275 N.am      2 SEC2        0.0000 
     70 N           0.9570  -17.5430   26.1590 N.am      6 SEP2        0.0000 
     71 NZ          0.7370  -21.7680   28.9350 N.4      11 LYL4        0.0000 
     72 NZ          1.3030  -23.1160   28.6550 N.4       3 LYC4        0.0000 
     73 NZ          3.0370  -23.9820   28.0000 N.4       7 LYP4        0.0000 
     74 N           1.3425  -21.4280   30.1445 N.am      2 SEC2        0.0000 
     75 N           0.7370  -21.7680   28.9350 N.am     10 SEL2        0.0000 
     76 N           1.9480  -21.0880   31.3540 N.am      6 SEP2        0.0000 
     77 N           1.8420  -20.5835   29.5720 N.am      2 SEC2        0.0000 
     78 N           1.9835  -22.2115   28.4530 N.am      2 SEC2        0.0000 
     79 N           3.2300  -22.6550   27.9710 N.am      6 SEP2        0.0000 
     80 N           1.3030  -23.1160   28.6550 N.am      2 SEC2        0.0000 
     81 N           1.8690  -24.4640   28.3750 N.am      6 SEP2        0.0000 
     82 CA         -3.4872  -23.0167   26.0237 C.3       4 GLC5        0.0000 
     83 CA         -4.3880  -21.4210   27.0710 C.3       8 GLP5        0.0000 
     84 CA         -2.9400  -21.4415   27.5705 C.3       4 GLC5        0.0000 
@<TRIPOS>BOND
@<TRIPOS>SUBSTRUCTURE
     1 ALC1        1 GROUP        1 X    ALC  0     ROOT ALC X 1
     2 SEC2       12 GROUP        1 X    SEC  0     **** SEC X 2
     3 LYC4       63 GROUP        1 X    LYC  0     **** LYC X 4
     4 GLC5        4 GROUP        1 X    GLC  0     **** GLC X 6
     5 ALP1        3 GROUP        1 Y    ALP  0     ROOT ALP Y 8
     6 SEP2       14 GROUP        1 Y    SEP  0     **** SEP Y 9
     7 LYP4       65 GROUP        1 Y    LYP  0     **** LYP Y 11
     8 GLP5        6 GROUP        1 Y    GLP  0     **** GLP Y 13
     9 ALL1        2 GROUP        1 Z    ALL  0     ROOT ALL Z 15
    10 SEL2       13 GROUP        1 Z    SEL  0     **** SEL Z 16
    11 LYL4       64 GROUP        1 Z    LYL  0     **** LYL Z 18
    12 GLL5        5 GROUP        1 Z    GLL  0     **** GLL Z 20
@<TRIPOS>SET

