#    Name: 3r7n_ASP_VAL_ALA_ACE_ASA_1_ligand
#    Modification time : Mon Apr  7 19:57:20 2014

@<TRIPOS>MOLECULE
3r7n_ASP_VAL_ALA_ACE_ASA_1_ligand
   55    54     5     0     0
SMALL
NO_CHARGES


@<TRIPOS>ATOM
      1 N           4.0610  -26.8870   19.7440 N.am      1 ASP403      0.0000
      2 CA          3.1000  -25.9280   20.2780 C.3       1 ASP403      0.0000
      3 C           2.0100  -26.5850   21.0970 C.2       1 ASP403      0.0000
      4 O           1.4290  -27.5550   20.6440 O.2       1 ASP403      0.0000
      5 CB          2.5430  -25.0420   19.1640 C.3       1 ASP403      0.0000
      6 CG          3.6730  -24.2870   18.4160 C.2       1 ASP403      0.0000
      7 OD1         4.5470  -23.6640   19.0740 O.co2     1 ASP403      0.0000
      8 OD2         3.7390  -24.3520   17.1760 O.co2     1 ASP403      0.0000
      9 HNCA        3.8427  -27.2703   18.8014 H         1 ASP403      0.0000
     10 HA          3.6516  -25.2379   20.9695 H         1 ASP403      0.0000
     11 HB2         1.8573  -24.3099   19.5891 H         1 ASP403      0.0000
     12 HB3         2.0006  -25.6566   18.4463 H         1 ASP403      0.0000
     13 N           1.7750  -26.0580   22.3000 N.am      2 VAL404      0.0000
     14 CA          0.7800  -26.5430   23.2730 C.3       2 VAL404      0.0000
     15 C           0.0570  -25.2890   23.7740 C.2       2 VAL404      0.0000
     16 O           0.4760  -24.1710   23.4480 O.2       2 VAL404      0.0000
     17 CB          1.4770  -27.2540   24.4930 C.3       2 VAL404      0.0000
     18 CG1         2.3890  -28.4160   24.0250 C.3       2 VAL404      0.0000
     19 CG2         2.3260  -26.2940   25.2260 C.3       2 VAL404      0.0000
     20 HNCA        2.3276  -25.2101   22.6372 H         2 VAL404      0.0000
     21 HA          0.0861  -27.1941   22.8346 H         2 VAL404      0.0000
     22 HB          0.7207  -27.6511   25.1328 H         2 VAL404      0.0000
     23 H           3.1137  -28.0966   23.4145 H         2 VAL404      0.0000
     24 H           2.8346  -28.8719   24.7955 H         2 VAL404      0.0000
     25 H           1.8745  -29.1151   23.5285 H         2 VAL404      0.0000
     26 HG21        2.7785  -26.7209   26.0090 H         2 VAL404      0.0000
     27 HG22        3.0445  -25.9137   24.6437 H         2 VAL404      0.0000
     28 HG23        1.7957  -25.5230   25.5785 H         2 VAL404      0.0000
     29 N          -0.9510  -25.4690   24.6390 N.am      3 ALA405      0.0000
     30 CA         -1.8610  -24.3910   25.0530 C.3       3 ALA405      0.0000
     31 C          -1.6020  -23.9950   26.4520 C.2       3 ALA405      0.0000
     32 O          -1.2760  -24.8350   27.2840 O.2       3 ALA405      0.0000
     33 CB         -3.3120  -24.8340   24.9000 C.3       3 ALA405      0.0000
     34 H          -1.1442  -26.4043   25.0712 H         3 ALA405      0.0000
     35 HA         -1.7140  -23.5260   24.4061 H         3 ALA405      0.0000
     36 HB1        -3.5286  -25.0763   23.9543 H         3 ALA405      0.0000
     37 HB2        -3.5169  -25.6353   25.4621 H         3 ALA405      0.0000
     38 HB3        -3.9507  -24.1142   25.1718 H         3 ALA405      0.0000
     39 C           5.1450  -27.2430   20.4260 C.2       4 ACE402      0.0000
     40 O           5.2560  -26.9750   21.6330 O.2       4 ACE402      0.0000
     41 CH3         6.2460  -27.9750   19.6890 C.3       4 ACE402      0.0000
     42 H           6.6114  -27.4321   18.9328 H         4 ACE402      0.0000
     43 H           7.0141  -28.1936   20.2908 H         4 ACE402      0.0000
     44 H           5.9229  -28.8381   19.3009 H         4 ACE402      0.0000
     45 N          -1.7120  -22.7080   26.7170 N.4       5 ASA406      0.0000
     46 CA         -1.7820  -22.1600   28.0720 C.3       5 ASA406      0.0000
     47 C          -3.2180  -22.0880   28.6050 C.2       5 ASA406      0.0000
     48 O          -3.4990  -21.4920   29.6670 O.2       5 ASA406      0.0000
     49 CB         -1.2020  -20.7640   28.0680 C.3       5 ASA406      0.0000
     50 CG          0.2490  -20.7640   28.3190 C.2       5 ASA406      0.0000
     51 OD1         0.8800  -19.7650   27.8960 O.co2     5 ASA406      0.0000
     52 OD2         0.7370  -21.7680   28.9350 O.co2     5 ASA406      0.0000
     53 H          -1.1978  -22.7607   28.7557 H         5 ASA406      0.0000
     54 H          -1.7204  -20.1655   28.8352 H         5 ASA406      0.0000
     55 H          -1.4192  -20.2956   27.0938 H         5 ASA406      0.0000
@<TRIPOS>BOND
     1    2    1 1
     2    9    1 1
     3    3    2 1
     4    5    2 1
     5   10    2 1
     6    4    3 2
     7    6    5 1
     8   11    5 1
     9   12    5 1
    10    7    6 ar
    11    8    6 ar
    12   14   13 1
    13   20   13 1
    14   15   14 1
    15   17   14 1
    16   21   14 1
    17   16   15 2
    18   18   17 1
    19   19   17 1
    20   22   17 1
    21   23   18 1
    22   24   18 1
    23   25   18 1
    24   26   19 1
    25   27   19 1
    26   28   19 1
    27   30   29 1
    28   34   29 1
    29   31   30 1
    30   33   30 1
    31   35   30 1
    32   32   31 2
    33   36   33 1
    34   37   33 1
    35   38   33 1
    36   40   39 2
    37   41   39 1
    38   42   41 1
    39   43   41 1
    40   44   41 1
    41   46   45 1
    42   47   46 1
    43   49   46 1
    44   53   46 1
    45   48   47 2
    46   50   49 1
    47   54   49 1
    48   55   49 1
    49   51   50 ar
    50   52   50 ar
    51   39    1 1 
    52   13    3 am
    53   29   15 am
    54   45   31 1 
@<TRIPOS>SUBSTRUCTURE
     1 ASP403      1 RESIDUE
     2 VAL404     13 RESIDUE
     3 ALA405     29 RESIDUE
     4 ACE402     39 GROUP
     5 ASA406     45 GROUP
@<TRIPOS>SET

