#    Name: 2i4u_DJR_1_INTS_M
#    Modification time : Tue Mar 25 17:26:32 2014

@<TRIPOS>MOLECULE
2i4u_DJR_1_INTS_M
   89     0     9     0     0
SMALL
NO_CHARGES


@<TRIPOS>ATOM
      1 N           9.7725   18.8740   21.5840 N.am      2 SEC2        0.0000 
      2 N          10.9750   18.6370   20.5710 N.am      8 SEL2        0.0000 
      3 N           8.5700   19.1110   22.5970 N.am      5 SEP2        0.0000 
      4 CA          8.7115   18.6395   19.6650 C.3       3 GLC5        0.0000 
      5 CA         10.6190   18.1520   19.2640 C.3       9 GLL5        0.0000 
      6 CA          6.8040   19.1270   20.0660 C.3       6 GLP5        0.0000 
      7 N           9.2000   19.9670   19.4750 N.am      2 SEC2        0.0000 
      8 N           9.8740   19.0730   18.4550 N.am      8 SEL2        0.0000 
      9 N           8.5260   20.8610   20.4950 N.am      5 SEP2        0.0000 
     10 CA         13.2100   17.9495   22.2310 C.3       3 GLC5        0.0000 
     11 CA         12.4130   18.7120   20.6440 C.3       9 GLL5        0.0000 
     12 CA         14.0070   17.1870   23.8180 C.3       6 GLP5        0.0000 
     13 CA         13.4125   16.7925   20.8390 C.3       3 GLC5        0.0000 
     14 CA         14.4120   14.8730   21.0340 C.3       6 GLP5        0.0000 
     15 CA         13.7765   19.7775   21.7310 C.3       3 GLC5        0.0000 
     16 CA         15.1400   20.8430   22.8180 C.3       6 GLP5        0.0000 
     17 O          11.9965   22.7370   17.9000 O.2       1 ALC1        0.0000 
     18 O          13.5430   22.1490   17.9530 O.2       7 ALL1        0.0000 
     19 O          10.4500   23.3250   17.8470 O.2       4 ALP1        0.0000 
     20 CA         10.5950   23.6525   15.0550 C.3       3 GLC5        0.0000 
     21 CA         11.9770   22.0960   15.0310 C.3       9 GLL5        0.0000 
     22 CA          9.2130   25.2090   15.0790 C.3       6 GLP5        0.0000 
     23 N          14.0705   24.7000   20.0780 N.am      2 SEC2        0.0000 
     24 N          13.7690   24.7830   18.7080 N.am      8 SEL2        0.0000 
     25 N          14.3720   24.6170   21.4480 N.am      5 SEP2        0.0000 
     26 O          13.5320   25.7240   17.6655 O.2       1 ALC1        0.0000 
     27 O          13.7690   24.7830   18.7080 O.2       7 ALL1        0.0000 
     28 O          13.2950   26.6650   16.6230 O.2       4 ALP1        0.0000 
     29 CA         15.9090   27.1070   16.8350 C.3       3 GLC5        0.0000 
     30 CA         15.7830   25.0870   17.4730 C.3       9 GLL5        0.0000 
     31 CA         16.0350   29.1270   16.1970 C.3       6 GLP5        0.0000 
     32 CA         22.3130   26.3220   13.9195 C.3       3 GLC5        0.0000 
     33 CA         21.0400   26.8490   15.5280 C.3       9 GLL5        0.0000 
     34 CA         23.5860   25.7950   12.3110 C.3       6 GLP5        0.0000 
     35 CA         20.9155   26.8910   12.9075 C.3       3 GLC5        0.0000 
     36 CA         20.4160   27.9180   14.8440 C.3       9 GLL5        0.0000 
     37 CA         21.4150   25.8640   10.9710 C.3       6 GLP5        0.0000 
     38 N          20.2310   30.4585   14.7235 N.am      2 SEC2        0.0000 
     39 N          21.1330   29.0680   14.4650 N.am      8 SEL2        0.0000 
     40 N          19.3290   31.8490   14.9820 N.am      5 SEP2        0.0000 
     41 CA         21.8040   30.4055   16.1655 C.3       3 GLC5        0.0000 
     42 CA         22.5280   29.0970   14.8130 C.3       9 GLL5        0.0000 
     43 CA         21.0800   31.7140   17.5180 C.3       6 GLP5        0.0000 
     44 CA         21.4555   30.6165   13.8040 C.3       3 GLC5        0.0000 
     45 CA         20.3830   32.1360   12.7950 C.3       6 GLP5        0.0000 
     46 CA         23.2755   28.1570   13.3955 C.3       3 GLC5        0.0000 
     47 CA         24.0230   27.2170   11.9780 C.3       6 GLP5        0.0000 
     48 CA         18.3100   25.8075   22.1765 C.3       3 GLC5        0.0000 
     49 CA         18.8680   24.3740   20.9590 C.3       9 GLL5        0.0000 
     50 CA         17.7520   27.2410   23.3940 C.3       6 GLP5        0.0000 
     51 CA         20.3430   22.6885   20.9670 C.3       3 GLC5        0.0000 
     52 CA         21.8180   21.0030   20.9750 C.3       6 GLP5        0.0000 
     53 CA         19.6795   24.2315   22.6750 C.3       3 GLC5        0.0000 
     54 CA         20.4910   24.0890   24.3910 C.3       6 GLP5        0.0000 
     55 CA         19.5255   21.8575   18.2070 C.3       3 GLC5        0.0000 
     56 CA         18.0740   22.6010   19.3740 C.3       9 GLL5        0.0000 
     57 CA         20.9770   21.1140   17.0400 C.3       6 GLP5        0.0000 
     58 CA         19.9460   21.8020   20.1745 C.3       3 GLC5        0.0000 
     59 CA         14.6397   18.4652   20.3652 C.3       3 GLC5        0.0000 
     60 CA         13.0000   18.9550   19.2470 C.3       9 GLL5        0.0000 
     61 CA         16.5730   18.0970   20.7850 C.3       6 GLP5        0.0000 
     62 CA         12.0557   20.6048   20.7773 C.3       3 GLC5        0.0000 
     63 CA         11.4050   22.3760   21.6090 C.3       6 GLP5        0.0000 
     64 CA         12.7080   22.4560   13.0795 C.3       3 GLC5        0.0000 
     65 CA         13.3520   22.4150   15.0700 C.3       9 GLL5        0.0000 
     66 CA         11.6060   22.8590   11.4780 C.3       6 GLP5        0.0000 
     67 CA         14.2207   23.8107   13.8993 C.3       3 GLC5        0.0000 
     68 CA         14.2680   21.6910   14.2920 C.3       9 GLL5        0.0000 
     69 CA         14.5080   25.2850   12.8940 C.3       6 GLP5        0.0000 
     70 CA         14.9895   19.5185   14.5600 C.3       3 GLC5        0.0000 
     71 CA         15.9400   17.8730   15.2400 C.3       6 GLP5        0.0000 
     72 CA         15.9130   20.6025   13.3130 C.3       3 GLC5        0.0000 
     73 CA         13.8100   20.6370   13.4680 C.3       9 GLL5        0.0000 
     74 CA         17.7870   20.0410   12.7460 C.3       6 GLP5        0.0000 
     75 CA         13.7215   19.9275   11.8983 C.3       3 GLC5        0.0000 
     76 CA         14.3200   19.3810   10.3490 C.3       6 GLP5        0.0000 
     77 CA         12.3645   21.6665   12.4627 C.3       3 GLC5        0.0000 
     78 CA         11.6772   22.2148   13.0493 C.3       3 GLC5        0.0000 
     79 CA         11.5200   21.0450   14.2100 C.3       9 GLL5        0.0000 
     80 CA         18.5757   24.9703   13.6232 C.3       3 GLC5        0.0000 
     81 CA         18.3120   26.7050   14.9160 C.3       9 GLL5        0.0000 
     82 CA         18.5310   23.7660   11.9900 C.3       6 GLP5        0.0000 
     83 CA         17.3585   28.1977   15.4632 C.3       3 GLC5        0.0000 
     84 CA         19.0520   27.8320   14.5430 C.3       9 GLL5        0.0000 
     85 CA         18.6500   27.6205   12.8729 C.3       3 GLC5        0.0000 
     86 CA         18.2770   27.9510   10.9410 C.3       6 GLP5        0.0000 
     87 CA         17.5175   23.6505   22.2165 C.3       3 GLC5        0.0000 
     88 CA         17.8500   24.0480   19.8530 C.3       9 GLL5        0.0000 
     89 CA         16.6760   23.0900   24.0270 C.3       6 GLP5        0.0000 
@<TRIPOS>BOND
@<TRIPOS>SUBSTRUCTURE
     1 ALC1       17 GROUP        1 X    ALC  0     ROOT ALC X 1
     2 SEC2        1 GROUP        1 X    SEC  0     **** SEC X 2
     3 GLC5        4 GROUP        1 X    GLC  0     **** GLC X 6
     4 ALP1       19 GROUP        1 Y    ALP  0     ROOT ALP Y 8
     5 SEP2        3 GROUP        1 Y    SEP  0     **** SEP Y 9
     6 GLP5        6 GROUP        1 Y    GLP  0     **** GLP Y 13
     7 ALL1       18 GROUP        1 Z    ALL  0     ROOT ALL Z 15
     8 SEL2        2 GROUP        1 Z    SEL  0     **** SEL Z 16
     9 GLL5        5 GROUP        1 Z    GLL  0     **** GLL Z 20
@<TRIPOS>SET

