#    Name: 2i4u_DJR_1_ligand
#    Modification time : Tue Mar 25 17:26:32 2014

@<TRIPOS>MOLECULE
2i4u_DJR_1_ligand
   77    80     1     0     0
SMALL
NO_CHARGES


@<TRIPOS>ATOM
      1 C          11.9330   18.1930   18.5300 C.3       1 DJR300      0.0000 
      2 O          10.9750   18.6370   20.5710 O.3       1 DJR300      0.0000 
      3 C27        10.6190   18.1520   19.2640 C.3       1 DJR300      0.0000 
      4 O9          9.8740   19.0730   18.4550 O.3       1 DJR300      0.0000 
      5 C2         10.2060   18.7610   17.1050 C.3       1 DJR300      0.0000 
      6 C1         11.7330   18.5690   17.0690 C.3       1 DJR300      0.0000 
      7 C3         12.4130   18.7120   20.6440 C.3       1 DJR300      0.0000 
      8 C5         13.0000   18.9550   19.2470 C.3       1 DJR300      0.0000 
      9 O4         12.8330   20.3150   18.8840 O.3       1 DJR300      0.0000 
     10 C4         13.8740   20.8880   18.2650 C.2       1 DJR300      0.0000 
     11 O5         14.9440   20.3500   18.0060 O.2       1 DJR300      0.0000 
     12 N1         13.5430   22.1490   17.9530 N.am      1 DJR300      0.0000 
     13 C6         14.4850   22.9790   17.2570 C.3       1 DJR300      0.0000 
     14 C8         13.8460   23.5490   15.9640 C.3       1 DJR300      0.0000 
     15 C9         13.3520   22.4150   15.0700 C.ar      1 DJR300      0.0000 
     16 C11        14.2680   21.6910   14.2920 C.ar      1 DJR300      0.0000 
     17 C13        13.8100   20.6370   13.4680 C.ar      1 DJR300      0.0000 
     18 C14        12.4360   20.3110   13.4270 C.ar      1 DJR300      0.0000 
     19 C12        11.5200   21.0450   14.2100 C.ar      1 DJR300      0.0000 
     20 C10        11.9770   22.0960   15.0310 C.ar      1 DJR300      0.0000 
     21 C7         14.9140   24.1050   18.2130 C.3       1 DJR300      0.0000 
     22 O6         13.7690   24.7830   18.7080 O.3       1 DJR300      0.0000 
     23 C15        15.7830   25.0870   17.4730 C.3       1 DJR300      0.0000 
     24 N2         17.1960   24.7110   17.5250 N.pl3     1 DJR300      0.0000 
     25 S          17.9350   24.2800   16.0680 S.o2      1 DJR300      0.0000 
     26 O8         18.6140   22.9370   16.1780 O.2       1 DJR300      0.0000 
     27 O7         16.8430   24.0530   15.0510 O.2       1 DJR300      0.0000 
     28 C18        18.9290   25.6440   15.5970 C.ar      1 DJR300      0.0000 
     29 C23        20.2960   25.7120   15.9050 C.ar      1 DJR300      0.0000 
     30 C22        21.0400   26.8490   15.5280 C.ar      1 DJR300      0.0000 
     31 C21        20.4160   27.9180   14.8440 C.ar      1 DJR300      0.0000 
     32 O1         21.1330   29.0680   14.4650 O.3       1 DJR300      0.0000 
     33 C26        22.5280   29.0970   14.8130 C.3       1 DJR300      0.0000 
     34 C20        19.0520   27.8320   14.5430 C.ar      1 DJR300      0.0000 
     35 C19        18.3120   26.7050   14.9160 C.ar      1 DJR300      0.0000 
     36 C16        18.0430   25.0470   18.6850 C.3       1 DJR300      0.0000 
     37 C17        17.8500   24.0480   19.8530 C.3       1 DJR300      0.0000 
     38 C25        18.8680   24.3740   20.9590 C.3       1 DJR300      0.0000 
     39 C24        18.0740   22.6010   19.3740 C.3       1 DJR300      0.0000 
     40 H          12.2867   17.0980   18.5032 H         1 DJR300      0.0000 
     41 H          10.2667   17.1907   19.2384 H         1 DJR300      0.0000 
     42 H           9.9589   19.5638   16.4237 H         1 DJR300      0.0000 
     43 H           9.7502   17.8388   16.7710 H         1 DJR300      0.0000 
     44 H          11.9695   17.7668   16.4537 H         1 DJR300      0.0000 
     45 H          12.1940   19.4762   16.8629 H         1 DJR300      0.0000 
     46 H          12.8445   17.7828   21.0311 H         1 DJR300      0.0000 
     47 H          12.7401   19.5325   21.2915 H         1 DJR300      0.0000 
     48 H          13.8832   18.5242   19.1509 H         1 DJR300      0.0000 
     49 H          12.6314   22.5589   18.1917 H         1 DJR300      0.0000 
     50 H          15.3631   22.4209   16.9832 H         1 DJR300      0.0000 
     51 H          14.5915   24.1332   15.4355 H         1 DJR300      0.0000 
     52 H          13.0132   24.1871   16.2392 H         1 DJR300      0.0000 
     53 H          15.2621   21.9203   14.3172 H         1 DJR300      0.0000 
     54 H          14.4764   20.1091   12.8998 H         1 DJR300      0.0000 
     55 H          12.1088   19.5493   12.8346 H         1 DJR300      0.0000 
     56 H          10.5249   20.8142   14.1816 H         1 DJR300      0.0000 
     57 H          11.3141   22.6275   15.5982 H         1 DJR300      0.0000 
     58 H          15.4895   23.6646   19.0071 H         1 DJR300      0.0000 
     59 H          15.6364   26.0880   17.9122 H         1 DJR300      0.0000 
     60 H          15.4395   25.1426   16.4264 H         1 DJR300      0.0000 
     61 H          20.7524   24.9446   16.3990 H         1 DJR300      0.0000 
     62 H          22.0381   26.9027   15.7500 H         1 DJR300      0.0000 
     63 H          18.5900   28.6039   14.0434 H         1 DJR300      0.0000 
     64 H          17.3109   26.6516   14.6911 H         1 DJR300      0.0000 
     65 H          17.8073   26.0512   19.0603 H         1 DJR300      0.0000 
     66 H          19.1048   25.0365   18.4068 H         1 DJR300      0.0000 
     67 H          16.8671   24.1476   20.2422 H         1 DJR300      0.0000 
     68 H          23.0300   28.3380   14.3984 H         1 DJR300      0.0000 
     69 H          22.9692   29.9412   14.5087 H         1 DJR300      0.0000 
     70 H          22.6656   29.0343   15.8015 H         1 DJR300      0.0000 
     71 H          19.8095   24.3051   20.6292 H         1 DJR300      0.0000 
     72 H          18.7483   25.3019   21.3121 H         1 DJR300      0.0000 
     73 H          18.7835   23.7512   21.7368 H         1 DJR300      0.0000 
     74 H          18.9968   22.4682   19.0124 H         1 DJR300      0.0000 
     75 H          17.9520   21.9412   20.1155 H         1 DJR300      0.0000 
     76 H          17.4352   22.3471   18.6477 H         1 DJR300      0.0000 
     77 H          13.5168   25.4264   17.9852 H         1 DJR300      0.0000 
@<TRIPOS>BOND
     1    3    1 1    
     2    6    1 1    
     3    8    1 1    
     4   40    1 1    
     5    3    2 1    
     6    7    2 1    
     7    4    3 1    
     8   41    3 1    
     9    5    4 1    
    10    6    5 1    
    11   42    5 1    
    12   43    5 1    
    13   44    6 1    
    14   45    6 1    
    15    8    7 1    
    16   46    7 1    
    17   47    7 1    
    18    9    8 1    
    19   48    8 1    
    20   10    9 1    
    21   11   10 2    
    22   12   10 am   
    23   13   12 1    
    24   49   12 1    
    25   14   13 1    
    26   21   13 1    
    27   50   13 1    
    28   15   14 1    
    29   51   14 1    
    30   52   14 1    
    31   16   15 ar   
    32   20   15 ar   
    33   17   16 ar   
    34   53   16 1    
    35   18   17 ar   
    36   54   17 1    
    37   19   18 ar   
    38   55   18 1    
    39   20   19 ar   
    40   56   19 1    
    41   57   20 1    
    42   22   21 1    
    43   23   21 1    
    44   58   21 1    
    45   77   22 1    
    46   24   23 1    
    47   59   23 1    
    48   60   23 1    
    49   25   24 1    
    50   36   24 1    
    51   26   25 2    
    52   27   25 2    
    53   28   25 1    
    54   29   28 ar   
    55   35   28 ar   
    56   30   29 ar   
    57   61   29 1    
    58   31   30 ar   
    59   62   30 1    
    60   32   31 1    
    61   34   31 ar   
    62   33   32 1    
    63   68   33 1    
    64   69   33 1    
    65   70   33 1    
    66   35   34 ar   
    67   63   34 1    
    68   64   35 1    
    69   37   36 1    
    70   65   36 1    
    71   66   36 1    
    72   38   37 1    
    73   39   37 1    
    74   67   37 1    
    75   71   38 1    
    76   72   38 1    
    77   73   38 1    
    78   74   39 1    
    79   75   39 1    
    80   76   39 1    
@<TRIPOS>SUBSTRUCTURE
     1 DJR300      1 GROUP   
@<TRIPOS>SET

