#    Name: 4k9t_1RD_2_INTS_M
#    Modification time : Tue Mar 25 07:36:17 2014

@<TRIPOS>MOLECULE
4k9t_1RD_2_INTS_M
   67     0     9     0     0
SMALL
NO_CHARGES


@<TRIPOS>ATOM
      1 CA         18.8830   18.5630  -14.6235 C.3       3 GLC5        0.0000 
      2 CA         18.9710   17.8740  -12.9150 C.3       9 GLL5        0.0000 
      3 CA         18.7950   19.2520  -16.3320 C.3       6 GLP5        0.0000 
      4 CA         17.8765   14.9300  -10.2035 C.3       3 GLC5        0.0000 
      5 CA         18.4500   16.5280  -10.6780 C.3       9 GLL5        0.0000 
      6 CA         17.3030   13.3320   -9.7290 C.3       6 GLP5        0.0000 
      7 O          19.3815   15.1165  -15.8790 O.2       1 ALC1        0.0000 
      8 O          20.0910   14.8880  -14.7700 O.2       7 ALL1        0.0000 
      9 O          18.6720   15.3450  -16.9880 O.2       4 ALP1        0.0000 
     10 CA         20.8215   13.6095  -16.7610 C.3       3 GLC5        0.0000 
     11 CA         21.1770   13.9200  -14.8460 C.3       9 GLL5        0.0000 
     12 CA         20.4660   13.2990  -18.6760 C.3       6 GLP5        0.0000 
     13 CA         22.5325    9.9285  -11.4905 C.3       3 GLC5        0.0000 
     14 CA         22.9860   11.9540  -12.0880 C.3       9 GLL5        0.0000 
     15 CA         22.0790    7.9030  -10.8930 C.3       6 GLP5        0.0000 
     16 CA         23.4115   11.6265   -7.4625 C.3       3 GLC5        0.0000 
     17 CA         23.1290   13.3460   -8.7040 C.3       9 GLL5        0.0000 
     18 CA         23.6940    9.9070   -6.2210 C.3       6 GLP5        0.0000 
     19 CA         24.5495   11.9370   -9.6520 C.3       3 GLC5        0.0000 
     20 CA         25.9700   10.5280  -10.6000 C.3       6 GLP5        0.0000 
     21 CA         19.2475   14.1520   -9.2315 C.3       3 GLC5        0.0000 
     22 CA         21.1920   14.9720   -8.7340 C.3       9 GLL5        0.0000 
     23 CA         22.4920   11.5925   -6.5570 C.3       3 GLC5        0.0000 
     24 CA         21.2900   13.2780   -6.8930 C.3       9 GLL5        0.0000 
     25 CA         21.1935   14.1075   -5.2015 C.3       3 GLC5        0.0000 
     26 CA         21.0970   14.9370   -3.5100 C.3       6 GLP5        0.0000 
     27 N          25.3840   11.8215   -6.6415 N.am      2 SEC2        0.0000 
     28 N          24.8500   13.0330   -6.3560 N.am      8 SEL2        0.0000 
     29 N          25.9180   10.6100   -6.9270 N.am      5 SEP2        0.0000 
     30 CA         26.2965   13.9095   -4.0205 C.3       3 GLC5        0.0000 
     31 CA         26.5710   15.0600   -5.5690 C.3       9 GLL5        0.0000 
     32 CA         26.0220   12.7590   -2.4720 C.3       6 GLP5        0.0000 
     33 CA         27.9185   15.2785   -4.4785 C.3       3 GLC5        0.0000 
     34 CA         29.2660   15.4970   -3.3880 C.3       6 GLP5        0.0000 
     35 CA         26.3635   16.2555   -3.9560 C.3       3 GLC5        0.0000 
     36 CA         26.1560   17.4510   -2.3430 C.3       6 GLP5        0.0000 
     37 CA         27.7565   17.3135   -6.9515 C.3       3 GLC5        0.0000 
     38 CA         26.0330   16.1640   -7.6580 C.3       9 GLL5        0.0000 
     39 CA         29.4800   18.4630   -6.2450 C.3       6 GLP5        0.0000 
     40 CA         26.4890   17.7720   -8.9295 C.3       3 GLC5        0.0000 
     41 CA         26.9450   19.3800  -10.2010 C.3       6 GLP5        0.0000 
     42 CA         26.7260   22.7850   -4.8580 C.3       3 GLC5        0.0000 
     43 CA         26.0030   21.3660   -6.4380 C.3       9 GLL5        0.0000 
     44 CA         27.4490   24.2040   -3.2780 C.3       6 GLP5        0.0000 
     45 CA         27.8135   21.0810   -6.0710 C.3       3 GLC5        0.0000 
     46 CA         29.6240   20.7960   -5.7040 C.3       6 GLP5        0.0000 
     47 CA         25.1950   22.9240   -6.6465 C.3       3 GLC5        0.0000 
     48 CA         24.3870   24.4820   -6.8550 C.3       6 GLP5        0.0000 
     49 CA         22.2915   20.5060   -4.2420 C.3       3 GLC5        0.0000 
     50 CA         23.8420   21.0280   -5.1310 C.3       9 GLL5        0.0000 
     51 CA         20.7410   19.9840   -3.3530 C.3       6 GLP5        0.0000 
     52 CA         20.3695   11.8830  -14.8245 C.3       3 GLC5        0.0000 
     53 CA         21.3730   13.2400  -13.5020 C.3       9 GLL5        0.0000 
     54 CA         19.4640   10.1860  -15.4750 C.3       6 GLP5        0.0000 
     55 CA         24.3098   11.0843  -12.2402 C.3       3 GLC5        0.0000 
     56 CA         22.8110   12.7770  -13.3530 C.3       9 GLL5        0.0000 
     57 CA         25.7210    9.8030  -11.7600 C.3       6 GLP5        0.0000 
     58 CA         19.7950   12.2490   -8.2398 C.3       3 GLC5        0.0000 
     59 CA         21.6440   13.5740   -8.3520 C.3       9 GLL5        0.0000 
     60 CA         18.1230   11.0720   -8.8570 C.3       6 GLP5        0.0000 
     61 CA         26.0508   20.9237   -8.1917 C.3       3 GLC5        0.0000 
     62 CA         24.5520   20.8710   -6.4750 C.3       9 GLL5        0.0000 
     63 CA         26.8240   20.7290   -9.9270 C.3       6 GLP5        0.0000 
     64 CA         23.8885   22.3537   -6.7705 C.3       3 GLC5        0.0000 
     65 CA         23.5800   23.7580   -7.7380 C.3       6 GLP5        0.0000 
     66 CA         25.3519   20.4151   -4.3969 C.3       3 GLC5        0.0000 
     67 CA         26.1440   19.7570   -3.0000 C.3       6 GLP5        0.0000 
@<TRIPOS>BOND
@<TRIPOS>SUBSTRUCTURE
     1 ALC1        7 GROUP        1 X    ALC  0     ROOT ALC X 1
     2 SEC2       27 GROUP        1 X    SEC  0     **** SEC X 2
     3 GLC5        1 GROUP        1 X    GLC  0     **** GLC X 6
     4 ALP1        9 GROUP        1 Y    ALP  0     ROOT ALP Y 8
     5 SEP2       29 GROUP        1 Y    SEP  0     **** SEP Y 9
     6 GLP5        3 GROUP        1 Y    GLP  0     **** GLP Y 13
     7 ALL1        8 GROUP        1 Z    ALL  0     ROOT ALL Z 15
     8 SEL2       28 GROUP        1 Z    SEL  0     **** SEL Z 16
     9 GLL5        2 GROUP        1 Z    GLL  0     **** GLL Z 20
@<TRIPOS>SET

