#    Name: 4k9t_1RD_2_ligand
#    Modification time : Tue Mar 25 07:36:17 2014

@<TRIPOS>MOLECULE
4k9t_1RD_2_ligand
   71    72     1     0     0
SMALL
NO_CHARGES


@<TRIPOS>ATOM
      1 O23        21.2290   16.5470  -13.7740 O.2       1 1RD603      0.0000 
      2 C22        20.1640   15.9990  -14.0340 C.2       1 1RD603      0.0000 
      3 O24        18.9280   16.5820  -13.5340 O.3       1 1RD603      0.0000 
      4 C25        18.9710   17.8740  -12.9150 C.3       1 1RD603      0.0000 
      5 C26        18.7810   17.6390  -11.4320 C.2       1 1RD603      0.0000 
      6 S30        19.0020   18.9660  -10.3510 S.3       1 1RD603      0.0000 
      7 C29        18.6660   18.0790   -8.9150 C.2       1 1RD603      0.0000 
      8 N28        18.3980   16.8110   -9.3410 N.2       1 1RD603      0.0000 
      9 C27        18.4500   16.5280  -10.6780 C.2       1 1RD603      0.0000 
     10 N21        20.0910   14.8880  -14.7700 N.am      1 1RD603      0.0000 
     11 C20        21.1770   13.9200  -14.8460 C.3       1 1RD603      0.0000 
     12 C19        21.3730   13.2400  -13.5020 C.3       1 1RD603      0.0000 
     13 C18        22.8110   12.7770  -13.3530 C.3       1 1RD603      0.0000 
     14 C17        22.9860   11.9540  -12.0880 C.3       1 1RD603      0.0000 
     15 N16        22.4950   12.6640  -10.9290 N.am      1 1RD603      0.0000 
     16 C14        23.2870   13.4490  -10.2020 C.2       1 1RD603      0.0000 
     17 O15        24.0890   14.2280  -10.7010 O.2       1 1RD603      0.0000 
     18 C13        23.1290   13.3460   -8.7040 C.3       1 1RD603      0.0000 
     19 C31        21.6440   13.5740   -8.3520 C.3       1 1RD603      0.0000 
     20 C33        21.1920   14.9720   -8.7340 C.3       1 1RD603      0.0000 
     21 C32        21.2900   13.2780   -6.8930 C.3       1 1RD603      0.0000 
     22 N12        24.0120   14.2880   -8.0280 N.am      1 1RD603      0.0000 
     23 C10        24.8830   14.0580   -7.0310 C.2       1 1RD603      0.0000 
     24 O11        24.8500   13.0330   -6.3560 O.2       1 1RD603      0.0000 
     25 N08        25.7790   15.0330   -6.7760 N.am      1 1RD603      0.0000 
     26 C09        26.5710   15.0600   -5.5690 C.3       1 1RD603      0.0000 
     27 C07        26.0330   16.1640   -7.6580 C.3       1 1RD603      0.0000 
     28 C06        25.0640   17.3140   -7.4680 C.2       1 1RD603      0.0000 
     29 N05        25.4860   18.5350   -7.0150 N.2       1 1RD603      0.0000 
     30 C34        23.6810   17.2800   -7.7430 C.2       1 1RD603      0.0000 
     31 S35        22.9930   18.8460   -7.3980 S.3       1 1RD603      0.0000 
     32 C04        24.5260   19.4730   -6.9090 C.2       1 1RD603      0.0000 
     33 C02        24.5520   20.8710   -6.4750 C.3       1 1RD603      0.0000 
     34 C03        26.0030   21.3660   -6.4380 C.3       1 1RD603      0.0000 
     35 C01        23.8420   21.0280   -5.1310 C.3       1 1RD603      0.0000 
     36 H          18.1724   18.5150  -13.2666 H         1 1RD603      0.0000 
     37 H          19.9263   18.3607  -13.0664 H         1 1RD603      0.0000 
     38 H          18.7115   18.5366   -8.1634 H         1 1RD603      0.0000 
     39 H          18.2748   15.6449  -11.0642 H         1 1RD603      0.0000 
     40 H          19.2396   14.6564  -15.3346 H         1 1RD603      0.0000 
     41 H          22.1169   14.4088  -15.1262 H         1 1RD603      0.0000 
     42 H          20.9617   13.1495  -15.5949 H         1 1RD603      0.0000 
     43 H          20.7075   12.3819  -13.4310 H         1 1RD603      0.0000 
     44 H          21.1341   13.9408  -12.7045 H         1 1RD603      0.0000 
     45 H          23.4684   13.6466  -13.3114 H         1 1RD603      0.0000 
     46 H          23.0876   12.1723  -14.2178 H         1 1RD603      0.0000 
     47 H          24.0554   11.7144  -11.9813 H         1 1RD603      0.0000 
     48 H          22.4516   11.0009  -12.2237 H         1 1RD603      0.0000 
     49 H          21.4883   12.5258  -10.6968 H         1 1RD603      0.0000 
     50 H          23.3734   12.3222   -8.4156 H         1 1RD603      0.0000 
     51 H          21.0515   12.8669   -8.9797 H         1 1RD603      0.0000 
     52 H          23.9239   15.3037   -8.4115 H         1 1RD603      0.0000 
     53 H          25.9848   15.8450   -8.7206 H         1 1RD603      0.0000 
     54 H          27.0621   16.5518   -7.5041 H         1 1RD603      0.0000 
     55 H          23.0991   16.6690   -8.0403 H         1 1RD603      0.0000 
     56 H          24.0164   21.4815   -7.2112 H         1 1RD603      0.0000 
     57 H          21.7234   15.6759   -8.2627 H         1 1RD603      0.0000 
     58 H          21.2897   15.1388   -9.7151 H         1 1RD603      0.0000 
     59 H          20.2312   15.1273   -8.5045 H         1 1RD603      0.0000 
     60 H          21.4796   12.3266   -6.6505 H         1 1RD603      0.0000 
     61 H          21.8113   13.8511   -6.2607 H         1 1RD603      0.0000 
     62 H          20.3213   13.4408   -6.7055 H         1 1RD603      0.0000 
     63 H          27.1401   14.2426   -5.4798 H         1 1RD603      0.0000 
     64 H          27.1852   15.8488   -5.5454 H         1 1RD603      0.0000 
     65 H          25.9988   15.1095   -4.7504 H         1 1RD603      0.0000 
     66 H          26.5614   20.8322   -5.8030 H         1 1RD603      0.0000 
     67 H          26.4395   21.3041   -7.3356 H         1 1RD603      0.0000 
     68 H          26.0622   22.3214   -6.1485 H         1 1RD603      0.0000 
     69 H          24.2761   20.4807   -4.4155 H         1 1RD603      0.0000 
     70 H          23.8466   21.9775   -4.8172 H         1 1RD603      0.0000 
     71 H          22.8856   20.7403   -5.1804 H         1 1RD603      0.0000 
@<TRIPOS>BOND
     1    2    1 2    
     2    3    2 1    
     3   10    2 am   
     4    4    3 1    
     5    5    4 1    
     6   36    4 1    
     7   37    4 1    
     8    6    5 1    
     9    9    5 2    
    10    7    6 1    
    11    8    7 2    
    12   38    7 1    
    13    9    8 1    
    14   39    9 1    
    15   11   10 1    
    16   40   10 1    
    17   12   11 1    
    18   41   11 1    
    19   42   11 1    
    20   13   12 1    
    21   43   12 1    
    22   44   12 1    
    23   14   13 1    
    24   45   13 1    
    25   46   13 1    
    26   15   14 1    
    27   47   14 1    
    28   48   14 1    
    29   16   15 am   
    30   49   15 1    
    31   17   16 2    
    32   18   16 1    
    33   19   18 1    
    34   22   18 1    
    35   50   18 1    
    36   20   19 1    
    37   21   19 1    
    38   51   19 1    
    39   57   20 1    
    40   58   20 1    
    41   59   20 1    
    42   60   21 1    
    43   61   21 1    
    44   62   21 1    
    45   23   22 am   
    46   52   22 1    
    47   24   23 2    
    48   25   23 am   
    49   26   25 1    
    50   27   25 1    
    51   63   26 1    
    52   64   26 1    
    53   65   26 1    
    54   28   27 1    
    55   53   27 1    
    56   54   27 1    
    57   29   28 1    
    58   30   28 2    
    59   32   29 2    
    60   31   30 1    
    61   55   30 1    
    62   32   31 1    
    63   33   32 1    
    64   34   33 1    
    65   35   33 1    
    66   56   33 1    
    67   66   34 1    
    68   67   34 1    
    69   68   34 1    
    70   69   35 1    
    71   70   35 1    
    72   71   35 1    
@<TRIPOS>SUBSTRUCTURE
     1 1RD603      1 GROUP   
@<TRIPOS>SET

