#    Name: 4j2v_DIU_3_INTS_M
#    Modification time : Tue Mar 25 05:15:49 2014

@<TRIPOS>MOLECULE
4j2v_DIU_3_INTS_M
   35     0     3     0     0
SMALL
NO_CHARGES


@<TRIPOS>ATOM
      1 CA        -47.1310   19.5030   35.4480 C.3       1 GLC5        0.0000 
      2 CA        -48.9950   20.4500   35.4410 C.3       3 GLL5        0.0000 
      3 CA        -45.2670   18.5560   35.4550 C.3       2 GLP5        0.0000 
      4 CA        -49.6400   19.1605   38.2810 C.3       1 GLC5        0.0000 
      5 CA        -49.1160   18.6950   36.5620 C.3       3 GLL5        0.0000 
      6 CA        -50.1640   19.6260   40.0000 C.3       2 GLP5        0.0000 
      7 CA        -50.7435   18.9575   35.8100 C.3       1 GLC5        0.0000 
      8 CA        -52.3710   19.2200   35.0580 C.3       2 GLP5        0.0000 
      9 CA        -49.7135   16.9465   35.5545 C.3       1 GLC5        0.0000 
     10 CA        -50.3110   15.1980   34.5470 C.3       2 GLP5        0.0000 
     11 CA        -47.1915   18.6255   36.0085 C.3       1 GLC5        0.0000 
     12 CA        -48.6525   22.6335   30.9760 C.3       1 GLC5        0.0000 
     13 CA        -47.9310   21.1090   31.4020 C.3       3 GLL5        0.0000 
     14 CA        -49.3740   24.1580   30.5500 C.3       2 GLP5        0.0000 
     15 CA        -46.9480   22.7670   30.7355 C.3       1 GLC5        0.0000 
     16 CA        -45.9650   24.4250   30.0690 C.3       2 GLP5        0.0000 
     17 CA        -49.4230   20.3745   30.3400 C.3       1 GLC5        0.0000 
     18 CA        -50.9150   19.6400   29.2780 C.3       2 GLP5        0.0000 
     19 CA        -47.5665   19.2665   31.3630 C.3       1 GLC5        0.0000 
     20 CA        -47.2020   17.4240   31.3240 C.3       2 GLP5        0.0000 
     21 CA        -47.4085   20.6875   29.7730 C.3       1 GLC5        0.0000 
     22 CA        -46.8860   20.2660   28.1440 C.3       2 GLP5        0.0000 
     23 CA        -47.3760   22.4022   35.8440 C.3       1 GLC5        0.0000 
     24 CA        -49.1390   22.8470   35.1610 C.3       3 GLL5        0.0000 
     25 CA        -45.5520   22.5250   36.1060 C.3       2 GLP5        0.0000 
     26 CA        -51.2005   21.8062   35.8830 C.3       1 GLC5        0.0000 
     27 CA        -53.2010   21.3330   36.1840 C.3       2 GLP5        0.0000 
     28 CA        -47.1852   21.4652   35.4520 C.3       1 GLC5        0.0000 
     29 CA        -50.5948   19.8128   34.9280 C.3       1 GLC5        0.0000 
     30 CA        -47.7130   19.1165   33.2870 C.3       1 GLC5        0.0000 
     31 CA        -48.6420   20.3610   34.1550 C.3       3 GLL5        0.0000 
     32 CA        -46.8470   17.3370   32.8210 C.3       2 GLP5        0.0000 
     33 CA        -46.9975   23.0120   33.8143 C.3       1 GLC5        0.0000 
     34 CA        -48.5160   21.4310   33.3510 C.3       3 GLL5        0.0000 
     35 CA        -45.3600   23.9450   34.0410 C.3       2 GLP5        0.0000 
@<TRIPOS>BOND
@<TRIPOS>SUBSTRUCTURE
     1 GLC5        1 GROUP        1 X    GLC  0     ROOT GLC X 6
     2 GLP5        3 GROUP        1 Y    GLP  0     ROOT GLP Y 13
     3 GLL5        2 GROUP        1 Z    GLL  0     ROOT GLL Z 20
@<TRIPOS>SET

