#    Name: 4j2v_DIU_3_ligand
#    Modification time : Tue Mar 25 05:15:50 2014

@<TRIPOS>MOLECULE
4j2v_DIU_3_ligand
   15    15     1     0     0
SMALL
NO_CHARGES


@<TRIPOS>ATOM
      1 C         -49.3800   24.2140   35.6910 C.2       1 DIU603      0.0000 
      2 O1        -49.6170   24.2790   36.9230 O.co2     1 DIU603      0.0000 
      3 O2        -49.2640   25.2070   34.9090 O.co2     1 DIU603      0.0000 
      4 O3        -49.6310   21.8390   37.3040 O.3       1 DIU603      0.0000 
      5 C1        -49.1390   22.8470   35.1610 C.ar      1 DIU603      0.0000 
      6 C2        -49.2610   21.7120   36.0030 C.ar      1 DIU603      0.0000 
      7 C3        -48.9950   20.4500   35.4410 C.ar      1 DIU603      0.0000 
      8 C4        -48.6420   20.3610   34.1550 C.ar      1 DIU603      0.0000 
      9 C5        -48.5160   21.4310   33.3510 C.ar      1 DIU603      0.0000 
     10 C6        -48.7540   22.7270   33.8240 C.ar      1 DIU603      0.0000 
     11 I1        -49.1160   18.6950   36.5620 I         1 DIU603      0.0000 
     12 I2        -47.9310   21.1090   31.4020 I         1 DIU603      0.0000 
     13 H         -48.4503   19.3958   33.7436 H         1 DIU603      0.0000 
     14 H         -48.6525   23.5289   33.2303 H         1 DIU603      0.0000 
     15 H         -49.2845   22.7338   37.5853 H         1 DIU603      0.0000 
@<TRIPOS>BOND
     1    2    1 ar   
     2    3    1 ar   
     3    5    1 1    
     4    6    4 1    
     5   15    4 1    
     6    6    5 ar   
     7   10    5 ar   
     8    7    6 ar   
     9    8    7 ar   
    10   11    7 1    
    11    9    8 ar   
    12   13    8 1    
    13   10    9 ar   
    14   12    9 1    
    15   14   10 1    
@<TRIPOS>SUBSTRUCTURE
     1 DIU603      1 GROUP   
@<TRIPOS>SET

