#    Name: 4ll5_SK8_1_INTS_M
#    Modification time : Tue Mar 25 11:15:33 2014

@<TRIPOS>MOLECULE
4ll5_SK8_1_INTS_M
   58     0     3     0     0
SMALL
NO_CHARGES


@<TRIPOS>ATOM
      1 CA         73.4610 -125.1195   -0.7770 C.3       1 GLC5        0.0000 
      2 CA         73.0740 -123.3640    0.3550 C.3       3 GLL5        0.0000 
      3 CA         73.8480 -126.8750   -1.9090 C.3       2 GLP5        0.0000 
      4 CA         69.4865 -116.2145   -1.1290 C.3       1 GLC5        0.0000 
      5 CA         71.2150 -116.5740   -0.4730 C.3       3 GLL5        0.0000 
      6 CA         67.7580 -115.8550   -1.7850 C.3       2 GLP5        0.0000 
      7 CA         70.6155 -118.1240   -1.9160 C.3       1 GLC5        0.0000 
      8 CA         70.0160 -119.6740   -3.3590 C.3       2 GLP5        0.0000 
      9 CA         72.3805 -115.2055   -0.6015 C.3       1 GLC5        0.0000 
     10 CA         73.5460 -113.8370   -0.7300 C.3       2 GLP5        0.0000 
     11 CA         69.3975 -114.5310    1.6555 C.3       1 GLC5        0.0000 
     12 CA         70.5440 -115.5810    0.8580 C.3       3 GLL5        0.0000 
     13 CA         68.2510 -113.4810    2.4530 C.3       2 GLP5        0.0000 
     14 CA         69.4745 -115.4055    2.8985 C.3       1 GLC5        0.0000 
     15 CA         70.6360 -116.3850    2.1730 C.3       3 GLL5        0.0000 
     16 CA         68.3130 -114.4260    3.6240 C.3       2 GLP5        0.0000 
     17 CA         69.1090 -117.8085    2.0840 C.3       1 GLC5        0.0000 
     18 CA         67.5820 -119.2320    1.9950 C.3       2 GLP5        0.0000 
     19 CA         68.9155 -120.4520    3.4980 C.3       1 GLC5        0.0000 
     20 CA         70.5500 -120.2890    4.4570 C.3       3 GLL5        0.0000 
     21 CA         67.2810 -120.6150    2.5390 C.3       2 GLP5        0.0000 
     22 CA         68.6965 -120.4290    6.7925 C.3       1 GLC5        0.0000 
     23 CA         70.3440 -120.4740    5.8390 C.3       3 GLL5        0.0000 
     24 CA         67.0490 -120.3840    7.7460 C.3       2 GLP5        0.0000 
     25 CA         74.9695 -126.0845    2.8120 C.3       1 GLC5        0.0000 
     26 CA         73.8290 -125.2570    1.5530 C.3       3 GLL5        0.0000 
     27 CA         76.1100 -126.9120    4.0710 C.3       2 GLP5        0.0000 
     28 CA         74.7292 -122.3955    2.1008 C.3       1 GLC5        0.0000 
     29 CA         73.2890 -123.2940    2.7660 C.3       3 GLL5        0.0000 
     30 CA         76.3920 -122.1640    1.4420 C.3       2 GLP5        0.0000 
     31 CA         71.5245 -124.4435    2.8792 C.3       1 GLC5        0.0000 
     32 CA         69.7050 -125.2510    3.5970 C.3       2 GLP5        0.0000 
     33 CA         73.1575 -126.2018    0.8650 C.3       1 GLC5        0.0000 
     34 CA         73.3990 -123.9780    1.5570 C.3       3 GLL5        0.0000 
     35 CA         72.7010 -127.7860    0.1750 C.3       2 GLP5        0.0000 
     36 CA         71.3581 -123.3830   -0.2228 C.3       1 GLC5        0.0000 
     37 CA         69.7830 -123.9120   -1.1140 C.3       2 GLP5        0.0000 
     38 CA         74.4775 -121.9113    1.2077 C.3       1 GLC5        0.0000 
     39 CA         72.6300 -122.0370    0.3810 C.3       3 GLL5        0.0000 
     40 CA         70.1535 -121.1163    1.6553 C.3       1 GLC5        0.0000 
     41 CA         72.4960 -121.2800    1.5660 C.3       3 GLL5        0.0000 
     42 CA         68.0550 -121.6680    1.7620 C.3       2 GLP5        0.0000 
     43 CA         73.6935 -119.3233    2.0312 C.3       1 GLC5        0.0000 
     44 CA         72.0080 -119.8490    1.5310 C.3       3 GLL5        0.0000 
     45 CA         75.1350 -118.0820    2.5140 C.3       2 GLP5        0.0000 
     46 CA         69.4822 -119.1535    2.6328 C.3       1 GLC5        0.0000 
     47 CA         71.4870 -118.9770    2.5390 C.3       3 GLL5        0.0000 
     48 CA         68.9555 -116.3510    0.4453 C.3       1 GLC5        0.0000 
     49 CA         67.3210 -116.7190   -0.6250 C.3       2 GLP5        0.0000 
     50 CA         72.0045 -114.7680    1.1448 C.3       1 GLC5        0.0000 
     51 CA         73.4190 -113.5530    0.7740 C.3       2 GLP5        0.0000 
     52 CA         69.4870 -122.1758    5.2820 C.3       1 GLC5        0.0000 
     53 CA         68.5270 -123.9700    5.4160 C.3       2 GLP5        0.0000 
     54 CA         73.3496 -118.3807    3.3191 C.3       1 GLC5        0.0000 
     55 CA         71.7460 -118.2840    4.9780 C.3       3 GLL5        0.0000 
     56 CA         74.9769 -125.2660    0.2262 C.3       1 GLC5        0.0000 
     57 CA         76.4210 -126.0680   -0.8020 C.3       2 GLP5        0.0000 
     58 CA         74.9624 -123.3140    1.3482 C.3       1 GLC5        0.0000 
@<TRIPOS>BOND
@<TRIPOS>SUBSTRUCTURE
     1 GLC5        1 GROUP        1 X    GLC  0     ROOT GLC X 6
     2 GLP5        3 GROUP        1 Y    GLP  0     ROOT GLP Y 13
     3 GLL5        2 GROUP        1 Z    GLL  0     ROOT GLL Z 20
@<TRIPOS>SET

