#    Name: 4ll5_SK8_1_ligand
#    Modification time : Tue Mar 25 11:15:33 2014

@<TRIPOS>MOLECULE
4ll5_SK8_1_ligand
   33    36     1     0     0
SMALL
NO_CHARGES


@<TRIPOS>ATOM
      1 C1         72.8440 -121.9600    2.7530 C.ar      1 SK8401      0.0000 
      2 C2         73.2890 -123.2940    2.7660 C.ar      1 SK8401      0.0000 
      3 C3         73.3990 -123.9780    1.5570 C.ar      1 SK8401      0.0000 
      4 C4         73.0740 -123.3640    0.3550 C.ar      1 SK8401      0.0000 
      5 C5         72.6300 -122.0370    0.3810 C.ar      1 SK8401      0.0000 
      6 C6         72.4960 -121.2800    1.5660 C.ar      1 SK8401      0.0000 
      7 C7         72.0080 -119.8490    1.5310 C.2       1 SK8401      0.0000 
      8 C8         71.4870 -118.9770    2.5390 C.2       1 SK8401      0.0000 
      9 N9         71.1760 -117.7460    1.8920 N.pl3     1 SK8401      0.0000 
     10 C10        71.5080 -117.9430    0.5440 C.2       1 SK8401      0.0000 
     11 N11        71.9950 -119.1620    0.2960 N.2       1 SK8401      0.0000 
     12 S12        71.2150 -116.5740   -0.4730 S.3       1 SK8401      0.0000 
     13 C13        70.5440 -115.5810    0.8580 C.3       1 SK8401      0.0000 
     14 C14        70.6360 -116.3850    2.1730 C.3       1 SK8401      0.0000 
     15 C15        71.2780 -119.1730    4.0020 C.ar      1 SK8401      0.0000 
     16 C16        70.5500 -120.2890    4.4570 C.ar      1 SK8401      0.0000 
     17 C17        70.3440 -120.4740    5.8390 C.ar      1 SK8401      0.0000 
     18 N18        70.8020 -119.6160    6.7910 N.ar      1 SK8401      0.0000 
     19 C19        71.4910 -118.5410    6.3380 C.ar      1 SK8401      0.0000 
     20 C20        71.7460 -118.2840    4.9780 C.ar      1 SK8401      0.0000 
     21 F21        73.8290 -125.2570    1.5530 F         1 SK8401      0.0000 
     22 H          72.7670 -121.4490    3.6586 H         1 SK8401      0.0000 
     23 H          73.5250 -123.7465    3.6458 H         1 SK8401      0.0000 
     24 H          73.1550 -123.8628   -0.5274 H         1 SK8401      0.0000 
     25 H          72.3816 -121.5742   -0.5271 H         1 SK8401      0.0000 
     26 H          69.5505 -115.4035    0.5507 H         1 SK8401      0.0000 
     27 H          71.1585 -114.7234    0.8540 H         1 SK8401      0.0000 
     28 H          71.2887 -115.8499    2.8569 H         1 SK8401      0.0000 
     29 H          69.6412 -116.4515    2.6044 H         1 SK8401      0.0000 
     30 H          70.1725 -120.9620    3.7890 H         1 SK8401      0.0000 
     31 H          69.8021 -121.3316    6.1318 H         1 SK8401      0.0000 
     32 H          71.8704 -117.8373    7.0344 H         1 SK8401      0.0000 
     33 H          72.2715 -117.4502    4.7063 H         1 SK8401      0.0000 
@<TRIPOS>BOND
     1    2    1 ar   
     2    6    1 ar   
     3   22    1 1    
     4    3    2 ar   
     5   23    2 1    
     6    4    3 ar   
     7   21    3 1    
     8    5    4 ar   
     9   24    4 1    
    10    6    5 ar   
    11   25    5 1    
    12    7    6 1    
    13    8    7 2    
    14   11    7 1    
    15    9    8 1    
    16   15    8 1    
    17   10    9 1    
    18   14    9 1    
    19   11   10 2    
    20   12   10 1    
    21   13   12 1    
    22   14   13 1    
    23   26   13 1    
    24   27   13 1    
    25   28   14 1    
    26   29   14 1    
    27   16   15 ar   
    28   20   15 ar   
    29   17   16 ar   
    30   30   16 1    
    31   18   17 ar   
    32   31   17 1    
    33   19   18 ar   
    34   20   19 ar   
    35   32   19 1    
    36   33   20 1    
@<TRIPOS>SUBSTRUCTURE
     1 SK8401      1 GROUP   
@<TRIPOS>SET

