#    Name: 1G55_1_CAVITY_N1_6.mol2
#    Modification time : Tue Mar 11 00:46:14 2014

@<TRIPOS>MOLECULE
1G55_1_CAVITY_N1_6.mol2
   60     0     5     0     0
SMALL
NO_CHARGES


@<TRIPOS>ATOM
      1 NZ         57.8682   34.0133   31.0083 N.2       2 LYS4        0.0000 
      2 CA         56.9379   33.3987   32.0117 C.3       4 GLY6        0.0000 
      3 CZ         60.7348   34.1637   29.2733 C.ar      3 PHE5        0.0000 
      4 DU         59.8045   33.5491   30.2767 H         5 CUB7        0.0000 
      5 DU         58.8742   32.9345   31.2801 H         5 CUB7        0.0000 
      6 CA         60.8105   32.4702   30.5486 C.3       4 GLY6        0.0000 
      7 NZ         57.4725   35.9338   31.8177 N.2       2 LYS4        0.0000 
      8 CA         56.5422   35.3192   32.8211 C.3       4 GLY6        0.0000 
      9 NZ         60.3390   36.0842   30.0827 N.2       2 LYS4        0.0000 
     10 NZ         59.4088   35.4695   31.0862 N.2       2 LYS4        0.0000 
     11 NZ         58.4785   34.8549   32.0896 N.2       2 LYS4        0.0000 
     12 CA         57.5482   34.2403   33.0930 C.3       4 GLY6        0.0000 
     13 O          56.6180   33.6257   34.0964 O.2       1 ALA2        0.0000 
     14 CA         61.3451   35.0053   30.3546 C.3       4 GLY6        0.0000 
     15 DU         60.4148   34.3907   31.3580 H         5 CUB7        0.0000 
     16 DU         59.4845   33.7760   32.3614 H         5 CUB7        0.0000 
     17 O          58.5543   33.1614   33.3649 O.2       1 ALA2        0.0000 
     18 CA         61.4208   33.3118   31.6299 C.3       4 GLY6        0.0000 
     19 DU         60.4906   32.6972   32.6333 H         5 CUB7        0.0000 
     20 NZ         58.0828   36.7754   32.8990 N.2       2 LYS4        0.0000 
     21 CA         57.1525   36.1608   33.9024 C.3       4 GLY6        0.0000 
     22 N          56.2223   35.5462   34.9059 N.2       1 ALA2        0.0000 
     23 N          60.9494   36.9257   31.1640 N.2       1 ALA2        0.0000 
     24 NZ         60.0191   36.3111   32.1675 N.2       2 LYS4        0.0000 
     25 O          59.0888   35.6965   33.1709 O.2       1 ALA2        0.0000 
     26 O          58.1586   35.0819   34.1743 O.2       1 ALA2        0.0000 
     27 O          57.2283   34.4673   35.1777 O.2       1 ALA2        0.0000 
     28 N          61.9554   35.8469   31.4359 N.2       1 ALA2        0.0000 
     29 DU         61.0251   35.2322   32.4393 H         5 CUB7        0.0000 
     30 O          60.0949   34.6176   33.4427 O.2       1 ALA2        0.0000 
     31 O          59.1646   34.0030   34.4462 O.2       1 ALA2        0.0000 
     32 CA         62.9614   34.7680   31.7078 C.3       4 GLY6        0.0000 
     33 CA         62.0312   34.1534   32.7112 C.3       4 GLY6        0.0000 
     34 O          61.1009   33.5388   33.7146 O.2       1 ALA2        0.0000 
     35 O          60.1706   32.9241   34.7180 O.2       1 ALA2        0.0000 
     36 CA         63.0372   33.0745   32.9830 C.3       4 GLY6        0.0000 
     37 CA         59.6234   38.2316   32.9769 C.3       4 GLY6        0.0000 
     38 CA         58.6931   37.6170   33.9803 C.3       4 GLY6        0.0000 
     39 CA         57.7628   37.0024   34.9838 C.3       4 GLY6        0.0000 
     40 N          61.5597   37.7673   32.2454 N.2       1 ALA2        0.0000 
     41 CA         60.6294   37.1527   33.2488 C.3       4 GLY6        0.0000 
     42 O          59.6991   36.5381   34.2522 O.2       1 ALA2        0.0000 
     43 N          62.5657   36.6884   32.5172 N.2       1 ALA2        0.0000 
     44 CA         61.6355   36.0738   33.5206 C.3       4 GLY6        0.0000 
     45 O          60.7052   35.4592   34.5241 O.2       1 ALA2        0.0000 
     46 N          63.5718   35.6096   32.7891 N.2       1 ALA2        0.0000 
     47 O          62.6415   34.9950   33.7925 O.2       1 ALA2        0.0000 
     48 O          61.7112   34.3803   34.7959 O.2       1 ALA2        0.0000 
     49 CA         64.5778   34.5307   33.0609 C.3       4 GLY6        0.0000 
     50 N          61.1640   39.6878   33.0548 N.2       1 ALA2        0.0000 
     51 CA         60.2337   39.0732   34.0582 C.3       4 GLY6        0.0000 
     52 CA         59.3034   38.4586   35.0617 C.3       4 GLY6        0.0000 
     53 CA         63.1003   39.2235   32.3233 C.3       4 GLY6        0.0000 
     54 N          62.1700   38.6089   33.3267 N.2       1 ALA2        0.0000 
     55 N          61.2397   37.9943   34.3301 N.2       1 ALA2        0.0000 
     56 N          63.1760   37.5300   33.5985 N.2       1 ALA2        0.0000 
     57 N          62.2458   36.9154   34.6020 N.2       1 ALA2        0.0000 
     58 N          64.1821   36.4512   33.8704 N.2       1 ALA2        0.0000 
     59 N          63.2518   35.8365   34.8738 N.2       1 ALA2        0.0000 
     60 N          61.7743   40.5294   34.1361 N.2       1 ALA2        0.0000 
@<TRIPOS>BOND
@<TRIPOS>SUBSTRUCTURE
     1 ALA2       13 GROUP   
     2 LYS4        1 GROUP   
     3 PHE5        3 GROUP   
     4 GLY6        2 GROUP   
     5 CUB7        4 GROUP   
@<TRIPOS>SET

