#    Name: 1g55_SAH_1_INTS_M
#    Modification time : Tue Mar 25 02:35:18 2014

@<TRIPOS>MOLECULE
1g55_SAH_1_INTS_M
   66     0     9     0     0
SMALL
NO_CHARGES


@<TRIPOS>ATOM
      1 O          63.8355   40.9160   33.7900 O.2       1 ALC1        0.0000 
      2 O          62.9130   41.4220   32.8820 O.2       7 ALL1        0.0000 
      3 O          64.7580   40.4100   34.6980 O.2       4 ALP1        0.0000 
      4 CA         61.9685   40.2375   35.5290 C.3       3 GLC5        0.0000 
      5 CA         61.5030   39.4350   33.5200 C.3       9 GLL5        0.0000 
      6 CA         62.4340   41.0400   37.5380 C.3       6 GLP5        0.0000 
      7 CA         62.3440   38.2125   30.4510 C.3       3 GLC5        0.0000 
      8 CA         62.2430   38.4450   32.6350 C.3       9 GLL5        0.0000 
      9 CA         62.4450   37.9800   28.2670 C.3       6 GLP5        0.0000 
     10 CA         63.9615   39.1300   32.0180 C.3       3 GLC5        0.0000 
     11 CA         65.6800   39.8150   31.4010 C.3       6 GLP5        0.0000 
     12 CA         61.6225   36.7055   35.2535 C.3       3 GLC5        0.0000 
     13 CA         62.0780   36.7740   33.3550 C.3       9 GLL5        0.0000 
     14 CA         61.1670   36.6370   37.1520 C.3       6 GLP5        0.0000 
     15 N          60.7040   44.2845   34.0925 N.am      2 SEC2        0.0000 
     16 N          61.2100   43.0480   34.3370 N.am      8 SEL2        0.0000 
     17 N          60.1980   45.5210   33.8480 N.am      5 SEP2        0.0000 
     18 N          61.2145   43.1030   35.7905 N.am      2 SEC2        0.0000 
     19 N          61.2190   43.1580   37.2440 N.am      5 SEP2        0.0000 
     20 N          58.5295   41.5030   34.4795 N.am      2 SEC2        0.0000 
     21 N          59.9760   41.2360   34.8330 N.am      8 SEL2        0.0000 
     22 N          57.0830   41.7700   34.1260 N.am      5 SEP2        0.0000 
     23 N          60.5975   42.1970   36.0385 N.am      2 SEC2        0.0000 
     24 CA         63.0005   34.3000   30.9465 C.3       3 GLC5        0.0000 
     25 CA         62.1330   35.7440   31.8590 C.3       9 GLL5        0.0000 
     26 CA         63.8680   32.8560   30.0340 C.3       6 GLP5        0.0000 
     27 O          58.1040   37.0020   30.9960 O.2       1 ALC1        0.0000 
     28 O          58.5090   36.3360   32.0340 O.2       7 ALL1        0.0000 
     29 O          57.6990   37.6680   29.9580 O.2       4 ALP1        0.0000 
     30 O          57.4225   36.1975   30.7355 O.2       1 ALC1        0.0000 
     31 O          56.3360   36.0590   29.4370 O.2       4 ALP1        0.0000 
     32 O          57.0720   35.0655   30.1495 O.2       1 ALC1        0.0000 
     33 O          57.8080   34.0720   30.8620 O.2       7 ALL1        0.0000 
     34 CA         61.1950   35.3715   28.2980 C.3       3 GLC5        0.0000 
     35 CA         59.6320   34.9820   29.5440 C.3       9 GLL5        0.0000 
     36 CA         62.7580   35.7610   27.0520 C.3       6 GLP5        0.0000 
     37 CA         58.4150   32.5310   23.6040 C.3       3 GLC5        0.0000 
     38 CA         59.8600   32.5410   25.2990 C.3       9 GLL5        0.0000 
     39 CA         56.9700   32.5210   21.9090 C.3       6 GLP5        0.0000 
     40 CA         60.4910   33.8080   23.5795 C.3       3 GLC5        0.0000 
     41 CA         61.1220   35.0750   21.8600 C.3       6 GLP5        0.0000 
     42 CA         61.6475   32.3880   24.1100 C.3       3 GLC5        0.0000 
     43 CA         63.4350   32.2350   22.9210 C.3       6 GLP5        0.0000 
     44 O          60.3355   31.1950   23.5100 O.2       1 ALC1        0.0000 
     45 O          60.4050   31.5140   24.6190 O.2       7 ALL1        0.0000 
     46 O          60.2660   30.8760   22.4010 O.2       4 ALP1        0.0000 
     47 N          59.0255   33.5375   23.1230 N.am      2 SEC2        0.0000 
     48 N          58.9950   33.3490   24.6630 N.am      8 SEL2        0.0000 
     49 N          59.0560   33.7260   21.5830 N.am      5 SEP2        0.0000 
     50 CA         57.4070   35.8705   26.0340 C.3       3 GLC5        0.0000 
     51 CA         58.4840   34.3950   25.3320 C.3       9 GLL5        0.0000 
     52 CA         56.3300   37.3460   26.7360 C.3       6 GLP5        0.0000 
     53 CA         57.2725   33.3345   26.2280 C.3       3 GLC5        0.0000 
     54 CA         56.0610   32.2740   27.1240 C.3       6 GLP5        0.0000 
     55 CA         57.7270   33.4580   23.6205 C.3       3 GLC5        0.0000 
     56 CA         59.4840   35.2735   24.0425 C.3       3 GLC5        0.0000 
     57 CA         60.4840   36.1520   22.7530 C.3       6 GLP5        0.0000 
     58 N          57.0270   34.9250   26.7495 N.am      2 SEC2        0.0000 
     59 N          58.6840   34.7730   26.5900 N.am      8 SEL2        0.0000 
     60 N          55.3700   35.0770   26.9090 N.am      5 SEP2        0.0000 
     61 CA         59.6227   40.1232   32.8833 C.3       3 GLC5        0.0000 
     62 CA         57.7080   40.0760   32.4620 C.3       6 GLP5        0.0000 
     63 CA         61.9548   36.9455   29.9118 C.3       3 GLC5        0.0000 
     64 CA         60.7960   36.0780   31.2540 C.3       9 GLL5        0.0000 
     65 CA         57.9150   32.7945   26.8588 C.3       3 GLC5        0.0000 
     66 CA         60.1500   32.8290   26.6510 C.3       9 GLL5        0.0000 
@<TRIPOS>BOND
@<TRIPOS>SUBSTRUCTURE
     1 ALC1        1 GROUP        1 X    ALC  0     ROOT ALC X 1
     2 SEC2       15 GROUP        1 X    SEC  0     **** SEC X 2
     3 GLC5        4 GROUP        1 X    GLC  0     **** GLC X 6
     4 ALP1        3 GROUP        1 Y    ALP  0     ROOT ALP Y 8
     5 SEP2       17 GROUP        1 Y    SEP  0     **** SEP Y 9
     6 GLP5        6 GROUP        1 Y    GLP  0     **** GLP Y 13
     7 ALL1        2 GROUP        1 Z    ALL  0     ROOT ALL Z 15
     8 SEL2       16 GROUP        1 Z    SEL  0     **** SEL Z 16
     9 GLL5        5 GROUP        1 Z    GLL  0     **** GLL Z 20
@<TRIPOS>SET

