#    Name: 1g55_SAH_1_ligand
#    Modification time : Tue Mar 25 02:35:18 2014

@<TRIPOS>MOLECULE
1g55_SAH_1_ligand
   46    48     1     0     0
SMALL
NO_CHARGES


@<TRIPOS>ATOM
      1 N          62.9130   41.4220   32.8820 N.4       1 SAH392      0.0000 
      2 CA         61.5720   40.9060   33.0890 C.3       1 SAH392      0.0000 
      3 CB         61.5030   39.4350   33.5200 C.3       1 SAH392      0.0000 
      4 CG         62.2430   38.4450   32.6350 C.3       1 SAH392      0.0000 
      5 SD         62.0780   36.7740   33.3550 S.3       1 SAH392      0.0000 
      6 C          60.9900   41.7630   34.2120 C.2       1 SAH392      0.0000 
      7 O          61.2100   43.0480   34.3370 O.co2     1 SAH392      0.0000 
      8 OXT        59.9760   41.2360   34.8330 O.co2     1 SAH392      0.0000 
      9 C5'        62.1330   35.7440   31.8590 C.3       1 SAH392      0.0000 
     10 C4'        60.7960   36.0780   31.2540 C.3       1 SAH392      0.0000 
     11 O4'        60.7970   35.7030   29.8530 O.3       1 SAH392      0.0000 
     12 C3'        59.5750   35.4060   31.8820 C.3       1 SAH392      0.0000 
     13 O3'        58.5090   36.3360   32.0340 O.3       1 SAH392      0.0000 
     14 C2'        59.1990   34.3320   30.8660 C.3       1 SAH392      0.0000 
     15 O2'        57.8080   34.0720   30.8620 O.3       1 SAH392      0.0000 
     16 C1'        59.6320   34.9820   29.5440 C.3       1 SAH392      0.0000 
     17 N9         59.9710   34.0010   28.5150 N.pl3     1 SAH392      0.0000 
     18 C8         60.8300   32.9410   28.6680 C.2       1 SAH392      0.0000 
     19 N7         60.9690   32.2180   27.5850 N.2       1 SAH392      0.0000 
     20 C5         60.1500   32.8290   26.6510 C.ar      1 SAH392      0.0000 
     21 C6         59.8600   32.5410   25.2990 C.ar      1 SAH392      0.0000 
     22 N6         60.4050   31.5140   24.6190 N.pl3     1 SAH392      0.0000 
     23 N1         58.9950   33.3490   24.6630 N.ar      1 SAH392      0.0000 
     24 C2         58.4840   34.3950   25.3320 C.ar      1 SAH392      0.0000 
     25 N3         58.6840   34.7730   26.5900 N.ar      1 SAH392      0.0000 
     26 C4         59.5330   33.9450   27.2120 C.ar      1 SAH392      0.0000 
     27 H          60.9572   41.0571   32.2252 H         1 SAH392      0.0000 
     28 H          60.4336   39.1368   33.5792 H         1 SAH392      0.0000 
     29 H          61.8950   39.3548   34.5573 H         1 SAH392      0.0000 
     30 H          63.2912   38.5764   32.6217 H         1 SAH392      0.0000 
     31 H          61.8141   38.3157   31.6782 H         1 SAH392      0.0000 
     32 H          62.1989   34.7983   32.2529 H         1 SAH392      0.0000 
     33 H          62.9383   36.1372   31.3582 H         1 SAH392      0.0000 
     34 H          60.6402   37.1638   31.3121 H         1 SAH392      0.0000 
     35 H          59.8720   34.9347   32.7755 H         1 SAH392      0.0000 
     36 H          59.8106   33.4890   31.0278 H         1 SAH392      0.0000 
     37 H          58.8516   35.6314   29.2207 H         1 SAH392      0.0000 
     38 H          61.2915   32.7651   29.5406 H         1 SAH392      0.0000 
     39 H          61.3376   31.2612   24.8767 H         1 SAH392      0.0000 
     40 H          59.8285   31.0958   23.9171 H         1 SAH392      0.0000 
     41 H          57.7926   35.0359   24.7424 H         1 SAH392      0.0000 
     42 H          63.2184   41.2948   31.9383 H         1 SAH392      0.0000 
     43 H          62.9688   42.4009   33.0787 H         1 SAH392      0.0000 
     44 H          63.5811   40.9664   33.4702 H         1 SAH392      0.0000 
     45 H          58.3418   36.6905   31.1140 H         1 SAH392      0.0000 
     46 H          57.4060   34.8229   30.3380 H         1 SAH392      0.0000 
@<TRIPOS>BOND
     1    2    1 1    
     2   42    1 1    
     3   43    1 1    
     4   44    1 1    
     5    3    2 1    
     6    6    2 1    
     7   27    2 1    
     8    4    3 1    
     9   28    3 1    
    10   29    3 1    
    11    5    4 1    
    12   30    4 1    
    13   31    4 1    
    14    9    5 1    
    15    7    6 ar   
    16    8    6 ar   
    17   10    9 1    
    18   32    9 1    
    19   33    9 1    
    20   11   10 1    
    21   12   10 1    
    22   34   10 1    
    23   16   11 1    
    24   13   12 1    
    25   14   12 1    
    26   35   12 1    
    27   45   13 1    
    28   15   14 1    
    29   16   14 1    
    30   36   14 1    
    31   46   15 1    
    32   17   16 1    
    33   37   16 1    
    34   18   17 1    
    35   26   17 1    
    36   19   18 2    
    37   38   18 1    
    38   20   19 1    
    39   21   20 ar   
    40   26   20 ar   
    41   22   21 1    
    42   23   21 ar   
    43   39   22 1    
    44   40   22 1    
    45   24   23 ar   
    46   25   24 ar   
    47   41   24 1    
    48   26   25 ar   
@<TRIPOS>SUBSTRUCTURE
     1 SAH392      1 GROUP   
@<TRIPOS>SET

