#    Name: 2PIA_1_CAVITY_N1_6.mol2
#    Modification time : Tue Mar 11 05:21:41 2014

@<TRIPOS>MOLECULE
2PIA_1_CAVITY_N1_6.mol2
  119     0     7     0     0
SMALL
NO_CHARGES


@<TRIPOS>ATOM
      1 NZ         -2.8286   32.9788    1.8657 N.2       4 LYS4        0.0000 
      2 OG         -3.3144   32.0665    2.9527 O.2       1 SER1        0.0000 
      3 O          -3.8001   31.1542    4.0398 O.2       2 ALA2        0.0000 
      4 CA         -2.0847   31.8367    1.2395 C.3       6 GLY6        0.0000 
      5 O          -2.5704   30.9244    2.3266 O.2       2 ALA2        0.0000 
      6 O          -1.3407   30.6945    0.6134 O.2       2 ALA2        0.0000 
      7 CA          0.8910   27.2681   -1.2650 C.3       6 GLY6        0.0000 
      8 CA         -2.6221   36.5118    2.8533 C.3       6 GLY6        0.0000 
      9 N          -3.1079   35.5995    3.9403 N.2       2 ALA2        0.0000 
     10 CA         -3.5936   34.6872    5.0274 C.3       6 GLY6        0.0000 
     11 CA         -2.3640   34.4574    3.3142 C.3       6 GLY6        0.0000 
     12 CA         -2.8497   33.5450    4.4012 C.3       6 GLY6        0.0000 
     13 CA         -3.3355   32.6327    5.4883 C.3       6 GLY6        0.0000 
     14 NZ         -1.6200   33.3152    2.6880 N.2       4 LYS4        0.0000 
     15 DU         -2.1058   32.4029    3.7751 H         7 CUB7        0.0000 
     16 O          -2.5916   31.4905    4.8621 O.2       2 ALA2        0.0000 
     17 NZ         -0.8761   32.1730    2.0619 N.2       4 LYS4        0.0000 
     18 O          -1.3619   31.2607    3.1489 O.2       2 ALA2        0.0000 
     19 O          -1.8476   30.3484    4.2360 O.2       2 ALA2        0.0000 
     20 CA          0.3536   31.9432    0.3487 C.3       6 GLY6        0.0000 
     21 O          -0.1322   31.0309    1.4357 O.2       2 ALA2        0.0000 
     22 CA          1.0975   30.8011   -0.2775 C.3       6 GLY6        0.0000 
     23 O           0.6117   29.8887    0.8096 O.2       2 ALA2        0.0000 
     24 CA          1.8414   29.6589   -0.9036 C.3       6 GLY6        0.0000 
     25 CA          1.3557   28.7466    0.1835 C.3       6 GLY6        0.0000 
     26 CA          2.0996   27.6044   -0.4427 C.3       6 GLY6        0.0000 
     27 N          -2.6432   37.0780    5.3888 N.2       2 ALA2        0.0000 
     28 N          -3.1290   36.1657    6.4759 N.2       2 ALA2        0.0000 
     29 OD1        -0.9278   37.7605    2.5885 O.3       3 ASP3        0.0000 
     30 OD1        -1.4136   36.8482    3.6756 O.3       3 ASP3        0.0000 
     31 N          -1.8993   35.9359    4.7627 N.2       2 ALA2        0.0000 
     32 N          -2.3851   35.0235    5.8497 N.2       2 ALA2        0.0000 
     33 CZ         -2.8708   34.1112    6.9368 C.ar      5 PHE5        0.0000 
     34 NZ         -0.1839   36.6184    1.9624 N.2       4 LYS4        0.0000 
     35 NZ         -0.6696   35.7060    3.0495 N.2       4 LYS4        0.0000 
     36 NZ         -1.1554   34.7937    4.1365 N.2       4 LYS4        0.0000 
     37 DU         -1.6412   33.8814    5.2236 H         7 CUB7        0.0000 
     38 OG         -2.1269   32.9691    6.3106 O.2       1 SER1        0.0000 
     39 NZ          0.5600   35.4762    1.3363 N.2       4 LYS4        0.0000 
     40 NZ          0.0743   34.5639    2.4233 N.2       4 LYS4        0.0000 
     41 NZ         -0.4115   33.6516    3.5104 N.2       4 LYS4        0.0000 
     42 DU         -0.8972   32.7392    4.5974 H         7 CUB7        0.0000 
     43 O          -1.3830   31.8269    5.6845 O.2       2 ALA2        0.0000 
     44 CA         -1.8688   30.9146    6.7716 C.3       6 GLY6        0.0000 
     45 N           1.3040   34.3340    0.7101 N.2       2 ALA2        0.0000 
     46 NZ          0.8182   33.4217    1.7972 N.2       4 LYS4        0.0000 
     47 DU          0.3324   32.5094    2.8842 H         7 CUB7        0.0000 
     48 O          -0.1533   31.5971    3.9713 O.2       2 ALA2        0.0000 
     49 N           2.0479   33.1919    0.0840 N.2       2 ALA2        0.0000 
     50 N           1.5621   32.2796    1.1710 N.2       2 ALA2        0.0000 
     51 O           1.0764   31.3672    2.2581 O.2       2 ALA2        0.0000 
     52 N           2.3061   31.1374    0.5449 N.2       2 ALA2        0.0000 
     53 O           1.8203   30.2251    1.6320 O.2       2 ALA2        0.0000 
     54 N           3.0500   29.9952   -0.0812 N.2       2 ALA2        0.0000 
     55 O           2.5642   29.0829    1.0058 O.2       2 ALA2        0.0000 
     56 CA         -0.4632   39.2390    4.0370 C.3       6 GLY6        0.0000 
     57 CA         -0.9489   38.3267    5.1241 C.3       6 GLY6        0.0000 
     58 CA         -1.4347   37.4144    6.2111 C.3       6 GLY6        0.0000 
     59 O          -1.9204   36.5021    7.2982 O.2       2 ALA2        0.0000 
     60 OD1         0.2808   38.0969    3.4109 O.3       3 ASP3        0.0000 
     61 CA         -0.2050   37.1846    4.4979 C.3       6 GLY6        0.0000 
     62 DU         -0.6908   36.2722    5.5850 H         7 CUB7        0.0000 
     63 DU         -1.1765   35.3599    6.6721 H         7 CUB7        0.0000 
     64 CZ         -1.6623   34.4476    7.7591 C.ar      5 PHE5        0.0000 
     65 DU          1.0247   36.9547    2.7847 H         7 CUB7        0.0000 
     66 DU          0.5389   36.0424    3.8718 H         7 CUB7        0.0000 
     67 DU          0.0532   35.1301    4.9589 H         7 CUB7        0.0000 
     68 DU         -0.4326   34.2177    6.0459 H         7 CUB7        0.0000 
     69 CZ         -0.9184   33.3054    7.1330 C.ar      5 PHE5        0.0000 
     70 CZ         -1.4041   32.3931    8.2200 C.ar      5 PHE5        0.0000 
     71 DU          1.7686   35.8126    2.1586 H         7 CUB7        0.0000 
     72 DU          1.2828   34.9002    3.2457 H         7 CUB7        0.0000 
     73 DU          0.7971   33.9879    4.3327 H         7 CUB7        0.0000 
     74 DU          0.3113   33.0756    5.4198 H         7 CUB7        0.0000 
     75 DU         -0.1744   32.1633    6.5068 H         7 CUB7        0.0000 
     76 CA         -0.6602   31.2509    7.5939 C.3       6 GLY6        0.0000 
     77 N           2.5125   34.6704    1.5325 N.2       2 ALA2        0.0000 
     78 N           2.0268   33.7581    2.6195 N.2       2 ALA2        0.0000 
     79 N           1.5410   32.8458    3.7066 N.2       2 ALA2        0.0000 
     80 O           1.0552   31.9334    4.7936 O.2       2 ALA2        0.0000 
     81 OG          0.5695   31.0211    5.8807 O.2       1 SER1        0.0000 
     82 OG          0.0837   30.1088    6.9678 O.2       1 SER1        0.0000 
     83 N           2.7707   32.6159    1.9934 N.2       2 ALA2        0.0000 
     84 N           2.2849   31.7036    3.0804 N.2       2 ALA2        0.0000 
     85 O           1.7992   30.7913    4.1675 O.2       2 ALA2        0.0000 
     86 N           3.0289   30.5614    2.4543 N.2       2 ALA2        0.0000 
     87 CA         -1.4558   37.9806    8.7467 C.3       6 GLY6        0.0000 
     88 N          -1.9416   37.0683    9.8337 N.2       2 ALA2        0.0000 
     89 CA         -0.2261   37.7507    7.0335 C.3       6 GLY6        0.0000 
     90 CA         -0.7119   36.8384    8.1205 C.3       6 GLY6        0.0000 
     91 CZ         -1.1977   35.9261    9.2076 C.ar      5 PHE5        0.0000 
     92 CA          1.4893   38.4332    4.2332 C.3       6 GLY6        0.0000 
     93 CA          1.0036   37.5209    5.3203 C.3       6 GLY6        0.0000 
     94 CZ          0.5178   36.6086    6.4073 C.ar      5 PHE5        0.0000 
     95 CZ          0.0320   35.6963    7.4944 C.ar      5 PHE5        0.0000 
     96 CZ         -0.4537   34.7839    8.5815 C.ar      5 PHE5        0.0000 
     97 DU          2.2332   37.2911    3.6071 H         7 CUB7        0.0000 
     98 CA          1.7475   36.3788    4.6941 C.3       6 GLY6        0.0000 
     99 CA          1.2617   35.4664    5.7812 C.3       6 GLY6        0.0000 
    100 CZ          0.7760   34.5541    6.8683 C.ar      5 PHE5        0.0000 
    101 N           0.2902   33.6418    7.9553 N.2       2 ALA2        0.0000 
    102 DU          2.9772   36.1489    2.9809 H         7 CUB7        0.0000 
    103 N           2.4914   35.2366    4.0680 N.2       2 ALA2        0.0000 
    104 N           2.0056   34.3243    5.1551 N.2       2 ALA2        0.0000 
    105 N           1.5199   33.4119    6.2421 N.2       2 ALA2        0.0000 
    106 OG          1.0341   32.4996    7.3292 O.2       1 SER1        0.0000 
    107 N           0.5484   31.5873    8.4162 N.2       2 ALA2        0.0000 
    108 N           3.7211   35.0068    2.3548 N.2       2 ALA2        0.0000 
    109 N           3.2353   34.0944    3.4419 N.2       2 ALA2        0.0000 
    110 N           3.9792   32.9523    2.8157 N.2       2 ALA2        0.0000 
    111 CA         -0.2473   38.3169    9.5690 C.3       6 GLY6        0.0000 
    112 N          -0.7330   37.4046   10.6561 N.2       2 ALA2        0.0000 
    113 CZ          0.4967   37.1748    8.9429 C.ar      5 PHE5        0.0000 
    114 CZ          0.0109   36.2624   10.0299 C.ar      5 PHE5        0.0000 
    115 CA          2.6979   38.7696    5.0556 C.3       6 GLY6        0.0000 
    116 N           0.7548   35.1203    9.4038 N.2       2 ALA2        0.0000 
    117 CA          3.4418   37.6274    4.4294 C.3       6 GLY6        0.0000 
    118 CA          4.1857   36.4853    3.8033 C.3       6 GLY6        0.0000 
    119 CZ          3.9064   39.1059    5.8779 C.ar      5 PHE5        0.0000 
@<TRIPOS>BOND
@<TRIPOS>SUBSTRUCTURE
     1 SER1        2 GROUP   
     2 ALA2        3 GROUP   
     3 ASP3       29 GROUP   
     4 LYS4        1 GROUP   
     5 PHE5       33 GROUP   
     6 GLY6        4 GROUP   
     7 CUB7       15 GROUP   
@<TRIPOS>SET

