#    Name: 2pia_FMN_1_INTS_M
#    Modification time : Mon Mar 24 19:00:47 2014

@<TRIPOS>MOLECULE
2pia_FMN_1_INTS_M
   82     0    12     0     0
SMALL
NO_CHARGES


@<TRIPOS>ATOM
      1 N          -3.4595   37.9915    7.6035 N.am      2 SEC2        0.0000 
      2 N          -2.1920   37.3090    8.0210 N.am     10 SEL2        0.0000 
      3 N          -4.7270   38.6740    7.1860 N.am      6 SEP2        0.0000 
      4 O          -2.2455   38.1050   10.5890 O.2       1 ALC1        0.0000 
      5 O          -1.1530   37.4160    9.9740 O.2       9 ALL1        0.0000 
      6 O          -3.3380   38.7940   11.2040 O.2       5 ALP1        0.0000 
      7 N           0.2960   36.5680   13.1550 N.am      2 SEC2        0.0000 
      8 N          -0.0920   37.5670   11.9070 N.am     10 SEL2        0.0000 
      9 N           0.6840   35.5690   14.4030 N.am      6 SEP2        0.0000 
     10 N           0.6430   38.7145   12.3210 N.am      2 SEC2        0.0000 
     11 N           1.3780   39.8620   12.7350 N.am      6 SEP2        0.0000 
     12 N           1.1675   35.5780   12.8055 N.am      2 SEC2        0.0000 
     13 N           1.6510   35.5870   11.2080 N.am     10 SEL2        0.0000 
     14 CA          7.2820   34.2975   12.0925 C.3       4 GLC5        0.0000 
     15 CA          5.5770   33.0360   12.1190 C.3      12 GLL5        0.0000 
     16 CA          8.9870   35.5590   12.0660 C.3       8 GLP5        0.0000 
     17 CA          5.3305   34.7545   10.7360 C.3       4 GLC5        0.0000 
     18 CA          5.0840   36.4730    9.3530 C.3       8 GLP5        0.0000 
     19 CA          3.3175   31.6250   11.5625 C.3       4 GLC5        0.0000 
     20 CA          4.2090   32.5750    9.9590 C.3      12 GLL5        0.0000 
     21 CA          2.4260   30.6750   13.1660 C.3       8 GLP5        0.0000 
     22 CA          5.4995   29.5380    9.9410 C.3       4 GLC5        0.0000 
     23 CA          5.1500   31.5030    9.5170 C.3      12 GLL5        0.0000 
     24 CA          5.8490   27.5730   10.3650 C.3       8 GLP5        0.0000 
     25 CA          4.6480   30.3705    7.9290 C.3       4 GLC5        0.0000 
     26 CA          4.1460   29.2380    6.3410 C.3       8 GLP5        0.0000 
     27 CA          2.4060   31.4030   10.6015 C.3       4 GLC5        0.0000 
     28 CA          3.1750   32.9030    9.1140 C.3      12 GLL5        0.0000 
     29 CA          1.6370   29.9030   12.0890 C.3       8 GLP5        0.0000 
     30 CA          3.4290   34.8495    8.2405 C.3       4 GLC5        0.0000 
     31 CA          2.2730   33.9150    9.4940 C.3      12 GLL5        0.0000 
     32 CA          4.5850   35.7840    6.9870 C.3       8 GLP5        0.0000 
     33 CA          2.7515   34.7225    7.1920 C.3       4 GLC5        0.0000 
     34 CA          0.9180   33.6610    7.3970 C.3      12 GLL5        0.0000 
     35 CA         -1.6160   33.1030    8.6830 C.3       4 GLC5        0.0000 
     36 CA         -0.1470   32.5730    7.6170 C.3      12 GLL5        0.0000 
     37 CA         -3.0850   33.6330    9.7490 C.3       8 GLP5        0.0000 
     38 N          -0.1200   30.5545    9.7560 N.am      2 SEC2        0.0000 
     39 N           0.3680   31.5390    8.4580 N.am     10 SEL2        0.0000 
     40 N          -0.6080   29.5700   11.0540 N.am      6 SEP2        0.0000 
     41 N           0.3785   30.1760    8.3920 N.am      2 SEC2        0.0000 
     42 N           0.3890   28.8130    8.3260 N.am      6 SEP2        0.0000 
     43 O           0.2350   31.9495    9.7655 O.2       1 ALC1        0.0000 
     44 O           0.3680   31.5390    8.4580 O.2       9 ALL1        0.0000 
     45 O           0.1020   32.3600   11.0730 O.2       5 ALP1        0.0000 
     46 CA         -1.5250   30.1935    6.6745 C.3       4 GLC5        0.0000 
     47 CA         -0.5800   31.9590    6.2780 C.3      12 GLL5        0.0000 
     48 CA         -2.4700   28.4280    7.0710 C.3       8 GLP5        0.0000 
     49 N           1.6835   30.4500    6.1745 N.am      2 SEC2        0.0000 
     50 N           0.5650   31.4430    5.5980 N.am     10 SEL2        0.0000 
     51 N           2.8020   29.4570    6.7510 N.am      6 SEP2        0.0000 
     52 NZ         -1.4555   29.2110    2.0480 N.4       3 LYC4        0.0000 
     53 NZ         -2.2960   30.4420    1.8700 N.4      11 LYL4        0.0000 
     54 NZ          0.0300   27.7470    3.3650 N.4       7 LYP4        0.0000 
     55 N          -2.9475   29.9865    0.7615 N.am      2 SEC2        0.0000 
     56 N          -2.2960   30.4420    1.8700 N.am     10 SEL2        0.0000 
     57 N          -3.5990   29.5310   -0.3470 N.am      6 SEP2        0.0000 
     58 N          -1.4555   29.2110    2.0480 N.am      2 SEC2        0.0000 
     59 N          -0.6150   27.9800    2.2260 N.am      6 SEP2        0.0000 
     60 N          -5.4045   31.4775    3.6705 N.am      2 SEC2        0.0000 
     61 N          -4.2760   31.7740    2.5480 N.am     10 SEL2        0.0000 
     62 N          -6.5330   31.1810    4.7930 N.am      6 SEP2        0.0000 
     63 N          -5.1195   32.7960    2.9895 N.am      2 SEC2        0.0000 
     64 N          -5.9630   33.8180    3.4310 N.am      6 SEP2        0.0000 
     65 NZ         -3.4920   27.8890    3.7900 N.4       3 LYC4        0.0000 
     66 NZ         -3.9020   29.4220    3.4580 N.4      11 LYL4        0.0000 
     67 NZ         -2.7460   26.6810    5.3590 N.4       7 LYP4        0.0000 
     68 N          -3.3300   28.6900    4.5900 N.am      2 SEC2        0.0000 
     69 N          -3.9020   29.4220    3.4580 N.am     10 SEL2        0.0000 
     70 N          -2.7580   27.9580    5.7220 N.am      6 SEP2        0.0000 
     71 N          -3.4920   27.8890    3.7900 N.am      2 SEC2        0.0000 
     72 N          -3.0820   26.3560    4.1220 N.am      6 SEP2        0.0000 
     73 N          -5.2420   29.0635    3.3385 N.am      2 SEC2        0.0000 
     74 N          -6.5820   28.7050    3.2190 N.am      6 SEP2        0.0000 
     75 N          -5.2175   30.3015    4.1255 N.am      2 SEC2        0.0000 
     76 CA          1.1808   34.0858   12.2505 C.3       4 GLC5        0.0000 
     77 CA          2.4350   34.5580   10.7610 C.3      12 GLL5        0.0000 
     78 CA         -0.6020   33.7940   13.3170 C.3       8 GLP5        0.0000 
     79 CA          3.5944   32.0296   12.4657 C.3       4 GLC5        0.0000 
     80 CA          3.4920   34.1970   11.6070 C.3      12 GLL5        0.0000 
     81 CA          4.8099   33.6408    8.3686 C.3       4 GLC5        0.0000 
     82 CA          5.6680   34.7240    7.1540 C.3       8 GLP5        0.0000 
@<TRIPOS>BOND
@<TRIPOS>SUBSTRUCTURE
     1 ALC1        4 GROUP        1 X    ALC  0     ROOT ALC X 1
     2 SEC2        1 GROUP        1 X    SEC  0     **** SEC X 2
     3 LYC4       52 GROUP        1 X    LYC  0     **** LYC X 4
     4 GLC5       14 GROUP        1 X    GLC  0     **** GLC X 6
     5 ALP1        6 GROUP        1 Y    ALP  0     ROOT ALP Y 8
     6 SEP2        3 GROUP        1 Y    SEP  0     **** SEP Y 9
     7 LYP4       54 GROUP        1 Y    LYP  0     **** LYP Y 11
     8 GLP5       16 GROUP        1 Y    GLP  0     **** GLP Y 13
     9 ALL1        5 GROUP        1 Z    ALL  0     ROOT ALL Z 15
    10 SEL2        2 GROUP        1 Z    SEL  0     **** SEL Z 16
    11 LYL4       53 GROUP        1 Z    LYL  0     **** LYL Z 18
    12 GLL5       15 GROUP        1 Z    GLL  0     **** GLL Z 20
@<TRIPOS>SET

