#    Name: 2pia_FMN_1_ligand
#    Modification time : Mon Mar 24 19:00:47 2014

@<TRIPOS>MOLECULE
2pia_FMN_1_ligand
   50    52     1     0     0
SMALL
NO_CHARGES


@<TRIPOS>ATOM
      1 N1         -0.4750   35.8380    8.2710 N.2       1 FMN322      0.0000 
      2 C2         -1.2930   36.8560    8.7090 C.2       1 FMN322      0.0000 
      3 O2         -2.1920   37.3090    8.0210 O.2       1 FMN322      0.0000 
      4 N3         -1.1530   37.4160    9.9740 N.am      1 FMN322      0.0000 
      5 C4         -0.2010   37.0350   10.8560 C.2       1 FMN322      0.0000 
      6 O4         -0.0920   37.5670   11.9070 O.2       1 FMN322      0.0000 
      7 C4A         0.7000   35.9510   10.4100 C.2       1 FMN322      0.0000 
      8 N5          1.6510   35.5870   11.2080 N.2       1 FMN322      0.0000 
      9 C5A         2.4350   34.5580   10.7610 C.ar      1 FMN322      0.0000 
     10 C6          3.4920   34.1970   11.6070 C.ar      1 FMN322      0.0000 
     11 C7          4.4050   33.2680   11.2170 C.ar      1 FMN322      0.0000 
     12 C7M         5.5770   33.0360   12.1190 C.3       1 FMN322      0.0000 
     13 C8          4.2090   32.5750    9.9590 C.ar      1 FMN322      0.0000 
     14 C8M         5.1500   31.5030    9.5170 C.3       1 FMN322      0.0000 
     15 C9          3.1750   32.9030    9.1140 C.ar      1 FMN322      0.0000 
     16 C9A         2.2730   33.9150    9.4940 C.ar      1 FMN322      0.0000 
     17 N10         1.2280   34.3460    8.6760 N.pl3     1 FMN322      0.0000 
     18 C10         0.4720   35.4070    9.0650 C.2       1 FMN322      0.0000 
     19 C1'         0.9180   33.6610    7.3970 C.3       1 FMN322      0.0000 
     20 C2'        -0.1470   32.5730    7.6170 C.3       1 FMN322      0.0000 
     21 O2'         0.3680   31.5390    8.4580 O.3       1 FMN322      0.0000 
     22 C3'        -0.5800   31.9590    6.2780 C.3       1 FMN322      0.0000 
     23 O3'         0.5650   31.4430    5.5980 O.3       1 FMN322      0.0000 
     24 C4'        -1.2840   32.9990    5.4090 C.3       1 FMN322      0.0000 
     25 O4'        -2.4700   33.4490    6.0770 O.3       1 FMN322      0.0000 
     26 C5'        -1.5490   32.4380    4.0100 C.3       1 FMN322      0.0000 
     27 O5'        -2.3490   31.2360    4.0630 O.3       1 FMN322      0.0000 
     28 P          -3.3630   30.6930    2.9470 P.3       1 FMN322      0.0000 
     29 O1P        -2.2960   30.4420    1.8700 O.co2     1 FMN322      0.0000 
     30 O2P        -4.2760   31.7740    2.5480 O.co2     1 FMN322      0.0000 
     31 O3P        -3.9020   29.4220    3.4580 O.co2     1 FMN322      0.0000 
     32 H          -1.8345   38.1790   10.2461 H         1 FMN322      0.0000 
     33 H           3.5626   34.6528   12.5349 H         1 FMN322      0.0000 
     34 H           3.0500   32.4269    8.2181 H         1 FMN322      0.0000 
     35 H           1.8125   33.1883    6.9894 H         1 FMN322      0.0000 
     36 H           0.5353   34.3729    6.6646 H         1 FMN322      0.0000 
     37 H          -1.0150   33.0397    8.0624 H         1 FMN322      0.0000 
     38 H          -1.2893   31.1670    6.4946 H         1 FMN322      0.0000 
     39 H          -0.5759   33.8380    5.2960 H         1 FMN322      0.0000 
     40 H          -0.5744   32.2471    3.5340 H         1 FMN322      0.0000 
     41 H          -2.0489   33.2235    3.4218 H         1 FMN322      0.0000 
     42 H           6.1939   32.3385   11.7544 H         1 FMN322      0.0000 
     43 H           6.1176   33.8675   12.2469 H         1 FMN322      0.0000 
     44 H           5.2918   32.7293   13.0271 H         1 FMN322      0.0000 
     45 H           6.0842   31.8461    9.4190 H         1 FMN322      0.0000 
     46 H           5.1828   30.7456   10.1691 H         1 FMN322      0.0000 
     47 H           4.8851   31.1175    8.6331 H         1 FMN322      0.0000 
     48 H           0.2310   31.8721    9.3909 H         1 FMN322      0.0000 
     49 H           0.9972   32.2406    5.1773 H         1 FMN322      0.0000 
     50 H          -2.5542   34.4149    5.8321 H         1 FMN322      0.0000 
@<TRIPOS>BOND
     1    2    1 1    
     2   18    1 2    
     3    3    2 2    
     4    4    2 am   
     5    5    4 am   
     6   32    4 1    
     7    6    5 2    
     8    7    5 1    
     9    8    7 2    
    10   18    7 1    
    11    9    8 1    
    12   10    9 ar   
    13   16    9 ar   
    14   11   10 ar   
    15   33   10 1    
    16   12   11 1    
    17   13   11 ar   
    18   42   12 1    
    19   43   12 1    
    20   44   12 1    
    21   14   13 1    
    22   15   13 ar   
    23   45   14 1    
    24   46   14 1    
    25   47   14 1    
    26   16   15 ar   
    27   34   15 1    
    28   17   16 1    
    29   18   17 1    
    30   19   17 1    
    31   20   19 1    
    32   35   19 1    
    33   36   19 1    
    34   21   20 1    
    35   22   20 1    
    36   37   20 1    
    37   48   21 1    
    38   23   22 1    
    39   24   22 1    
    40   38   22 1    
    41   49   23 1    
    42   25   24 1    
    43   26   24 1    
    44   39   24 1    
    45   50   25 1    
    46   27   26 1    
    47   40   26 1    
    48   41   26 1    
    49   28   27 1    
    50   29   28 ar   
    51   30   28 ar   
    52   31   28 ar   
@<TRIPOS>SUBSTRUCTURE
     1 FMN322      1 GROUP   
@<TRIPOS>SET

