#    Name: 3ln1_CEL_2_INTS_M
#    Modification time : Mon Mar 24 21:53:05 2014

@<TRIPOS>MOLECULE
3ln1_CEL_2_INTS_M
   69     0     9     0     0
SMALL
NO_CHARGES


@<TRIPOS>ATOM
      1 CA         80.9210  -12.3320  -11.0425 C.3       3 GLC5        0.0000 
      2 CA         79.9760  -13.4250   -9.6120 C.3       9 GLL5        0.0000 
      3 CA         81.8660  -11.2390  -12.4730 C.3       6 GLP5        0.0000 
      4 CA         74.3675  -21.2485   -5.5410 C.3       3 GLC5        0.0000 
      5 CA         76.1000  -20.0840   -5.6330 C.3       9 GLL5        0.0000 
      6 CA         72.6350  -22.4130   -5.4490 C.3       6 GLP5        0.0000 
      7 CA         76.4140  -21.9675   -5.9790 C.3       3 GLC5        0.0000 
      8 CA         76.7280  -23.8510   -6.3250 C.3       6 GLP5        0.0000 
      9 CA         75.2790  -20.7700   -4.1340 C.3       3 GLC5        0.0000 
     10 CA         74.4580  -21.4560   -2.6350 C.3       6 GLP5        0.0000 
     11 CA         77.4605  -20.3995   -4.5420 C.3       3 GLC5        0.0000 
     12 CA         78.8210  -20.7150   -3.4510 C.3       6 GLP5        0.0000 
     13 CA         74.3580  -15.0300   -4.8440 C.3       3 GLC5        0.0000 
     14 CA         75.1140  -16.4870   -6.1320 C.3       9 GLL5        0.0000 
     15 CA         73.6020  -13.5730   -3.5560 C.3       6 GLP5        0.0000 
     16 CA         74.2715  -17.0410   -7.9715 C.3       3 GLC5        0.0000 
     17 CA         73.4290  -17.5950   -9.8110 C.3       6 GLP5        0.0000 
     18 CA         71.0980  -12.5680   -7.8335 C.3       3 GLC5        0.0000 
     19 CA         72.7640  -11.7390   -8.1570 C.3       9 GLL5        0.0000 
     20 CA         69.4320  -13.3970   -7.5100 C.3       6 GLP5        0.0000 
     21 CA         73.5165  -14.5120  -10.4905 C.3       3 GLC5        0.0000 
     22 CA         73.0870  -12.4490  -10.1890 C.3       9 GLL5        0.0000 
     23 CA         73.9460  -16.5750  -10.7920 C.3       6 GLP5        0.0000 
     24 O          82.3235  -12.5905   -6.7810 O.2       1 ALC1        0.0000 
     25 O          82.9420  -12.7560   -8.0030 O.2       7 ALL1        0.0000 
     26 O          81.7050  -12.4250   -5.5590 O.2       4 ALP1        0.0000 
     27 N          82.3645  -14.2310  -11.8640 N.am      2 SEC2        0.0000 
     28 N          82.7160  -13.9410  -10.2770 N.am      8 SEL2        0.0000 
     29 N          82.0130  -14.5210  -13.4510 N.am      5 SEP2        0.0000 
     30 N          84.2230  -16.4420   -7.6405 N.am      2 SEC2        0.0000 
     31 N          82.9810  -15.3250   -8.1170 N.am      8 SEL2        0.0000 
     32 N          85.4650  -17.5590   -7.1640 N.am      5 SEP2        0.0000 
     33 CA         80.0670  -12.6772   -7.5345 C.3       3 GLC5        0.0000 
     34 CA         80.7220  -14.0990   -8.6690 C.3       9 GLL5        0.0000 
     35 CA         79.7030  -10.9470   -6.9390 C.3       6 GLP5        0.0000 
     36 CA         80.6430  -15.6687   -9.4405 C.3       3 GLC5        0.0000 
     37 CA         80.8550  -16.9300  -10.7510 C.3       6 GLP5        0.0000 
     38 CA         79.3735  -14.1578   -5.5830 C.3       3 GLC5        0.0000 
     39 CA         80.1400  -14.7160   -7.5910 C.3       9 GLL5        0.0000 
     40 CA         79.2920  -13.6300   -3.6390 C.3       6 GLP5        0.0000 
     41 CA         79.0478  -12.6347   -7.4365 C.3       3 GLC5        0.0000 
     42 CA         78.7700  -14.6550   -7.4630 C.3       9 GLL5        0.0000 
     43 CA         79.4970  -12.1717   -8.2428 C.3       3 GLC5        0.0000 
     44 CA         78.6060  -13.3680   -9.4810 C.3       9 GLL5        0.0000 
     45 CA         78.8971  -14.8420  -10.5053 C.3       3 GLC5        0.0000 
     46 CA         78.6510  -16.1320  -11.7330 C.3       6 GLP5        0.0000 
     47 CA         74.8315  -13.3040   -6.5787 C.3       3 GLC5        0.0000 
     48 CA         75.7170  -14.7930   -7.7580 C.3       9 GLL5        0.0000 
     49 CA         74.5610  -12.1000   -5.2990 C.3       6 GLP5        0.0000 
     50 CA         74.5240  -15.5415   -9.3253 C.3       3 GLC5        0.0000 
     51 CA         74.4870  -14.2230   -7.9590 C.3       9 GLL5        0.0000 
     52 CA         77.8568  -18.1013   -9.2445 C.3       3 GLC5        0.0000 
     53 CA         76.7710  -17.0170   -7.7240 C.3       9 GLL5        0.0000 
     54 CA         78.9090  -18.5440  -11.0140 C.3       6 GLP5        0.0000 
     55 CA         75.0087  -17.5120   -8.5746 C.3       3 GLC5        0.0000 
     56 CA         76.8380  -18.3000   -7.2260 C.3       9 GLL5        0.0000 
     57 CA         75.6287  -20.1326   -7.6194 C.3       3 GLC5        0.0000 
     58 CA         74.9890  -20.9760   -9.0730 C.3       6 GLP5        0.0000 
     59 CA         73.4703  -17.7602   -5.9759 C.3       3 GLC5        0.0000 
     60 CA         76.0360  -18.6890   -6.1710 C.3       9 GLL5        0.0000 
     61 CA         71.5780  -18.1650   -5.9380 C.3       6 GLP5        0.0000 
     62 CA         75.4232  -10.3985   -9.9947 C.3       3 GLC5        0.0000 
     63 CA         73.7250  -12.0180   -9.0660 C.3       9 GLL5        0.0000 
     64 CA         76.8500   -9.3820  -10.7980 C.3       6 GLP5        0.0000 
     65 CA         71.7170  -13.0562   -9.7908 C.3       3 GLC5        0.0000 
     66 CA         70.0280  -13.8790   -9.9540 C.3       6 GLP5        0.0000 
     67 CA         74.1586  -11.7226   -7.1316 C.3       3 GLC5        0.0000 
     68 CA         73.8426  -10.0136   -7.5991 C.3       3 GLC5        0.0000 
     69 CA         73.9290   -8.6820   -6.2340 C.3       6 GLP5        0.0000 
@<TRIPOS>BOND
@<TRIPOS>SUBSTRUCTURE
     1 ALC1       24 GROUP        1 X    ALC  0     ROOT ALC X 1
     2 SEC2       27 GROUP        1 X    SEC  0     **** SEC X 2
     3 GLC5        1 GROUP        1 X    GLC  0     **** GLC X 6
     4 ALP1       26 GROUP        1 Y    ALP  0     ROOT ALP Y 8
     5 SEP2       29 GROUP        1 Y    SEP  0     **** SEP Y 9
     6 GLP5        3 GROUP        1 Y    GLP  0     **** GLP Y 13
     7 ALL1       25 GROUP        1 Z    ALL  0     ROOT ALL Z 15
     8 SEL2       28 GROUP        1 Z    SEL  0     **** SEL Z 16
     9 GLL5        2 GROUP        1 Z    GLL  0     **** GLL Z 20
@<TRIPOS>SET

