#    Name: 3ln1_CEL_2_ligand
#    Modification time : Mon Mar 24 21:53:05 2014

@<TRIPOS>MOLECULE
3ln1_CEL_2_ligand
   39    41     1     0     0
SMALL
NO_CHARGES


@<TRIPOS>ATOM
      1 S1         82.4900  -14.1680   -8.8580 S.o2      1 CEL682      0.0000 
      2 C15        80.7220  -14.0990   -8.6690 C.ar      1 CEL682      0.0000 
      3 C14        80.1400  -14.7160   -7.5910 C.ar      1 CEL682      0.0000 
      4 C13        78.7700  -14.6550   -7.4630 C.ar      1 CEL682      0.0000 
      5 C12        78.0150  -13.9900   -8.4050 C.ar      1 CEL682      0.0000 
      6 C17        78.6060  -13.3680   -9.4810 C.ar      1 CEL682      0.0000 
      7 C16        79.9760  -13.4250   -9.6120 C.ar      1 CEL682      0.0000 
      8 N2         76.6160  -13.9130   -8.3090 N.pl3     1 CEL682      0.0000 
      9 C3         75.7170  -14.7930   -7.7580 C.2       1 CEL682      0.0000 
     10 C5         75.9070  -16.0990   -7.1770 C.ar      1 CEL682      0.0000 
     11 C10        76.7710  -17.0170   -7.7240 C.ar      1 CEL682      0.0000 
     12 C9         76.8380  -18.3000   -7.2260 C.ar      1 CEL682      0.0000 
     13 C8         76.0360  -18.6890   -6.1710 C.ar      1 CEL682      0.0000 
     14 C11        76.1000  -20.0840   -5.6330 C.3       1 CEL682      0.0000 
     15 C7         75.1860  -17.7590   -5.6200 C.ar      1 CEL682      0.0000 
     16 C6         75.1140  -16.4870   -6.1320 C.ar      1 CEL682      0.0000 
     17 C2         74.4870  -14.2230   -7.9590 C.2       1 CEL682      0.0000 
     18 C1         74.7240  -13.0050   -8.6170 C.2       1 CEL682      0.0000 
     19 C4         73.7250  -12.0180   -9.0660 C.3       1 CEL682      0.0000 
     20 F3         72.7640  -11.7390   -8.1570 F         1 CEL682      0.0000 
     21 F2         74.2680  -10.8120   -9.3170 F         1 CEL682      0.0000 
     22 F1         73.0870  -12.4490  -10.1890 F         1 CEL682      0.0000 
     23 N1         76.0260  -12.8300   -8.8370 N.2       1 CEL682      0.0000 
     24 N3         82.9420  -12.7560   -8.0030 N.pl3     1 CEL682      0.0000 
     25 O2         82.7160  -13.9410  -10.2770 O.2       1 CEL682      0.0000 
     26 O1         82.9810  -15.3250   -8.1170 O.2       1 CEL682      0.0000 
     27 H          80.7069  -15.2097   -6.8981 H         1 CEL682      0.0000 
     28 H          78.3063  -15.1091   -6.6583 H         1 CEL682      0.0000 
     29 H          78.0369  -12.8706  -10.1734 H         1 CEL682      0.0000 
     30 H          80.4402  -12.9673  -10.4088 H         1 CEL682      0.0000 
     31 H          77.3787  -16.7433   -8.5187 H         1 CEL682      0.0000 
     32 H          77.4966  -18.9813   -7.6464 H         1 CEL682      0.0000 
     33 H          74.5934  -18.0220   -4.8092 H         1 CEL682      0.0000 
     34 H          74.4424  -15.8065   -5.7155 H         1 CEL682      0.0000 
     35 H          73.6483  -14.5600   -7.7153 H         1 CEL682      0.0000 
     36 H          77.0125  -20.3088   -5.2913 H         1 CEL682      0.0000 
     37 H          75.4617  -20.2195   -4.8753 H         1 CEL682      0.0000 
     38 H          75.8735  -20.7624   -6.3319 H         1 CEL682      0.0000 
     39 H          82.4222  -12.7929   -7.1495 H         1 CEL682      0.0000 
@<TRIPOS>BOND
     1    2    1 1    
     2   24    1 1    
     3   25    1 2    
     4   26    1 2    
     5    3    2 ar   
     6    7    2 ar   
     7    4    3 ar   
     8   27    3 1    
     9    5    4 ar   
    10   28    4 1    
    11    6    5 ar   
    12    8    5 1    
    13    7    6 ar   
    14   29    6 1    
    15   30    7 1    
    16    9    8 1    
    17   23    8 1    
    18   10    9 1    
    19   17    9 2    
    20   11   10 ar   
    21   16   10 ar   
    22   12   11 ar   
    23   31   11 1    
    24   13   12 ar   
    25   32   12 1    
    26   14   13 1    
    27   15   13 ar   
    28   36   14 1    
    29   37   14 1    
    30   38   14 1    
    31   16   15 ar   
    32   33   15 1    
    33   34   16 1    
    34   18   17 1    
    35   35   17 1    
    36   19   18 1    
    37   23   18 2    
    38   20   19 1    
    39   21   19 1    
    40   22   19 1    
    41   39   24 1    
@<TRIPOS>SUBSTRUCTURE
     1 CEL682      1 GROUP   
@<TRIPOS>SET

