#    Name: 3dmt_NAD_1_INTS_M
#    Modification time : Mon Mar 24 23:48:13 2014

@<TRIPOS>MOLECULE
3dmt_NAD_1_INTS_M
   86     0     9     0     0
SMALL
NO_CHARGES


@<TRIPOS>ATOM
      1 N          -5.9070    5.1325   25.1010 N.am      2 SEC2        0.0000 
      2 N          -5.7920    4.2000   26.2970 N.am      8 SEL2        0.0000 
      3 N          -6.0220    6.0650   23.9050 N.am      5 SEP2        0.0000 
      4 CA        -11.7320    6.5110   26.9455 C.3       3 GLC5        0.0000 
      5 CA         -9.8640    5.7720   27.8180 C.3       9 GLL5        0.0000 
      6 CA        -13.6000    7.2500   26.0730 C.3       6 GLP5        0.0000 
      7 O          -9.5430    8.5510   28.2555 O.2       1 ALC1        0.0000 
      8 O          -8.3000    7.5450   28.3340 O.2       7 ALL1        0.0000 
      9 O         -10.7860    9.5570   28.1770 O.2       4 ALP1        0.0000 
     10 O          -9.8650    9.2355   30.3830 O.2       1 ALC1        0.0000 
     11 O          -9.5700    7.9790   30.6840 O.2       7 ALL1        0.0000 
     12 O         -10.1600   10.4920   30.0820 O.2       4 ALP1        0.0000 
     13 O         -10.1780    8.7680   29.4305 O.2       1 ALC1        0.0000 
     14 CA        -12.4040    6.9805   27.7600 C.3       3 GLC5        0.0000 
     15 CA        -11.2080    6.7110   29.4470 C.3       9 GLL5        0.0000 
     16 CA        -14.4735    4.7575   29.7810 C.3       3 GLC5        0.0000 
     17 CA        -14.2290    6.0740   31.3460 C.3       9 GLL5        0.0000 
     18 CA        -14.7180    3.4410   28.2160 C.3       6 GLP5        0.0000 
     19 CA        -14.2800    4.1620   32.0675 C.3       3 GLC5        0.0000 
     20 CA        -14.3310    2.2500   32.7890 C.3       6 GLP5        0.0000 
     21 CA        -15.9715    8.3315   31.9285 C.3       3 GLC5        0.0000 
     22 CA        -15.5850    6.3790   31.5090 C.3       9 GLL5        0.0000 
     23 CA        -16.3580   10.2840   32.3480 C.3       6 GLP5        0.0000 
     24 CA        -15.6285    5.4560   29.6345 C.3       3 GLC5        0.0000 
     25 CA        -15.6720    4.5330   27.7600 C.3       6 GLP5        0.0000 
     26 O         -17.6705    6.1235   32.7005 O.2       1 ALC1        0.0000 
     27 O         -16.3080    5.7990   32.4670 O.2       7 ALL1        0.0000 
     28 O         -19.0330    6.4480   32.9340 O.2       4 ALP1        0.0000 
     29 CA        -14.5210    7.5645   27.8975 C.3       3 GLC5        0.0000 
     30 CA        -15.4420    7.8790   29.7220 C.3       9 GLL5        0.0000 
     31 CA        -16.2875    9.2490   28.9185 C.3       3 GLC5        0.0000 
     32 CA        -17.1330   10.6190   28.1150 C.3       6 GLP5        0.0000 
     33 CA        -14.3490    9.5610   29.4365 C.3       3 GLC5        0.0000 
     34 CA        -13.2560   11.2430   29.1510 C.3       6 GLP5        0.0000 
     35 CA        -15.9000    9.0815   31.0350 C.3       3 GLC5        0.0000 
     36 CA        -15.5570    6.2060   28.7410 C.3       3 GLC5        0.0000 
     37 CA        -13.5625    6.9875   28.2010 C.3       3 GLC5        0.0000 
     38 CA        -13.5250    6.7250   30.3290 C.3       9 GLL5        0.0000 
     39 CA        -14.5985    5.6290   29.0445 C.3       3 GLC5        0.0000 
     40 N          -7.5250    4.0030   22.9140 N.am      2 SEC2        0.0000 
     41 N          -7.6550    3.2780   24.0320 N.am      8 SEL2        0.0000 
     42 N          -7.3950    4.7280   21.7960 N.am      5 SEP2        0.0000 
     43 CA         -9.3445    2.0110   22.9350 C.3       3 GLC5        0.0000 
     44 CA         -9.6740    1.0970   24.8510 C.3       9 GLL5        0.0000 
     45 CA         -9.0150    2.9250   21.0190 C.3       6 GLP5        0.0000 
     46 CA        -12.0730    1.4355   23.8860 C.3       3 GLC5        0.0000 
     47 CA        -10.4850   -0.0870   24.3160 C.3       9 GLL5        0.0000 
     48 CA        -13.6610    2.9580   23.4560 C.3       6 GLP5        0.0000 
     49 CA         -8.8000    0.0380   21.8450 C.3       3 GLC5        0.0000 
     50 CA         -9.6090   -1.7060   22.8360 C.3       9 GLL5        0.0000 
     51 CA         -7.9910    1.7820   20.8540 C.3       6 GLP5        0.0000 
     52 N          -2.6380   -1.4675   20.5690 N.am      2 SEC2        0.0000 
     53 N          -3.8380   -1.2140   21.1000 N.am      8 SEL2        0.0000 
     54 N          -1.4380   -1.7210   20.0380 N.am      5 SEP2        0.0000 
     55 CA         -6.7565   -3.2930   18.6270 C.3       3 GLC5        0.0000 
     56 CA         -7.6420   -2.3840   19.7140 C.3       9 GLL5        0.0000 
     57 CA         -5.8710   -4.2020   17.5400 C.3       6 GLP5        0.0000 
     58 CA         -7.6285   -1.7955   17.7235 C.3       3 GLC5        0.0000 
     59 CA         -7.6150   -1.2070   15.7330 C.3       6 GLP5        0.0000 
     60 CA         -8.3335   -0.2735   20.7405 C.3       3 GLC5        0.0000 
     61 CA         -8.6760   -2.3290   20.6270 C.3       9 GLL5        0.0000 
     62 CA        -11.6180    4.1653   27.4117 C.3       3 GLC5        0.0000 
     63 CA        -13.5460    3.2640   27.2440 C.3       6 GLP5        0.0000 
     64 CA         -8.4945    6.5626   26.6304 C.3       3 GLC5        0.0000 
     65 CA         -9.5160    4.3610   27.3410 C.3       9 GLL5        0.0000 
     66 CA         -7.6900    7.4120   25.0300 C.3       6 GLP5        0.0000 
     67 CA         -8.1255    8.1595   29.8730 C.3       3 GLC5        0.0000 
     68 CA         -8.9080    6.3600   28.8820 C.3       9 GLL5        0.0000 
     69 CA         -6.8850    9.7930   30.2640 C.3       6 GLP5        0.0000 
     70 CA        -11.1020    7.4478   31.3117 C.3       3 GLC5        0.0000 
     71 CA         -9.8240    6.6920   30.0820 C.3       9 GLL5        0.0000 
     72 CA        -11.6880    8.1940   32.8590 C.3       6 GLP5        0.0000 
     73 CA        -12.7825    7.2968   31.8483 C.3       3 GLC5        0.0000 
     74 CA        -11.4101   -0.4370   26.1946 C.3       3 GLC5        0.0000 
     75 CA        -10.2210   -1.3670   25.1070 C.3       9 GLL5        0.0000 
     76 CA        -12.6700   -0.4430   27.5440 C.3       6 GLP5        0.0000 
     77 CA        -11.2792   -2.8295   23.4389 C.3       3 GLC5        0.0000 
     78 CA        -12.9010   -3.9360   23.1230 C.3       6 GLP5        0.0000 
     79 CA         -7.3525    0.2665   21.2997 C.3       3 GLC5        0.0000 
     80 CA         -7.2310   -1.2260   22.2090 C.3       9 GLL5        0.0000 
     81 CA         -5.6845   -3.2220   19.8285 C.3       3 GLC5        0.0000 
     82 CA         -6.1970   -1.2720   21.2820 C.3       9 GLL5        0.0000 
     83 CA         -5.0680   -4.8780   18.9940 C.3       6 GLP5        0.0000 
     84 CA         -7.0628   -0.1605   19.7135 C.3       3 GLC5        0.0000 
     85 CA         -6.4050   -1.8600   20.0440 C.3       9 GLL5        0.0000 
     86 CA         -7.1020    1.8010   19.5480 C.3       6 GLP5        0.0000 
@<TRIPOS>BOND
@<TRIPOS>SUBSTRUCTURE
     1 ALC1        7 GROUP        1 X    ALC  0     ROOT ALC X 1
     2 SEC2        1 GROUP        1 X    SEC  0     **** SEC X 2
     3 GLC5        4 GROUP        1 X    GLC  0     **** GLC X 6
     4 ALP1        9 GROUP        1 Y    ALP  0     ROOT ALP Y 8
     5 SEP2        3 GROUP        1 Y    SEP  0     **** SEP Y 9
     6 GLP5        6 GROUP        1 Y    GLP  0     **** GLP Y 13
     7 ALL1        8 GROUP        1 Z    ALL  0     ROOT ALL Z 15
     8 SEL2        2 GROUP        1 Z    SEL  0     **** SEL Z 16
     9 GLL5        5 GROUP        1 Z    GLL  0     **** GLL Z 20
@<TRIPOS>SET

