#    Name: 3dmt_NAD_1_ligand
#    Modification time : Mon Mar 24 23:48:13 2014

@<TRIPOS>MOLECULE
3dmt_NAD_1_ligand
   70    74     1     0     0
SMALL
NO_CHARGES


@<TRIPOS>ATOM
      1 PA         -6.9530    3.5580   26.9540 P.3       1 NAD360      0.0000 
      2 O1A        -6.9290    3.2750   28.4100 O.co2     1 NAD360      0.0000 
      3 O2A        -5.7920    4.2000   26.2970 O.co2     1 NAD360      0.0000 
      4 O5B        -8.3310    4.3740   26.5250 O.3       1 NAD360      0.0000 
      5 C5B        -9.5160    4.3610   27.3410 C.3       1 NAD360      0.0000 
      6 C4B        -9.8640    5.7720   27.8180 C.3       1 NAD360      0.0000 
      7 O4B       -11.1580    5.7000   28.4320 O.3       1 NAD360      0.0000 
      8 C3B        -8.9080    6.3600   28.8820 C.3       1 NAD360      0.0000 
      9 O3B        -8.3000    7.5450   28.3340 O.3       1 NAD360      0.0000 
     10 C2B        -9.8240    6.6920   30.0820 C.3       1 NAD360      0.0000 
     11 O2B        -9.5700    7.9790   30.6840 O.3       1 NAD360      0.0000 
     12 C1B       -11.2080    6.7110   29.4470 C.3       1 NAD360      0.0000 
     13 N9A       -12.2720    6.2760   30.3720 N.pl3     1 NAD360      0.0000 
     14 C8A       -12.1810    5.3790   31.3670 C.2       1 NAD360      0.0000 
     15 N7A       -13.3740    5.2570   31.9690 N.2       1 NAD360      0.0000 
     16 C5A       -14.2290    6.0740   31.3460 C.ar      1 NAD360      0.0000 
     17 C6A       -15.5850    6.3790   31.5090 C.ar      1 NAD360      0.0000 
     18 N6A       -16.3080    5.7990   32.4670 N.pl3     1 NAD360      0.0000 
     19 N1A       -16.1520    7.2820   30.6840 N.ar      1 NAD360      0.0000 
     20 C2A       -15.4420    7.8790   29.7220 C.ar      1 NAD360      0.0000 
     21 N3A       -14.1530    7.6220   29.5350 N.ar      1 NAD360      0.0000 
     22 C4A       -13.5250    6.7250   30.3290 C.ar      1 NAD360      0.0000 
     23 O3         -7.2010    2.1540   26.2440 O.3       1 NAD360      0.0000 
     24 PN         -7.1900    2.0170   24.6670 P.3       1 NAD360      0.0000 
     25 O1N        -7.6550    3.2780   24.0320 O.co2     1 NAD360      0.0000 
     26 O2N        -5.8640    1.4550   24.2980 O.co2     1 NAD360      0.0000 
     27 O5D        -8.3040    0.9040   24.4690 O.3       1 NAD360      0.0000 
     28 C5D        -9.6740    1.0970   24.8510 C.3       1 NAD360      0.0000 
     29 C4D       -10.4850   -0.0870   24.3160 C.3       1 NAD360      0.0000 
     30 O4D        -9.9810   -0.3200   22.9700 O.3       1 NAD360      0.0000 
     31 C3D       -10.2210   -1.3670   25.1070 C.3       1 NAD360      0.0000 
     32 O3D       -11.4460   -2.0910   25.1580 O.3       1 NAD360      0.0000 
     33 C2D        -9.1910   -2.1130   24.2400 C.3       1 NAD360      0.0000 
     34 O2D        -9.2860   -3.5300   24.3600 O.3       1 NAD360      0.0000 
     35 C1D        -9.6090   -1.7060   22.8360 C.3       1 NAD360      0.0000 
     36 N1N        -8.4810   -1.7550   21.8800 N.pl3     1 NAD360      0.0000 
     37 C2N        -7.2310   -1.2260   22.2090 C.ar      1 NAD360      0.0000 
     38 C3N        -6.1970   -1.2720   21.2820 C.ar      1 NAD360      0.0000 
     39 C7N        -4.8210   -0.7200   21.6130 C.2       1 NAD360      0.0000 
     40 O7N        -3.8380   -1.2140   21.1000 O.2       1 NAD360      0.0000 
     41 N7N        -4.7680    0.2940   22.4710 N.am      1 NAD360      0.0000 
     42 C4N        -6.4050   -1.8600   20.0440 C.ar      1 NAD360      0.0000 
     43 C5N        -7.6420   -2.3840   19.7140 C.ar      1 NAD360      0.0000 
     44 C6N        -8.6760   -2.3290   20.6270 C.ar      1 NAD360      0.0000 
     45 H          -9.3838    3.7291   28.2306 H         1 NAD360      0.0000 
     46 H         -10.3812    3.9714   26.7861 H         1 NAD360      0.0000 
     47 H          -9.8929    6.4361   26.9768 H         1 NAD360      0.0000 
     48 H          -8.2265    5.6169   29.1607 H         1 NAD360      0.0000 
     49 H          -9.7913    5.8844   30.7636 H         1 NAD360      0.0000 
     50 H         -11.4054    7.6512   29.0344 H         1 NAD360      0.0000 
     51 H         -11.3731    4.8920   31.6135 H         1 NAD360      0.0000 
     52 H         -17.2857    5.6999   32.2814 H         1 NAD360      0.0000 
     53 H         -15.8077    5.5152   33.2850 H         1 NAD360      0.0000 
     54 H         -15.9274    8.5801   29.0895 H         1 NAD360      0.0000 
     55 H         -10.0889    2.0074   24.4245 H         1 NAD360      0.0000 
     56 H          -9.7931    1.1238   25.9317 H         1 NAD360      0.0000 
     57 H         -11.5026    0.1427   24.3071 H         1 NAD360      0.0000 
     58 H          -9.8074   -1.1288   26.0210 H         1 NAD360      0.0000 
     59 H          -8.2387   -1.7150   24.4295 H         1 NAD360      0.0000 
     60 H         -10.4200   -2.2862   22.5215 H         1 NAD360      0.0000 
     61 H          -7.0800   -0.8057   23.1325 H         1 NAD360      0.0000 
     62 H          -5.6471    0.6351   22.8039 H         1 NAD360      0.0000 
     63 H          -3.8538    0.6241   22.7061 H         1 NAD360      0.0000 
     64 H          -5.6287   -1.9067   19.3628 H         1 NAD360      0.0000 
     65 H          -7.7898   -2.8135   18.7898 H         1 NAD360      0.0000 
     66 H          -9.6026   -2.7150   20.3835 H         1 NAD360      0.0000 
     67 H          -9.0194    8.2391   28.3571 H         1 NAD360      0.0000 
     68 H         -10.0283    8.6383   30.0880 H         1 NAD360      0.0000 
     69 H         -11.2037   -3.0276   24.9047 H         1 NAD360      0.0000 
     70 H          -9.3833   -3.8631   23.4221 H         1 NAD360      0.0000 
@<TRIPOS>BOND
     1    2    1 ar   
     2    3    1 ar   
     3    4    1 1    
     4   23    1 1    
     5    5    4 1    
     6    6    5 1    
     7   45    5 1    
     8   46    5 1    
     9    7    6 1    
    10    8    6 1    
    11   47    6 1    
    12   12    7 1    
    13    9    8 1    
    14   10    8 1    
    15   48    8 1    
    16   67    9 1    
    17   11   10 1    
    18   12   10 1    
    19   49   10 1    
    20   68   11 1    
    21   13   12 1    
    22   50   12 1    
    23   14   13 1    
    24   22   13 1    
    25   15   14 2    
    26   51   14 1    
    27   16   15 1    
    28   17   16 ar   
    29   22   16 ar   
    30   18   17 1    
    31   19   17 ar   
    32   52   18 1    
    33   53   18 1    
    34   20   19 ar   
    35   21   20 ar   
    36   54   20 1    
    37   22   21 ar   
    38   24   23 1    
    39   25   24 ar   
    40   26   24 ar   
    41   27   24 1    
    42   28   27 1    
    43   29   28 1    
    44   55   28 1    
    45   56   28 1    
    46   30   29 1    
    47   31   29 1    
    48   57   29 1    
    49   35   30 1    
    50   32   31 1    
    51   33   31 1    
    52   58   31 1    
    53   69   32 1    
    54   34   33 1    
    55   35   33 1    
    56   59   33 1    
    57   70   34 1    
    58   36   35 1    
    59   60   35 1    
    60   37   36 ar   
    61   44   36 ar   
    62   38   37 ar   
    63   61   37 1    
    64   39   38 1    
    65   42   38 ar   
    66   40   39 2    
    67   41   39 am   
    68   62   41 1    
    69   63   41 1    
    70   43   42 ar   
    71   64   42 1    
    72   44   43 ar   
    73   65   43 1    
    74   66   44 1    
@<TRIPOS>SUBSTRUCTURE
     1 NAD360      1 GROUP   
@<TRIPOS>SET

