#    Name: 2j14_GNI_2_INTS_M
#    Modification time : Tue Mar 25 19:05:46 2014

@<TRIPOS>MOLECULE
2j14_GNI_2_INTS_M
   92     0     6     0     0
SMALL
NO_CHARGES


@<TRIPOS>ATOM
      1 CA         -4.9355   12.6555   47.9820 C.3       2 GLC5        0.0000 
      2 CA         -3.2370   12.1370   46.7730 C.3       6 GLL5        0.0000 
      3 CA         -6.6340   13.1740   49.1910 C.3       4 GLP5        0.0000 
      4 CA         -3.6680   10.4515   47.2495 C.3       2 GLC5        0.0000 
      5 CA         -4.0990    8.7660   47.7260 C.3       4 GLP5        0.0000 
      6 CA          1.6180   10.8010   47.6520 C.3       2 GLC5        0.0000 
      7 CA          0.2020   11.5060   49.0600 C.3       6 GLL5        0.0000 
      8 CA          3.0340   10.0960   46.2440 C.3       4 GLP5        0.0000 
      9 CA          1.3565   15.0595   43.9515 C.3       2 GLC5        0.0000 
     10 CA         -0.1690   14.9420   45.4700 C.3       6 GLL5        0.0000 
     11 CA          2.8820   15.1770   42.4330 C.3       4 GLP5        0.0000 
     12 CA          0.6515   13.0625   45.0630 C.3       2 GLC5        0.0000 
     13 CA          1.4720   11.1830   44.6560 C.3       4 GLP5        0.0000 
     14 N          -2.7700   12.8370   38.6720 N.am      1 SEC2        0.0000 
     15 N          -3.7830   12.0130   38.8150 N.am      5 SEL2        0.0000 
     16 N          -1.7570   13.6610   38.5290 N.am      3 SEP2        0.0000 
     17 N          -3.9620   10.6290   38.6625 N.am      1 SEC2        0.0000 
     18 N          -4.1410    9.2450   38.5100 N.am      3 SEP2        0.0000 
     19 N          -4.9345   10.5850   39.2025 N.am      1 SEC2        0.0000 
     20 N          -5.7280   11.9250   39.8950 N.am      5 SEL2        0.0000 
     21 N          -6.2335   10.9630   40.9195 N.am      1 SEC2        0.0000 
     22 N          -6.7390   10.0010   41.9440 N.am      3 SEP2        0.0000 
     23 N          -6.2310   10.7175   39.3595 N.am      1 SEC2        0.0000 
     24 N          -6.7340    9.5100   38.8240 N.am      3 SEP2        0.0000 
     25 CA         -3.5675   15.4305   39.5375 C.3       2 GLC5        0.0000 
     26 CA         -4.2900   13.7760   40.3190 C.3       6 GLL5        0.0000 
     27 CA         -2.8450   17.0850   38.7560 C.3       4 GLP5        0.0000 
     28 CA         -4.4570   14.0915   38.1760 C.3       2 GLC5        0.0000 
     29 CA         -4.6240   14.4070   36.0330 C.3       4 GLP5        0.0000 
     30 CA         -3.6060   15.0085   45.2145 C.3       2 GLC5        0.0000 
     31 CA         -3.3310   12.8280   45.5720 C.3       6 GLL5        0.0000 
     32 CA         -3.8810   17.1890   44.8570 C.3       4 GLP5        0.0000 
     33 CA         -0.2675   24.1360   48.5875 C.3       2 GLC5        0.0000 
     34 CA         -0.9680   22.8880   46.9670 C.3       6 GLL5        0.0000 
     35 CA          0.4330   25.3840   50.2080 C.3       4 GLP5        0.0000 
     36 CA         -0.7340   24.5880   46.8620 C.3       2 GLC5        0.0000 
     37 CA         -0.5000   26.2880   46.7570 C.3       4 GLP5        0.0000 
     38 CA         -2.8260   21.8815   46.9140 C.3       2 GLC5        0.0000 
     39 CA         -4.6840   20.8750   46.8610 C.3       4 GLP5        0.0000 
     40 CA         -1.1405   23.0575   45.1405 C.3       2 GLC5        0.0000 
     41 CA         -1.3130   23.2270   43.3140 C.3       4 GLP5        0.0000 
     42 CA          0.2735   21.8445   48.2585 C.3       2 GLC5        0.0000 
     43 CA          1.5150   20.8010   49.5500 C.3       4 GLP5        0.0000 
     44 CA         -2.8120   17.4155   46.3540 C.3       2 GLC5        0.0000 
     45 CA         -1.7430   17.6420   47.8510 C.3       6 GLL5        0.0000 
     46 CA         -0.3135   17.3345   49.2640 C.3       2 GLC5        0.0000 
     47 CA          1.1160   17.0270   50.6770 C.3       4 GLP5        0.0000 
     48 CA         -2.3200   17.6880   49.5060 C.3       2 GLC5        0.0000 
     49 CA         -2.8970   17.7340   51.1610 C.3       4 GLP5        0.0000 
     50 CA         -2.7998   20.7997   46.8867 C.3       2 GLC5        0.0000 
     51 CA         -1.2370   20.2050   47.2450 C.3       6 GLL5        0.0000 
     52 CA         -1.4173   21.2772   45.1062 C.3       2 GLC5        0.0000 
     53 CA         -1.9190   21.8300   43.3000 C.3       4 GLP5        0.0000 
     54 CA          0.2997   20.7628   48.2312 C.3       2 GLC5        0.0000 
     55 CA         -0.5940   21.2440   46.5800 C.3       6 GLL5        0.0000 
     56 CA         -3.0090   19.5678   47.1330 C.3       2 GLC5        0.0000 
     57 CA         -0.9250   18.8790   46.9590 C.3       6 GLL5        0.0000 
     58 CA         -2.1615   17.9605   45.6670 C.3       2 GLC5        0.0000 
     59 CA          0.5365   19.7665   48.0135 C.3       2 GLC5        0.0000 
     60 CA         -0.6983   21.0610   44.3867 C.3       2 GLC5        0.0000 
     61 CA          0.6780   19.6290   45.3300 C.3       6 GLL5        0.0000 
     62 CA          1.0188   20.5465   47.5117 C.3       2 GLC5        0.0000 
     63 CA          0.3670   20.9550   45.6170 C.3       6 GLL5        0.0000 
     64 CA          1.9636   19.7105   46.5389 C.3       2 GLC5        0.0000 
     65 CA          3.5640   19.3900   47.4380 C.3       4 GLP5        0.0000 
     66 CA         -2.7393   10.7078   48.5978 C.3       2 GLC5        0.0000 
     67 CA         -1.9940   12.4700   48.8090 C.3       6 GLL5        0.0000 
     68 CA         -3.4370    9.2160   49.0260 C.3       4 GLP5        0.0000 
     69 CA         -1.8805   10.5493   49.1713 C.3       2 GLC5        0.0000 
     70 CA          0.3795   13.5891   49.0398 C.3       2 GLC5        0.0000 
     71 CA          1.3690   15.2430   48.9540 C.3       4 GLP5        0.0000 
     72 CA          0.5050   11.1278   46.0275 C.3       2 GLC5        0.0000 
     73 CA          0.1100   10.9660   47.7810 C.3       6 GLL5        0.0000 
     74 CA          1.4210   11.6401   49.8329 C.3       2 GLC5        0.0000 
     75 CA          2.9490   11.8560   51.1170 C.3       4 GLP5        0.0000 
     76 CA         -1.9495   10.1442   48.2125 C.3       2 GLC5        0.0000 
     77 CA         -2.1492   16.4258   45.1955 C.3       2 GLC5        0.0000 
     78 CA          0.4758   15.4527   47.2440 C.3       2 GLC5        0.0000 
     79 CA         -0.6660   16.3830   45.5980 C.3       6 GLL5        0.0000 
     80 CA         -5.1000   15.7245   42.7298 C.3       2 GLC5        0.0000 
     81 CA         -6.8910   14.7080   42.9430 C.3       6 GLL5        0.0000 
     82 CA         -3.6440   16.7950   43.1240 C.3       4 GLP5        0.0000 
     83 CA         -8.0970   14.1090   44.9232 C.3       2 GLC5        0.0000 
     84 CA         -9.5660   13.8090   46.3330 C.3       4 GLP5        0.0000 
     85 CA         -4.7053   15.2752   43.5877 C.3       2 GLC5        0.0000 
     86 CA         -6.3650   14.1100   44.0840 C.3       6 GLL5        0.0000 
     87 CA         -8.1492   13.8385   42.3439 C.3       2 GLC5        0.0000 
     88 CA         -9.8380   13.2950   41.4780 C.3       4 GLP5        0.0000 
     89 CA         -4.0853   15.2398   42.1990 C.3       2 GLC5        0.0000 
     90 CA         -2.8277   12.9802   40.8265 C.3       2 GLC5        0.0000 
     91 CA         -5.0250   13.8910   41.6570 C.3       6 GLL5        0.0000 
     92 CA         -1.1290   12.2760   40.3790 C.3       4 GLP5        0.0000 
@<TRIPOS>BOND
@<TRIPOS>SUBSTRUCTURE
     1 SEC2       14 GROUP        1 X    SEC  0     ROOT SEC X 2
     2 GLC5        1 GROUP        1 X    GLC  0     **** GLC X 6
     3 SEP2       16 GROUP        1 Y    SEP  0     ROOT SEP Y 9
     4 GLP5        3 GROUP        1 Y    GLP  0     **** GLP Y 13
     5 SEL2       15 GROUP        1 Z    SEL  0     ROOT SEL Z 16
     6 GLL5        2 GROUP        1 Z    GLL  0     **** GLL Z 20
@<TRIPOS>SET

