#    Name: 2j14_GNI_2_ligand
#    Modification time : Tue Mar 25 19:05:46 2014

@<TRIPOS>MOLECULE
2j14_GNI_2_ligand
   54    57     1     0     0
SMALL
NO_CHARGES


@<TRIPOS>ATOM
      1 O11        -2.1220   13.8110   43.7240 O.2       1 GNI1439     0.0000 
      2 C10        -2.2020   13.6460   44.9400 C.2       1 GNI1439     0.0000 
      3 N20        -5.3630   12.1680   46.1090 N.2       1 GNI1439     0.0000 
      4 C21        -4.6670   12.8230   45.1820 C.2       1 GNI1439     0.0000 
      5 C28        -0.5940   21.2440   46.5800 C.ar      1 GNI1439     0.0000 
      6 C27        -1.2370   20.2050   47.2450 C.ar      1 GNI1439     0.0000 
      7 C26        -0.9250   18.8790   46.9590 C.ar      1 GNI1439     0.0000 
      8 C25         0.0410   18.5850   45.9950 C.ar      1 GNI1439     0.0000 
      9 C24         0.6780   19.6290   45.3300 C.ar      1 GNI1439     0.0000 
     10 C23         0.3670   20.9550   45.6170 C.ar      1 GNI1439     0.0000 
     11 C13        -3.2370   12.1370   46.7730 C.2       1 GNI1439     0.0000 
     12 C14        -2.0890   11.9290   47.5300 C.ar      1 GNI1439     0.0000 
     13 C19        -1.9940   12.4700   48.8090 C.ar      1 GNI1439     0.0000 
     14 C18        -0.8500   12.2590   49.5730 C.ar      1 GNI1439     0.0000 
     15 C17         0.2020   11.5060   49.0600 C.ar      1 GNI1439     0.0000 
     16 C16         0.1100   10.9660   47.7810 C.ar      1 GNI1439     0.0000 
     17 C15        -1.0340   11.1790   47.0170 C.ar      1 GNI1439     0.0000 
     18 N9         -1.3170   14.0970   45.8240 N.am      1 GNI1439     0.0000 
     19 C8         -0.1690   14.9420   45.4700 C.3       1 GNI1439     0.0000 
     20 C7         -0.6660   16.3830   45.5980 C.3       1 GNI1439     0.0000 
     21 C5         -6.2210   14.6000   41.7280 C.ar      1 GNI1439     0.0000 
     22 C4         -6.8910   14.7080   42.9430 C.ar      1 GNI1439     0.0000 
     23 C3         -6.3650   14.1100   44.0840 C.ar      1 GNI1439     0.0000 
     24 C30        -5.0250   13.8910   41.6570 C.ar      1 GNI1439     0.0000 
     25 C31        -4.5010   13.2950   42.8010 C.ar      1 GNI1439     0.0000 
     26 O          -3.7830   12.0130   38.8150 O.co2     1 GNI1439     0.0000 
     27 C          -4.6310   12.4580   39.6190 C.2       1 GNI1439     0.0000 
     28 O3         -5.7280   11.9250   39.8950 O.co2     1 GNI1439     0.0000 
     29 C2         -4.2900   13.7760   40.3190 C.3       1 GNI1439     0.0000 
     30 C9         -5.1680   13.4010   44.0190 C.ar      1 GNI1439     0.0000 
     31 O13        -4.4900   11.7250   47.1270 O.3       1 GNI1439     0.0000 
     32 C12        -3.3310   12.8280   45.5720 C.2       1 GNI1439     0.0000 
     33 O21         0.4190   17.3180   45.6680 O.3       1 GNI1439     0.0000 
     34 CL26       -0.9680   22.8880   46.9670 Cl        1 GNI1439     0.0000 
     35 CL29       -1.7430   17.6420   47.8510 Cl        1 GNI1439     0.0000 
     36 H          -1.9527   20.4191   47.9577 H         1 GNI1439     0.0000 
     37 H           1.3922   19.4164   44.6128 H         1 GNI1439     0.0000 
     38 H           0.8445   21.7150   45.1204 H         1 GNI1439     0.0000 
     39 H          -2.7706   13.0266   49.1900 H         1 GNI1439     0.0000 
     40 H          -0.7820   12.6599   50.5176 H         1 GNI1439     0.0000 
     41 H           1.0455   11.3491   49.6252 H         1 GNI1439     0.0000 
     42 H           0.8860   10.4102   47.4003 H         1 GNI1439     0.0000 
     43 H          -1.1003   10.7810   46.0703 H         1 GNI1439     0.0000 
     44 H          -1.3939   13.8669   46.8493 H         1 GNI1439     0.0000 
     45 H           0.1401   14.7727   44.4556 H         1 GNI1439     0.0000 
     46 H           0.6462   14.7964   46.1536 H         1 GNI1439     0.0000 
     47 H          -1.3034   16.4373   46.4978 H         1 GNI1439     0.0000 
     48 H          -1.3198   16.5885   44.7324 H         1 GNI1439     0.0000 
     49 H          -6.6076   15.0421   40.8858 H         1 GNI1439     0.0000 
     50 H          -7.7752   15.2300   42.9975 H         1 GNI1439     0.0000 
     51 H          -6.8633   14.1918   44.9821 H         1 GNI1439     0.0000 
     52 H          -3.6147   12.7725   42.7464 H         1 GNI1439     0.0000 
     53 H          -3.2167   13.8214   40.4946 H         1 GNI1439     0.0000 
     54 H          -4.5792   14.6073   39.6786 H         1 GNI1439     0.0000 
@<TRIPOS>BOND
     1    2    1 2    
     2   18    2 am   
     3   32    2 1    
     4    4    3 2    
     5   31    3 1    
     6   30    4 1    
     7   32    4 1    
     8    6    5 ar   
     9   10    5 ar   
    10   34    5 1    
    11    7    6 ar   
    12   36    6 1    
    13    8    7 ar   
    14   35    7 1    
    15    9    8 ar   
    16   33    8 1    
    17   10    9 ar   
    18   37    9 1    
    19   38   10 1    
    20   12   11 1    
    21   31   11 1    
    22   32   11 2    
    23   13   12 ar   
    24   17   12 ar   
    25   14   13 ar   
    26   39   13 1    
    27   15   14 ar   
    28   40   14 1    
    29   16   15 ar   
    30   41   15 1    
    31   17   16 ar   
    32   42   16 1    
    33   43   17 1    
    34   19   18 1    
    35   44   18 1    
    36   20   19 1    
    37   45   19 1    
    38   46   19 1    
    39   33   20 1    
    40   47   20 1    
    41   48   20 1    
    42   22   21 ar   
    43   24   21 ar   
    44   49   21 1    
    45   23   22 ar   
    46   50   22 1    
    47   30   23 ar   
    48   51   23 1    
    49   25   24 ar   
    50   29   24 1    
    51   30   25 ar   
    52   52   25 1    
    53   27   26 ar   
    54   28   27 ar   
    55   29   27 1    
    56   53   29 1    
    57   54   29 1    
@<TRIPOS>SUBSTRUCTURE
     1 GNI1439     1 GROUP   
@<TRIPOS>SET

