#    Name: 3o5n_BR0_1_INTS_M
#    Modification time : Tue Mar 25 03:17:01 2014

@<TRIPOS>MOLECULE
3o5n_BR0_1_INTS_M
   47     0     9     0     0
SMALL
NO_CHARGES


@<TRIPOS>ATOM
      1 O          53.3670  -22.6105   89.8615 O.2       1 ALC1        0.0000 
      2 O          54.1240  -21.1790   89.6590 O.2       7 ALL1        0.0000 
      3 O          52.6100  -24.0420   90.0640 O.2       4 ALP1        0.0000 
      4 CA         51.6175  -21.5545   88.6050 C.3       3 GLC5        0.0000 
      5 CA         53.0840  -20.2900   89.1060 C.3       9 GLL5        0.0000 
      6 CA         50.1510  -22.8190   88.1040 C.3       6 GLP5        0.0000 
      7 N          55.8295  -25.1860   90.4425 N.am      2 SEC2        0.0000 
      8 N          55.1270  -23.7560   90.2080 N.am      8 SEL2        0.0000 
      9 N          56.5320  -26.6160   90.6770 N.am      5 SEP2        0.0000 
     10 N          54.5070  -24.9495   90.7350 N.am      2 SEC2        0.0000 
     11 N          53.8870  -26.1430   91.2620 N.am      5 SEP2        0.0000 
     12 N          59.9035  -17.6675   88.5910 N.am      2 SEC2        0.0000 
     13 N          59.2950  -18.0330   89.7190 N.am      8 SEL2        0.0000 
     14 N          60.5120  -17.3020   87.4630 N.am      5 SEP2        0.0000 
     15 N          57.3190  -24.5115   89.1390 N.am      2 SEC2        0.0000 
     16 N          56.0180  -24.1100   88.2120 N.am      8 SEL2        0.0000 
     17 N          58.6200  -24.9130   90.0660 N.am      5 SEP2        0.0000 
     18 CA         58.5665  -23.4405   88.4645 C.3       3 GLC5        0.0000 
     19 CA         57.7000  -21.7260   89.0990 C.3       9 GLL5        0.0000 
     20 CA         59.4330  -25.1550   87.8300 C.3       6 GLP5        0.0000 
     21 CA         51.8510  -17.8190   92.8885 C.3       3 GLC5        0.0000 
     22 CA         53.0480  -18.1950   91.4570 C.3       9 GLL5        0.0000 
     23 CA         50.6540  -17.4430   94.3200 C.3       6 GLP5        0.0000 
     24 CA         53.7195  -17.6480   93.0790 C.3       3 GLC5        0.0000 
     25 CA         54.3910  -17.1010   94.7010 C.3       6 GLP5        0.0000 
     26 CA         51.1935  -18.6995   91.5545 C.3       3 GLC5        0.0000 
     27 CA         52.5660  -17.9430   90.0280 C.3       9 GLL5        0.0000 
     28 CA         49.8210  -19.4560   93.0810 C.3       6 GLP5        0.0000 
     29 CA         57.3340  -18.1070   87.7880 C.3       3 GLC5        0.0000 
     30 CA         57.3110  -19.3330   89.3990 C.3       9 GLL5        0.0000 
     31 CA         57.3570  -16.8810   86.1770 C.3       6 GLP5        0.0000 
     32 N          50.0060  -20.6965   90.5820 N.am      2 SEC2        0.0000 
     33 N          50.7220  -20.0610   89.4940 N.am      8 SEL2        0.0000 
     34 N          49.2900  -21.3320   91.6700 N.am      5 SEP2        0.0000 
     35 CA         55.9180  -18.2605   91.7738 C.3       3 GLC5        0.0000 
     36 CA         54.8740  -18.4990   89.8280 C.3       9 GLL5        0.0000 
     37 CA         57.1200  -18.0690   92.9700 C.3       6 GLP5        0.0000 
     38 CA         57.3972  -23.0057   90.7078 C.3       3 GLC5        0.0000 
     39 CA         56.3470  -21.9730   89.2620 C.3       9 GLL5        0.0000 
     40 CA         57.7710  -24.1620   92.2350 C.3       6 GLP5        0.0000 
     41 CA         53.7550  -19.9545   92.6370 C.3       3 GLC5        0.0000 
     42 CA         54.5580  -18.4050   91.3270 C.3       9 GLL5        0.0000 
     43 CA         53.7070  -21.6090   93.8820 C.3       6 GLP5        0.0000 
     44 CA         56.8715  -18.7665   91.2262 C.3       3 GLC5        0.0000 
     45 CA         55.9350  -19.5950   89.5660 C.3       9 GLL5        0.0000 
     46 CA         53.7126  -16.5808   90.3762 C.3       3 GLC5        0.0000 
     47 CA         53.8350  -14.8650   90.1750 C.3       6 GLP5        0.0000 
@<TRIPOS>BOND
@<TRIPOS>SUBSTRUCTURE
     1 ALC1        1 GROUP        1 X    ALC  0     ROOT ALC X 1
     2 SEC2        7 GROUP        1 X    SEC  0     **** SEC X 2
     3 GLC5        4 GROUP        1 X    GLC  0     **** GLC X 6
     4 ALP1        3 GROUP        1 Y    ALP  0     ROOT ALP Y 8
     5 SEP2        9 GROUP        1 Y    SEP  0     **** SEP Y 9
     6 GLP5        6 GROUP        1 Y    GLP  0     **** GLP Y 13
     7 ALL1        2 GROUP        1 Z    ALL  0     ROOT ALL Z 15
     8 SEL2        8 GROUP        1 Z    SEL  0     **** SEL Z 16
     9 GLL5        5 GROUP        1 Z    GLL  0     **** GLL Z 20
@<TRIPOS>SET

