#    Name: 3o5n_BR0_1_ligand
#    Modification time : Tue Mar 25 03:17:01 2014

@<TRIPOS>MOLECULE
3o5n_BR0_1_ligand
   32    34     1     0     0
SMALL
NO_CHARGES


@<TRIPOS>ATOM
      1 C          51.7950  -20.5690   89.8930 C.2       1 BR01        0.0000 
      2 N          54.1240  -21.1790   89.6590 N.pl3     1 BR01        0.0000 
      3 O          51.9170  -21.3220   90.8810 O.co2     1 BR01        0.0000 
      4 CA         53.0840  -20.2900   89.1060 C.3       1 BR01        0.0000 
      5 CB         53.5030  -18.7880   89.1680 C.3       1 BR01        0.0000 
      6 CG         54.8740  -18.4990   89.8280 C.3       1 BR01        0.0000 
      7 OAA        55.1270  -23.7560   90.2080 O.co2     1 BR01        0.0000 
      8 OAC        59.2950  -18.0330   89.7190 O.2       1 BR01        0.0000 
      9 OAD        56.0180  -24.1100   88.2120 O.co2     1 BR01        0.0000 
     10 OAF        57.2130  -16.8960   89.2460 O.2       1 BR01        0.0000 
     11 CAG        57.7000  -21.7260   89.0990 C.ar      1 BR01        0.0000 
     12 CAH        58.1640  -20.4120   89.1650 C.ar      1 BR01        0.0000 
     13 CAI        53.0480  -18.1950   91.4570 C.2       1 BR01        0.0000 
     14 CAK        52.5660  -17.9430   90.0280 C.3       1 BR01        0.0000 
     15 CAM        55.7880  -23.3920   89.2110 C.2       1 BR01        0.0000 
     16 CAO        56.3470  -21.9730   89.2620 C.ar      1 BR01        0.0000 
     17 CAP        57.3110  -19.3330   89.3990 C.ar      1 BR01        0.0000 
     18 CAQ        55.4810  -20.9120   89.4960 C.ar      1 BR01        0.0000 
     19 NAT        57.8960  -18.1170   89.4490 N.pl3     1 BR01        0.0000 
     20 CD1        54.5580  -18.4050   91.3270 C.2       1 BR01        0.0000 
     21 CD2        55.9350  -19.5950   89.5660 C.ar      1 BR01        0.0000 
     22 OXT        50.7220  -20.0610   89.4940 O.co2     1 BR01        0.0000 
     23 H          53.8022  -22.0088   90.1728 H         1 BR01        0.0000 
     24 H          52.9001  -20.5502   88.0699 H         1 BR01        0.0000 
     25 H          53.5171  -18.3575   88.1838 H         1 BR01        0.0000 
     26 H          55.2214  -17.5515   89.4984 H         1 BR01        0.0000 
     27 H          58.3543  -22.4940   88.9322 H         1 BR01        0.0000 
     28 H          59.1821  -20.2302   89.0351 H         1 BR01        0.0000 
     29 H          52.5704  -18.2147   92.1829 H         1 BR01        0.0000 
     30 H          51.5686  -18.2881   89.9198 H         1 BR01        0.0000 
     31 H          52.6826  -16.9166   89.7859 H         1 BR01        0.0000 
     32 H          55.1417  -18.4619   91.9899 H         1 BR01        0.0000 
@<TRIPOS>BOND
     1    3    1 ar   
     2    4    1 1    
     3   22    1 ar   
     4    4    2 1    
     5   18    2 1    
     6   23    2 1    
     7    5    4 1    
     8   24    4 1    
     9    6    5 1    
    10   14    5 1    
    11   25    5 1    
    12   20    6 1    
    13   21    6 1    
    14   26    6 1    
    15   15    7 ar   
    16   19    8 2    
    17   15    9 ar   
    18   19   10 2    
    19   12   11 ar   
    20   16   11 ar   
    21   27   11 1    
    22   17   12 ar   
    23   28   12 1    
    24   14   13 1    
    25   20   13 2    
    26   29   13 1    
    27   30   14 1    
    28   31   14 1    
    29   16   15 1    
    30   18   16 ar   
    31   19   17 1    
    32   21   17 ar   
    33   21   18 ar   
    34   32   20 1    
@<TRIPOS>SUBSTRUCTURE
     1 BR01        1 GROUP   
@<TRIPOS>SET

