#    Name: 3HFJ_1_CAVITY_N1_6.mol2
#    Modification time : Mon Mar 10 22:46:49 2014

@<TRIPOS>MOLECULE
3HFJ_1_CAVITY_N1_6.mol2
   15     0     5     0     0
SMALL
NO_CHARGES


@<TRIPOS>ATOM
      1 N          17.3951   -4.0788   -4.2828 N.2       2 ALA2        0.0000 
      2 N          17.6747   -3.7902   -5.7280 N.2       2 ALA2        0.0000 
      3 O          16.4724   -5.1915   -4.6835 O.2       2 ALA2        0.0000 
      4 OG         16.7519   -4.9028   -6.1287 O.2       1 SER1        0.0000 
      5 CA         15.8292   -6.0154   -6.5294 C.3       4 GLY6        0.0000 
      6 OG         16.1087   -5.7268   -7.9746 O.2       1 SER1        0.0000 
      7 CZ         15.1860   -6.8394   -8.3753 C.ar      3 PHE5        0.0000 
      8 CA         16.2461   -3.1151   -4.3126 C.3       4 GLY6        0.0000 
      9 CA         16.5256   -2.8265   -5.7577 C.3       4 GLY6        0.0000 
     10 O          15.3233   -4.2278   -4.7133 O.2       2 ALA2        0.0000 
     11 DU         15.6028   -3.9391   -6.1585 H         5 CUB7        0.0000 
     12 OG         15.8824   -3.6504   -7.6036 O.2       1 SER1        0.0000 
     13 CA         14.6801   -5.0517   -6.5592 C.3       4 GLY6        0.0000 
     14 OG         14.9596   -4.7631   -8.0044 O.2       1 SER1        0.0000 
     15 CA         13.7573   -6.1644   -6.9599 C.3       4 GLY6        0.0000 
@<TRIPOS>BOND
@<TRIPOS>SUBSTRUCTURE
     1 SER1        4 GROUP   
     2 ALA2        1 GROUP   
     3 PHE5        7 GROUP   
     4 GLY6        5 GROUP   
     5 CUB7       11 GROUP   
@<TRIPOS>SET

