#    Name: 3HFJ_1_CAVITY_N1_ALL.mol2
#    Modification time : Mon Mar 10 22:46:49 2014

@<TRIPOS>MOLECULE
3HFJ_1_CAVITY_N1_ALL.mol2
   87     0     6     0     0
SMALL
NO_CHARGES


@<TRIPOS>ATOM
      1 N          17.3951   -4.0788   -4.2828 N.2       2 ALA2        0.0000 
      2 N          17.6747   -3.7902   -5.7280 N.2       2 ALA2        0.0000 
      3 O          16.4724   -5.1915   -4.6835 O.2       2 ALA2        0.0000 
      4 OG         16.7519   -4.9028   -6.1287 O.2       1 SER1        0.0000 
      5 CA         15.8292   -6.0154   -6.5294 C.3       5 GLY6        0.0000 
      6 OG         16.1087   -5.7268   -7.9746 O.2       1 SER1        0.0000 
      7 CZ         15.1860   -6.8394   -8.3753 C.ar      4 PHE5        0.0000 
      8 CA         15.6608   -6.5087  -16.0019 C.3       5 GLY6        0.0000 
      9 N          15.9403   -6.2200  -17.4471 N.2       2 ALA2        0.0000 
     10 CA         17.1688   -2.0025   -3.9118 C.3       5 GLY6        0.0000 
     11 CA         15.9665   -3.4038   -2.8674 C.3       5 GLY6        0.0000 
     12 CA         16.2461   -3.1151   -4.3126 C.3       5 GLY6        0.0000 
     13 CA         16.5256   -2.8265   -5.7577 C.3       5 GLY6        0.0000 
     14 CA         16.8051   -2.5378   -7.2029 C.3       5 GLY6        0.0000 
     15 O          15.3233   -4.2278   -4.7133 O.2       2 ALA2        0.0000 
     16 DU         15.6028   -3.9391   -6.1585 H         6 CUB7        0.0000 
     17 OG         15.8824   -3.6504   -7.6036 O.2       1 SER1        0.0000 
     18 OG         16.1619   -3.3618   -9.0488 O.2       1 SER1        0.0000 
     19 CA         14.6801   -5.0517   -6.5592 C.3       5 GLY6        0.0000 
     20 OG         14.9596   -4.7631   -8.0044 O.2       1 SER1        0.0000 
     21 NZ         15.2391   -4.4744   -9.4495 N.2       3 LYS4        0.0000 
     22 NZ         16.3572   -3.3197  -15.2302 N.2       3 LYS4        0.0000 
     23 CA         13.7573   -6.1644   -6.9599 C.3       5 GLY6        0.0000 
     24 CZ         14.0369   -5.8757   -8.4051 C.ar      4 PHE5        0.0000 
     25 N          14.3164   -5.5870   -9.8503 N.2       2 ALA2        0.0000 
     26 NZ         15.1550   -4.7210  -14.1858 N.2       3 LYS4        0.0000 
     27 CA         15.4345   -4.4324  -15.6310 C.3       5 GLY6        0.0000 
     28 O          15.7140   -4.1437  -17.0761 O.2       2 ALA2        0.0000 
     29 CA         13.1141   -6.9883   -8.8058 C.3       5 GLY6        0.0000 
     30 CA         14.2322   -5.8337  -14.5865 C.3       5 GLY6        0.0000 
     31 CA         14.5117   -5.5450  -16.0317 C.3       5 GLY6        0.0000 
     32 O          14.7912   -5.2563  -17.4769 O.2       2 ALA2        0.0000 
     33 N          13.5890   -6.6576  -16.4324 N.2       2 ALA2        0.0000 
     34 CA         16.2992   -0.7501   -5.3868 C.3       5 GLY6        0.0000 
     35 CA         15.0970   -2.1514   -4.3423 C.3       5 GLY6        0.0000 
     36 CA         15.3765   -1.8628   -5.7875 C.3       5 GLY6        0.0000 
     37 CA         15.6560   -1.5741   -7.2327 C.3       5 GLY6        0.0000 
     38 CA         14.1742   -3.2641   -4.7430 C.3       5 GLY6        0.0000 
     39 CA         14.4537   -2.9754   -6.1882 C.3       5 GLY6        0.0000 
     40 DU         14.7333   -2.6867   -7.6334 H         6 CUB7        0.0000 
     41 N          15.0128   -2.3981   -9.0786 N.2       2 ALA2        0.0000 
     42 N          15.2923   -2.1094  -10.5238 N.2       2 ALA2        0.0000 
     43 CA         13.2515   -4.3767   -5.1438 C.3       5 GLY6        0.0000 
     44 DU         13.5310   -4.0880   -6.5889 H         6 CUB7        0.0000 
     45 DU         13.8105   -3.7994   -8.0341 H         6 CUB7        0.0000 
     46 DU         14.0900   -3.5107   -9.4793 H         6 CUB7        0.0000 
     47 NZ         14.3696   -3.2220  -10.9245 N.2       3 LYS4        0.0000 
     48 NZ         14.6491   -2.9334  -12.3697 N.2       3 LYS4        0.0000 
     49 NZ         14.9286   -2.6447  -13.8148 N.2       3 LYS4        0.0000 
     50 CA         15.2081   -2.3560  -15.2600 C.3       5 GLY6        0.0000 
     51 CA         12.3287   -5.4894   -5.5445 C.3       5 GLY6        0.0000 
     52 NZ         12.6083   -5.2007   -6.9897 N.2       3 LYS4        0.0000 
     53 NZ         12.8878   -4.9120   -8.4348 N.2       3 LYS4        0.0000 
     54 NZ         13.1673   -4.6233   -9.8800 N.2       3 LYS4        0.0000 
     55 NZ         13.4468   -4.3347  -11.3252 N.2       3 LYS4        0.0000 
     56 NZ         13.7263   -4.0460  -12.7704 N.2       3 LYS4        0.0000 
     57 NZ         14.0059   -3.7573  -14.2155 N.2       3 LYS4        0.0000 
     58 O          14.2854   -3.4687  -15.6607 O.2       2 ALA2        0.0000 
     59 CA         12.8036   -5.1586  -13.1711 C.3       5 GLY6        0.0000 
     60 N          13.0831   -4.8700  -14.6163 N.2       2 ALA2        0.0000 
     61 O          13.3626   -4.5813  -16.0614 O.2       2 ALA2        0.0000 
     62 N          12.4399   -5.6939  -16.4622 N.2       2 ALA2        0.0000 
     63 CA         14.5069   -0.6104   -7.2624 C.3       5 GLY6        0.0000 
     64 CA         13.3047   -2.0117   -6.2180 C.3       5 GLY6        0.0000 
     65 CA         13.5842   -1.7230   -7.6632 C.3       5 GLY6        0.0000 
     66 N          13.8637   -1.4344   -9.1083 N.2       2 ALA2        0.0000 
     67 N          14.1432   -1.1457  -10.5535 N.2       2 ALA2        0.0000 
     68 OG         14.4227   -0.8570  -11.9987 O.2       1 SER1        0.0000 
     69 CA         12.1024   -3.4130   -5.1735 C.3       5 GLY6        0.0000 
     70 DU         12.3819   -3.1244   -6.6187 H         6 CUB7        0.0000 
     71 DU         12.6614   -2.8357   -8.0639 H         6 CUB7        0.0000 
     72 DU         12.9410   -2.5470   -9.5091 H         6 CUB7        0.0000 
     73 DU         13.2205   -2.2583  -10.9542 H         6 CUB7        0.0000 
     74 O          13.5000   -1.9697  -12.3994 O.2       2 ALA2        0.0000 
     75 O          13.7795   -1.6810  -13.8446 O.2       2 ALA2        0.0000 
     76 CA         11.1796   -4.5257   -5.5742 C.3       5 GLY6        0.0000 
     77 NZ         11.4592   -4.2370   -7.0194 N.2       3 LYS4        0.0000 
     78 NZ         11.7387   -3.9483   -8.4646 N.2       3 LYS4        0.0000 
     79 NZ         12.0182   -3.6596   -9.9098 N.2       3 LYS4        0.0000 
     80 NZ         12.2977   -3.3710  -11.3550 N.2       3 LYS4        0.0000 
     81 NZ         12.5772   -3.0823  -12.8001 N.2       3 LYS4        0.0000 
     82 O          12.8568   -2.7936  -14.2453 O.2       2 ALA2        0.0000 
     83 O          13.1363   -2.5050  -15.6905 O.2       2 ALA2        0.0000 
     84 NZ         11.6545   -4.1949  -13.2009 N.2       3 LYS4        0.0000 
     85 NZ         11.9340   -3.9063  -14.6460 N.2       3 LYS4        0.0000 
     86 CA         12.2135   -3.6176  -16.0912 C.3       5 GLY6        0.0000 
     87 N          11.0113   -5.0189  -15.0468 N.2       2 ALA2        0.0000 
@<TRIPOS>BOND
@<TRIPOS>SUBSTRUCTURE
     1 SER1        4 GROUP   
     2 ALA2        1 GROUP   
     3 LYS4       21 GROUP   
     4 PHE5        7 GROUP   
     5 GLY6        5 GROUP   
     6 CUB7       16 GROUP   
@<TRIPOS>SET

