#    Name: 3hfj_DZ9_1_INTS_M
#    Modification time : Tue Mar 25 14:16:08 2014

@<TRIPOS>MOLECULE
3hfj_DZ9_1_INTS_M
   45     0     3     0     0
SMALL
NO_CHARGES


@<TRIPOS>ATOM
      1 CA         14.0980  -21.7220  -10.5040 C.3       1 GLC5        0.0000 
      2 CA         12.6710  -20.4740   -9.4420 C.3       3 GLL5        0.0000 
      3 CA         15.5250  -22.9700  -11.5660 C.3       2 GLP5        0.0000 
      4 CA         12.0555  -21.0665  -11.1385 C.3       1 GLC5        0.0000 
      5 CA         11.4400  -21.6590  -12.8350 C.3       2 GLP5        0.0000 
      6 CA         13.6100  -19.2365  -11.0130 C.3       1 GLC5        0.0000 
      7 CA         14.5490  -17.9990  -12.5840 C.3       2 GLP5        0.0000 
      8 CA         11.4705  -19.4390   -8.1275 C.3       1 GLC5        0.0000 
      9 CA         10.2700  -18.4040   -6.8130 C.3       2 GLP5        0.0000 
     10 CA         18.1670  -11.9110   -9.1975 C.3       1 GLC5        0.0000 
     11 CA         17.7000  -12.9690   -7.4910 C.3       3 GLL5        0.0000 
     12 CA         18.6340  -10.8530  -10.9040 C.3       2 GLP5        0.0000 
     13 CA         21.4495  -13.6500   -8.8360 C.3       1 GLC5        0.0000 
     14 CA         20.0030  -13.6540   -7.4380 C.3       3 GLL5        0.0000 
     15 CA         22.8960  -13.6460  -10.2340 C.3       2 GLP5        0.0000 
     16 CA         21.9775  -11.8750   -8.3015 C.3       1 GLC5        0.0000 
     17 CA         20.3520  -12.3440   -7.1160 C.3       3 GLL5        0.0000 
     18 CA         23.6030  -11.4060   -9.4870 C.3       2 GLP5        0.0000 
     19 CA         22.2455  -10.4225   -8.0970 C.3       1 GLC5        0.0000 
     20 CA         20.8880   -9.4390   -6.7070 C.3       3 GLL5        0.0000 
     21 CA         21.7725   -6.1840   -6.3850 C.3       1 GLC5        0.0000 
     22 CA         20.8850   -8.1610   -6.2500 C.3       3 GLL5        0.0000 
     23 CA         22.6600   -4.2070   -6.5200 C.3       2 GLP5        0.0000 
     24 CA         13.4435  -17.1855   -7.1365 C.3       1 GLC5        0.0000 
     25 CA         13.5910  -16.9500   -9.2190 C.3       3 GLL5        0.0000 
     26 CA         13.2620  -16.7250   -5.1130 C.3       2 GLP5        0.0000 
     27 CA         13.6057  -20.4582   -8.0341 C.3       1 GLC5        0.0000 
     28 CA         14.3090  -21.3100   -6.6810 C.3       2 GLP5        0.0000 
     29 CA         11.4415  -17.3135  -12.2350 C.3       1 GLC5        0.0000 
     30 CA         11.4870  -18.5560  -10.1510 C.3       3 GLL5        0.0000 
     31 CA         11.4320  -16.7630  -14.2540 C.3       2 GLP5        0.0000 
     32 CA         12.8975  -15.0862   -9.1973 C.3       1 GLC5        0.0000 
     33 CA         13.0290  -13.3100   -8.7600 C.3       2 GLP5        0.0000 
     34 CA         14.7345  -13.8835   -8.3442 C.3       1 GLC5        0.0000 
     35 CA         16.1730  -13.6700   -7.7810 C.3       3 GLL5        0.0000 
     36 CA         16.1047  -11.5732   -7.0545 C.3       1 GLC5        0.0000 
     37 CA         15.2730   -9.8270   -6.4730 C.3       2 GLP5        0.0000 
     38 CA         17.4022  -10.2705   -6.6465 C.3       1 GLC5        0.0000 
     39 CA         19.3570  -11.3670   -6.9970 C.3       3 GLL5        0.0000 
     40 CA         19.2071  -10.9056   -8.8769 C.3       1 GLC5        0.0000 
     41 CA         18.6060   -8.5995   -3.8907 C.3       1 GLC5        0.0000 
     42 CA         18.6310   -8.9600   -5.9410 C.3       3 GLL5        0.0000 
     43 CA         18.0320   -8.8750   -1.9220 C.3       2 GLP5        0.0000 
     44 CA         17.3340   -8.3160   -5.6917 C.3       1 GLC5        0.0000 
     45 CA         15.4880   -8.3080   -5.5240 C.3       2 GLP5        0.0000 
@<TRIPOS>BOND
@<TRIPOS>SUBSTRUCTURE
     1 GLC5        1 GROUP        1 X    GLC  0     ROOT GLC X 6
     2 GLP5        3 GROUP        1 Y    GLP  0     ROOT GLP Y 13
     3 GLL5        2 GROUP        1 Z    GLL  0     ROOT GLL Z 20
@<TRIPOS>SET

