#    Name: 3hfj_DZ9_1_ligand
#    Modification time : Tue Mar 25 14:16:08 2014

@<TRIPOS>MOLECULE
3hfj_DZ9_1_ligand
   37    40     1     0     0
SMALL
NO_CHARGES


@<TRIPOS>ATOM
      1 CAL        13.6590  -18.3420   -9.1010 C.ar      1 DZ9202      0.0000 
      2 CAR        12.6090  -19.1360   -9.5640 C.ar      1 DZ9202      0.0000 
      3 FAC        12.6710  -20.4740   -9.4420 F         1 DZ9202      0.0000 
      4 CAG        11.4870  -18.5560  -10.1510 C.ar      1 DZ9202      0.0000 
      5 CAE        11.4150  -17.1720  -10.2810 C.ar      1 DZ9202      0.0000 
      6 CAH        12.4670  -16.3780   -9.8190 C.ar      1 DZ9202      0.0000 
      7 CAS        13.5910  -16.9500   -9.2190 C.ar      1 DZ9202      0.0000 
      8 NAN        14.5750  -16.1270   -8.8170 N.am      1 DZ9202      0.0000 
      9 CAQ        15.8240  -16.4530   -8.4380 C.2       1 DZ9202      0.0000 
     10 OAB        16.2830  -17.5940   -8.3710 O.2       1 DZ9202      0.0000 
     11 CAW        16.7070  -15.2440   -8.0760 C.2       1 DZ9202      0.0000 
     12 CAT        18.0970  -15.2440   -7.9610 C.2       1 DZ9202      0.0000 
     13 NAA        18.8290  -16.3400   -8.1380 N.pl3     1 DZ9202      0.0000 
     14 SAP        16.1730  -13.6700   -7.7810 S.3       1 DZ9202      0.0000 
     15 CAY        17.7000  -12.9690   -7.4910 C.ar      1 DZ9202      0.0000 
     16 NAM        18.0620  -11.7050   -7.1770 N.ar      1 DZ9202      0.0000 
     17 CAX        18.6640  -13.9910   -7.6350 C.ar      1 DZ9202      0.0000 
     18 CAK        20.0030  -13.6540   -7.4380 C.ar      1 DZ9202      0.0000 
     19 CAJ        20.3520  -12.3440   -7.1160 C.ar      1 DZ9202      0.0000 
     20 CAU        19.3570  -11.3670   -6.9970 C.ar      1 DZ9202      0.0000 
     21 CAV        19.7060  -10.0610   -6.6430 C.2       1 DZ9202      0.0000 
     22 CAI        20.8880   -9.4390   -6.7070 C.2       1 DZ9202      0.0000 
     23 CAD        20.8850   -8.1610   -6.2500 C.2       1 DZ9202      0.0000 
     24 CAF        19.7290   -7.6880   -5.7780 C.2       1 DZ9202      0.0000 
     25 SAO        18.6310   -8.9600   -5.9410 S.3       1 DZ9202      0.0000 
     26 H          14.4836  -18.7791   -8.6727 H         1 DZ9202      0.0000 
     27 H          10.7180  -19.1459  -10.4856 H         1 DZ9202      0.0000 
     28 H          10.5947  -16.7356  -10.7135 H         1 DZ9202      0.0000 
     29 H          12.4129  -15.3511   -9.9227 H         1 DZ9202      0.0000 
     30 H          14.3294  -15.0564   -8.7951 H         1 DZ9202      0.0000 
     31 H          18.3220  -17.1849   -8.3087 H         1 DZ9202      0.0000 
     32 H          19.8204  -16.2204   -8.0845 H         1 DZ9202      0.0000 
     33 H          20.7317  -14.3721   -7.5304 H         1 DZ9202      0.0000 
     34 H          21.3349  -12.0936   -6.9660 H         1 DZ9202      0.0000 
     35 H          21.7226   -9.8765   -7.0652 H         1 DZ9202      0.0000 
     36 H          21.7363   -7.5939   -6.2708 H         1 DZ9202      0.0000 
     37 H          19.4015   -6.9336   -5.4239 H         1 DZ9202      0.0000 
@<TRIPOS>BOND
     1    2    1 ar   
     2    7    1 ar   
     3   26    1 1    
     4    3    2 1    
     5    4    2 ar   
     6    5    4 ar   
     7   27    4 1    
     8    6    5 ar   
     9   28    5 1    
    10    7    6 ar   
    11   29    6 1    
    12    8    7 1    
    13    9    8 am   
    14   30    8 1    
    15   10    9 2    
    16   11    9 1    
    17   12   11 2    
    18   14   11 1    
    19   13   12 1    
    20   17   12 1    
    21   31   13 1    
    22   32   13 1    
    23   15   14 1    
    24   16   15 ar   
    25   17   15 ar   
    26   20   16 ar   
    27   18   17 ar   
    28   19   18 ar   
    29   33   18 1    
    30   20   19 ar   
    31   34   19 1    
    32   21   20 1    
    33   22   21 2    
    34   25   21 1    
    35   23   22 1    
    36   35   22 1    
    37   24   23 2    
    38   36   23 1    
    39   25   24 1    
    40   37   24 1    
@<TRIPOS>SUBSTRUCTURE
     1 DZ9202      1 GROUP   
@<TRIPOS>SET

