#    Name: 1i7a_PHE_ALA_PHE_1_INTS_M
#    Modification time : Tue Mar 25 06:45:04 2014

@<TRIPOS>MOLECULE
1i7a_PHE_ALA_PHE_1_INTS_M
   45     0     3     0     0
SMALL
NO_CHARGES


@<TRIPOS>ATOM
      1 CA         12.1960   13.1575   36.6895 C.3       1 GLC5        0.0000 
      2 CA         10.8150   14.0650   38.0780 C.3       3 GLL5        0.0000 
      3 CA         13.5770   12.2500   35.3010 C.3       2 GLP5        0.0000 
      4 CA          9.3420   15.5790   38.2925 C.3       1 GLC5        0.0000 
      5 CA          7.8690   17.0930   38.5070 C.3       2 GLP5        0.0000 
      6 CA          9.2465   15.7895   39.4310 C.3       1 GLC5        0.0000 
      7 CA         10.9080   15.1500   39.1590 C.3       3 GLL5        0.0000 
      8 CA          7.5850   16.4290   39.7030 C.3       2 GLP5        0.0000 
      9 CA         12.1965   12.1410   43.7905 C.3       1 GLC5        0.0000 
     10 CA         10.8050   12.9950   42.3150 C.3       3 GLL5        0.0000 
     11 CA         13.5880   11.2870   45.2660 C.3       2 GLP5        0.0000 
     12 CA         12.0815   11.4145   41.6285 C.3       1 GLC5        0.0000 
     13 CA         13.3580    9.8340   40.9420 C.3       2 GLP5        0.0000 
     14 CA         12.5945   16.6205   43.8645 C.3       1 GLC5        0.0000 
     15 CA         12.0550   14.9850   42.7910 C.3       3 GLL5        0.0000 
     16 CA         13.1340   18.2560   44.9380 C.3       2 GLP5        0.0000 
     17 CA          8.9835   10.5670   36.9825 C.3       1 GLC5        0.0000 
     18 CA          7.7120   12.3680   36.6810 C.3       3 GLL5        0.0000 
     19 CA         10.2550    8.7660   37.2840 C.3       2 GLP5        0.0000 
     20 CA          7.5485   14.4595   36.9415 C.3       1 GLC5        0.0000 
     21 CA          7.3850   16.5510   37.2020 C.3       2 GLP5        0.0000 
     22 CA          8.0830   13.8250   34.5060 C.3       1 GLC5        0.0000 
     23 CA          7.5390   11.9510   35.2370 C.3       3 GLL5        0.0000 
     24 CA          8.6270   15.6990   33.7750 C.3       2 GLP5        0.0000 
     25 CA          7.2855    8.3170   38.4160 C.3       1 GLC5        0.0000 
     26 CA          5.7490    9.4980   38.2710 C.3       3 GLL5        0.0000 
     27 CA          8.8220    7.1360   38.5610 C.3       2 GLP5        0.0000 
     28 CA          4.4490   10.0810   36.5920 C.3       1 GLC5        0.0000 
     29 CA          3.1490   10.6640   34.9130 C.3       2 GLP5        0.0000 
     30 CA          5.2205   13.4375   40.7270 C.3       1 GLC5        0.0000 
     31 CA          6.3050   11.4800   40.6290 C.3       3 GLL5        0.0000 
     32 CA          4.1360   15.3950   40.8250 C.3       2 GLP5        0.0000 
     33 CA         12.9448   13.5162   44.3042 C.3       1 GLC5        0.0000 
     34 CA         11.5120   13.7800   43.2140 C.3       3 GLL5        0.0000 
     35 CA         14.1060   12.6500   45.6060 C.3       2 GLP5        0.0000 
     36 CA          8.3388   10.8858   34.7730 C.3       1 GLC5        0.0000 
     37 CA          9.0520    9.6120   33.5870 C.3       2 GLP5        0.0000 
     38 CA          5.7792   12.5802   35.6325 C.3       1 GLC5        0.0000 
     39 CA          3.9330   13.0010   35.3060 C.3       2 GLP5        0.0000 
     40 CA          4.8185    8.5150   43.6190 C.3       1 GLC5        0.0000 
     41 CA          5.2070    9.7250   41.8250 C.3       3 GLL5        0.0000 
     42 CA          4.1270    7.0980   44.8230 C.3       2 GLP5        0.0000 
     43 CA          4.7693   11.5798   44.2172 C.3       1 GLC5        0.0000 
     44 CA          5.8130   10.1390   43.0050 C.3       3 GLL5        0.0000 
     45 CA          3.2980   12.4760   45.4350 C.3       2 GLP5        0.0000 
@<TRIPOS>BOND
@<TRIPOS>SUBSTRUCTURE
     1 GLC5        1 GROUP        1 X    GLC  0     ROOT GLC X 6
     2 GLP5        3 GROUP        1 Y    GLP  0     ROOT GLP Y 13
     3 GLL5        2 GROUP        1 Z    GLL  0     ROOT GLL Z 20
@<TRIPOS>SET

