#    Name: 1i7a_PHE_ALA_PHE_1_ligand
#    Modification time : Tue Mar 25 06:45:05 2014

@<TRIPOS>MOLECULE
1i7a_PHE_ALA_PHE_1_ligand
   53    54     3     0     0
SMALL
NO_CHARGES


@<TRIPOS>ATOM
      1 N          11.1280   14.6490   36.7760 N.4       1 PHE201      0.0000
      2 CA         10.8150   14.0650   38.0780 C.3       1 PHE201      0.0000
      3 C           9.3870   13.5180   38.0000 C.2       1 PHE201      0.0000
      4 O           8.6100   13.6500   38.9450 O.2       1 PHE201      0.0000
      5 CB         10.9080   15.1500   39.1590 C.3       1 PHE201      0.0000
      6 CG         11.1700   14.6290   40.5560 C.ar      1 PHE201      0.0000
      7 CD1        10.6350   13.4180   40.9940 C.ar      1 PHE201      0.0000
      8 CD2        11.8830   15.4040   41.4660 C.ar      1 PHE201      0.0000
      9 CE1        10.8050   12.9950   42.3150 C.ar      1 PHE201      0.0000
     10 CE2        12.0550   14.9850   42.7910 C.ar      1 PHE201      0.0000
     11 CZ         11.5120   13.7800   43.2140 C.ar      1 PHE201      0.0000
     12 HA         11.4783   13.2720   38.3121 H         1 PHE201      0.0000
     13 HB2         9.9652   15.7288   39.1562 H         1 PHE201      0.0000
     14 HB3        11.7103   15.8575   38.8769 H         1 PHE201      0.0000
     15 HD1        10.1060   12.8251   40.3345 H         1 PHE201      0.0000
     16 HD2        12.2931   16.3029   41.1628 H         1 PHE201      0.0000
     17 HE1        10.4025   12.0973   42.6175 H         1 PHE201      0.0000
     18 HE2        12.5841   15.5737   43.4457 H         1 PHE201      0.0000
     19 HZ         11.6328   13.4720   44.1854 H         1 PHE201      0.0000
     20 HNCA       12.0529   15.0286   36.7519 H         1 PHE201      0.0000
     21 H          11.0695   13.9726   36.0418 H         1 PHE201      0.0000
     22 H          10.5003   15.3913   36.5413 H         1 PHE201      0.0000
     23 N           9.0480   12.9010   36.8730 N.am      2 ALA202      0.0000
     24 CA          7.7120   12.3680   36.6810 C.3       2 ALA202      0.0000
     25 C           7.3980   11.1930   37.6060 C.2       2 ALA202      0.0000
     26 O           8.2220   10.8020   38.4280 O.2       2 ALA202      0.0000
     27 CB          7.5390   11.9510   35.2370 C.3       2 ALA202      0.0000
     28 H           9.7115   12.7711   36.0852 H         2 ALA202      0.0000
     29 HA          6.9686   13.1520   36.8800 H         2 ALA202      0.0000
     30 HB1         7.6617   12.7210   34.6108 H         2 ALA202      0.0000
     31 HB2         8.1999   11.2491   34.9714 H         2 ALA202      0.0000
     32 HB3         6.6281   11.5759   35.0653 H         2 ALA202      0.0000
     33 N           6.1920   10.6450   37.4730 N.am      3 PHE203      0.0000
     34 CA          5.7490    9.4980   38.2710 C.3       3 PHE203      0.0000
     35 C           5.0640    8.4580   37.3840 C.2       3 PHE203      0.0000
     36 O           5.2550    8.4370   36.1640 O.2       3 PHE203      0.0000
     37 CB          4.7760    9.9370   39.3680 C.3       3 PHE203      0.0000
     38 CG          5.4450   10.3890   40.6300 C.ar      3 PHE203      0.0000
     39 CD1         6.3050   11.4800   40.6290 C.ar      3 PHE203      0.0000
     40 CD2         5.2070    9.7250   41.8250 C.ar      3 PHE203      0.0000
     41 CE1         6.9170   11.9010   41.8040 C.ar      3 PHE203      0.0000
     42 CE2         5.8130   10.1390   43.0050 C.ar      3 PHE203      0.0000
     43 CZ          6.6680   11.2280   42.9940 C.ar      3 PHE203      0.0000
     44 HNCA        5.4903   11.0074   36.7856 H         3 PHE203      0.0000
     45 HA          6.5963    9.0207   38.7489 H         3 PHE203      0.0000
     46 H           4.4524    7.8147   37.9384 H         3 PHE203      0.0000
     47 HB2         4.0966    9.0935   39.5890 H         3 PHE203      0.0000
     48 HB3         4.1458   10.7527   38.9687 H         3 PHE203      0.0000
     49 HD1         6.4918   11.9837   39.7465 H         3 PHE203      0.0000
     50 HD2         4.5691    8.9096   41.8386 H         3 PHE203      0.0000
     51 HE1         7.5525   12.7086   41.7924 H         3 PHE203      0.0000
     52 HE2         5.6256    9.6368   43.8822 H         3 PHE203      0.0000
     53 HZ          7.1193   11.5401   43.8641 H         3 PHE203      0.0000
@<TRIPOS>BOND
     1    2    1 1
     2   20    1 1
     3   21    1 1
     4   22    1 1
     5    3    2 1
     6    5    2 1
     7   12    2 1
     8    4    3 2
     9    6    5 1
    10   13    5 1
    11   14    5 1
    12    7    6 ar
    13    8    6 ar
    14    9    7 ar
    15   15    7 1
    16   10    8 ar
    17   16    8 1
    18   11    9 ar
    19   17    9 1
    20   11   10 ar
    21   18   10 1
    22   19   11 1
    23   24   23 1
    24   28   23 1
    25   25   24 1
    26   27   24 1
    27   29   24 1
    28   26   25 2
    29   30   27 1
    30   31   27 1
    31   32   27 1
    32   34   33 1
    33   44   33 1
    34   35   34 1
    35   37   34 1
    36   45   34 1
    37   36   35 2
    38   46   35 1
    39   38   37 1
    40   47   37 1
    41   48   37 1
    42   39   38 ar
    43   40   38 ar
    44   41   39 ar
    45   49   39 1
    46   42   40 ar
    47   50   40 1
    48   43   41 ar
    49   51   41 1
    50   43   42 ar
    51   52   42 1
    52   53   43 1
    53   23    3 am
    54   33   25 am
@<TRIPOS>SUBSTRUCTURE
     1 PHE201      1 RESIDUE
     2 ALA202     23 RESIDUE
     3 PHE203     33 RESIDUE
@<TRIPOS>SET

