#    Name: 1vhd_NAP_2_INTS_M
#    Modification time : Tue Mar 25 07:54:09 2014

@<TRIPOS>MOLECULE
1vhd_NAP_2_INTS_M
   94     0     9     0     0
SMALL
NO_CHARGES


@<TRIPOS>ATOM
      1 N         -16.8645    4.0210  -14.6740 N.am      2 SEC2        0.0000 
      2 N         -15.5970    3.5150  -14.6630 N.am      8 SEL2        0.0000 
      3 N         -18.1320    4.5270  -14.6850 N.am      5 SEP2        0.0000 
      4 N         -17.5485    2.8175  -12.4140 N.am      2 SEC2        0.0000 
      5 N         -16.4810    1.8420  -12.9260 N.am      8 SEL2        0.0000 
      6 N         -18.6160    3.7930  -11.9020 N.am      5 SEP2        0.0000 
      7 CA        -11.5870   -2.0150  -14.1855 C.3       3 GLC5        0.0000 
      8 CA        -13.2760   -2.2820  -15.2900 C.3       9 GLL5        0.0000 
      9 CA         -9.8980   -1.7480  -13.0810 C.3       6 GLP5        0.0000 
     10 N         -14.6855   -3.7050  -10.7425 N.am      2 SEC2        0.0000 
     11 N         -13.8620   -3.5420  -11.8560 N.am      8 SEL2        0.0000 
     12 N         -15.5090   -3.8680   -9.6290 N.am      5 SEP2        0.0000 
     13 CA        -12.7385   -2.6805  -11.2025 C.3       3 GLC5        0.0000 
     14 CA        -12.8960   -4.3930  -12.3210 C.3       9 GLL5        0.0000 
     15 CA        -12.5810   -0.9680  -10.0840 C.3       6 GLP5        0.0000 
     16 CA        -10.5470   -4.6390  -10.9385 C.3       3 GLC5        0.0000 
     17 CA        -12.2000   -5.5000  -11.7730 C.3       9 GLL5        0.0000 
     18 CA         -8.8940   -3.7780  -10.1040 C.3       6 GLP5        0.0000 
     19 O         -13.5055   -7.0285  -10.6795 O.2       1 ALC1        0.0000 
     20 O         -12.4510   -5.9040  -10.5270 O.2       7 ALL1        0.0000 
     21 O         -14.5600   -8.1530  -10.8320 O.2       4 ALP1        0.0000 
     22 O         -12.4990   -4.9240   -9.3820 O.2       1 ALC1        0.0000 
     23 O         -12.5470   -3.9440   -8.2370 O.2       4 ALP1        0.0000 
     24 N         -10.9820   -7.3585  -11.9165 N.am      2 SEC2        0.0000 
     25 N         -11.2740   -6.1450  -12.5280 N.am      8 SEL2        0.0000 
     26 N         -10.6900   -8.5720  -11.3050 N.am      5 SEP2        0.0000 
     27 CA         -9.3110   -5.5090  -12.7810 C.3       3 GLC5        0.0000 
     28 CA        -11.0210   -5.7340  -13.7910 C.3       9 GLL5        0.0000 
     29 CA         -7.6010   -5.2840  -11.7710 C.3       6 GLP5        0.0000 
     30 CA        -10.4595   -3.7410  -13.4360 C.3       3 GLC5        0.0000 
     31 N         -15.5405    2.6265  -10.1005 N.am      2 SEC2        0.0000 
     32 N         -14.1850    2.5410  -10.3310 N.am      8 SEL2        0.0000 
     33 N         -16.8960    2.7120   -9.8700 N.am      5 SEP2        0.0000 
     34 N         -13.7270    1.6170   -9.4000 N.am      2 SEC2        0.0000 
     35 N         -13.2690    0.6930   -8.4690 N.am      5 SEP2        0.0000 
     36 CA        -18.0185    5.2755  -12.4670 C.3       3 GLC5        0.0000 
     37 CA        -16.3730    6.5650  -12.0370 C.3       9 GLL5        0.0000 
     38 CA        -19.6640    3.9860  -12.8970 C.3       6 GLP5        0.0000 
     39 CA        -14.3590    9.3800  -10.9155 C.3       3 GLC5        0.0000 
     40 CA        -16.2770    8.9180  -11.5400 C.3       9 GLL5        0.0000 
     41 CA        -12.4410    9.8420  -10.2910 C.3       6 GLP5        0.0000 
     42 CA        -17.4290    6.0275  -10.0790 C.3       3 GLC5        0.0000 
     43 CA        -17.1820    8.1380  -10.4960 C.3       9 GLL5        0.0000 
     44 CA        -17.6760    3.9170   -9.6620 C.3       6 GLP5        0.0000 
     45 CA        -15.8635    6.6960   -9.3925 C.3       3 GLC5        0.0000 
     46 CA        -14.5450    5.2540   -8.2890 C.3       6 GLP5        0.0000 
     47 CA        -18.4185    6.9335   -6.1715 C.3       3 GLC5        0.0000 
     48 CA        -17.6010    8.8510   -6.8170 C.3       9 GLL5        0.0000 
     49 CA        -19.2360    5.0160   -5.5260 C.3       6 GLP5        0.0000 
     50 N         -19.5635    9.0875   -3.7870 N.am      2 SEC2        0.0000 
     51 N         -18.5990    9.6190   -4.7780 N.am      8 SEL2        0.0000 
     52 N         -20.5280    8.5560   -2.7960 N.am      5 SEP2        0.0000 
     53 O         -20.4545    7.5430   -7.0205 O.2       1 ALC1        0.0000 
     54 O         -19.8520    8.3070   -6.0340 O.2       7 ALL1        0.0000 
     55 O         -21.0570    6.7790   -8.0070 O.2       4 ALP1        0.0000 
     56 O         -20.1900    8.4315   -4.4150 O.2       1 ALC1        0.0000 
     57 O         -20.5280    8.5560   -2.7960 O.2       4 ALP1        0.0000 
     58 CA        -15.8930    9.9915   -4.4565 C.3       3 GLC5        0.0000 
     59 CA        -16.2600    9.0390   -6.4590 C.3       9 GLL5        0.0000 
     60 CA        -15.5260   10.9440   -2.4540 C.3       6 GLP5        0.0000 
     61 CA        -15.0200    6.9560   -8.4785 C.3       3 GLC5        0.0000 
     62 CA        -15.4950    8.6580   -8.6680 C.3       9 GLL5        0.0000 
     63 N         -17.4555   -5.8060  -18.2185 N.am      2 SEC2        0.0000 
     64 N         -16.5840   -4.6870  -17.7200 N.am      8 SEL2        0.0000 
     65 N         -18.3270   -6.9250  -18.7170 N.am      5 SEP2        0.0000 
     66 N         -16.1160   -6.0365  -18.6475 N.am      2 SEC2        0.0000 
     67 N         -15.6480   -7.3860  -19.5750 N.am      5 SEP2        0.0000 
     68 N         -16.4755   -5.9605  -17.1600 N.am      2 SEC2        0.0000 
     69 N         -16.3670   -7.2340  -16.6000 N.am      5 SEP2        0.0000 
     70 CA        -11.4688    0.6175  -14.5072 C.3       3 GLC5        0.0000 
     71 CA        -13.4120    1.1420  -15.0920 C.3       9 GLL5        0.0000 
     72 CA         -9.6240    0.7080  -13.4750 C.3       6 GLP5        0.0000 
     73 CA        -14.6004    1.2597  -17.2051 C.3       3 GLC5        0.0000 
     74 CA        -13.2150   -0.0880  -15.9870 C.3       9 GLL5        0.0000 
     75 CA        -15.3300    2.6240  -18.3380 C.3       6 GLP5        0.0000 
     76 CA        -14.8090   -3.9668  -15.1837 C.3       3 GLC5        0.0000 
     77 CA        -14.6220   -2.0430  -15.8930 C.3       9 GLL5        0.0000 
     78 CA        -15.6690   -5.7710  -14.7760 C.3       6 GLP5        0.0000 
     79 CA        -14.1980   -5.0005  -13.8700 C.3       3 GLC5        0.0000 
     80 CA        -12.5580   -4.0670  -13.6070 C.3       9 GLL5        0.0000 
     81 CA        -13.9075   -4.8688  -10.3040 C.3       3 GLC5        0.0000 
     82 CA        -15.2670   -4.7910   -8.5610 C.3       6 GLP5        0.0000 
     83 CA        -11.3125   -2.9890  -13.0225 C.3       3 GLC5        0.0000 
     84 CA        -16.6725    5.0775  -10.8185 C.3       3 GLC5        0.0000 
     85 CA        -14.9650    5.9110  -11.9130 C.3       9 GLL5        0.0000 
     86 CA        -15.1070    5.7460  -10.1320 C.3       3 GLC5        0.0000 
     87 CA        -16.4340    7.1000   -7.2040 C.3       3 GLC5        0.0000 
     88 CA        -17.9110    8.5450   -8.1970 C.3       9 GLL5        0.0000 
     89 CA        -15.1120    5.5020   -6.9010 C.3       6 GLP5        0.0000 
     90 CA        -18.8855   10.1535   -8.0395 C.3       3 GLC5        0.0000 
     91 CA        -20.0150   11.6090   -8.5720 C.3       6 GLP5        0.0000 
     92 CA        -15.4258    7.2477   -6.9030 C.3       3 GLC5        0.0000 
     93 CA        -13.8990    9.3225   -9.1502 C.3       3 GLC5        0.0000 
     94 CA        -15.2190    8.9480   -7.3510 C.3       9 GLL5        0.0000 
@<TRIPOS>BOND
@<TRIPOS>SUBSTRUCTURE
     1 ALC1       19 GROUP        1 X    ALC  0     ROOT ALC X 1
     2 SEC2        1 GROUP        1 X    SEC  0     **** SEC X 2
     3 GLC5        7 GROUP        1 X    GLC  0     **** GLC X 6
     4 ALP1       21 GROUP        1 Y    ALP  0     ROOT ALP Y 8
     5 SEP2        3 GROUP        1 Y    SEP  0     **** SEP Y 9
     6 GLP5        9 GROUP        1 Y    GLP  0     **** GLP Y 13
     7 ALL1       20 GROUP        1 Z    ALL  0     ROOT ALL Z 15
     8 SEL2        2 GROUP        1 Z    SEL  0     **** SEL Z 16
     9 GLL5        8 GROUP        1 Z    GLL  0     **** GLL Z 20
@<TRIPOS>SET

