#    Name: 1vhd_NAP_2_ligand
#    Modification time : Tue Mar 25 07:54:09 2014

@<TRIPOS>MOLECULE
1vhd_NAP_2_ligand
   73    77     1     0     0
SMALL
NO_CHARGES


@<TRIPOS>ATOM
      1 PA        -15.3790    2.3880  -13.7920 P.3       1 NAP372      0.0000 
      2 O1A       -15.5970    3.5150  -14.6630 O.co2     1 NAP372      0.0000 
      3 O2A       -16.4810    1.8420  -12.9260 O.co2     1 NAP372      0.0000 
      4 O5B       -14.8030    1.1660  -14.7460 O.3       1 NAP372      0.0000 
      5 C5B       -13.4120    1.1420  -15.0920 C.3       1 NAP372      0.0000 
      6 C4B       -13.2150   -0.0880  -15.9870 C.3       1 NAP372      0.0000 
      7 O4B       -12.5530   -1.0820  -15.1710 O.3       1 NAP372      0.0000 
      8 C3B       -14.4280   -0.7360  -16.6050 C.3       1 NAP372      0.0000 
      9 O3B       -14.2150   -0.9800  -18.0180 O.3       1 NAP372      0.0000 
     10 C2B       -14.6220   -2.0430  -15.8930 C.3       1 NAP372      0.0000 
     11 O2B       -15.1300   -3.1570  -16.6460 O.3       1 NAP372      0.0000 
     12 C1B       -13.2760   -2.2820  -15.2900 C.3       1 NAP372      0.0000 
     13 N9A       -13.3230   -2.9760  -13.9720 N.pl3     1 NAP372      0.0000 
     14 C8A       -14.1200   -2.6930  -12.8370 C.2       1 NAP372      0.0000 
     15 N7A       -13.8620   -3.5420  -11.8560 N.2       1 NAP372      0.0000 
     16 C5A       -12.8960   -4.3930  -12.3210 C.ar      1 NAP372      0.0000 
     17 C6A       -12.2000   -5.5000  -11.7730 C.ar      1 NAP372      0.0000 
     18 N6A       -12.4510   -5.9040  -10.5270 N.pl3     1 NAP372      0.0000 
     19 N1A       -11.2740   -6.1450  -12.5280 N.ar      1 NAP372      0.0000 
     20 C2A       -11.0210   -5.7340  -13.7910 C.ar      1 NAP372      0.0000 
     21 N3A       -11.6170   -4.7050  -14.4020 N.ar      1 NAP372      0.0000 
     22 C4A       -12.5580   -4.0670  -13.6070 C.ar      1 NAP372      0.0000 
     23 O3        -14.1840    2.6290  -12.7850 O.3       1 NAP372      0.0000 
     24 PN        -13.9070    3.4830  -11.4620 P.3       1 NAP372      0.0000 
     25 O1N       -12.5710    4.0720  -11.6240 O.co2     1 NAP372      0.0000 
     26 O2N       -14.1850    2.5410  -10.3310 O.co2     1 NAP372      0.0000 
     27 O5D       -15.1610    4.4840  -11.6170 O.3       1 NAP372      0.0000 
     28 C5D       -14.9650    5.9110  -11.9130 C.3       1 NAP372      0.0000 
     29 C4D       -16.3730    6.5650  -12.0370 C.3       1 NAP372      0.0000 
     30 O4D       -16.8420    6.7720  -10.7190 O.3       1 NAP372      0.0000 
     31 C3D       -16.3070    7.9500  -12.6890 C.3       1 NAP372      0.0000 
     32 O3D       -17.4280    8.1170  -13.5600 O.3       1 NAP372      0.0000 
     33 C2D       -16.2770    8.9180  -11.5400 C.3       1 NAP372      0.0000 
     34 O2D       -16.7820   10.1860  -11.9380 O.3       1 NAP372      0.0000 
     35 C1D       -17.1820    8.1380  -10.4960 C.3       1 NAP372      0.0000 
     36 N1N       -16.8210    8.4590   -9.0910 N.pl3     1 NAP372      0.0000 
     37 C2N       -17.9110    8.5450   -8.1970 C.ar      1 NAP372      0.0000 
     38 C3N       -17.6010    8.8510   -6.8170 C.ar      1 NAP372      0.0000 
     39 C7N       -18.6860    8.9550   -5.8300 C.2       1 NAP372      0.0000 
     40 O7N       -18.5990    9.6190   -4.7780 O.2       1 NAP372      0.0000 
     41 N7N       -19.8520    8.3070   -6.0340 N.am      1 NAP372      0.0000 
     42 C4N       -16.2600    9.0390   -6.4590 C.ar      1 NAP372      0.0000 
     43 C5N       -15.2190    8.9480   -7.3510 C.ar      1 NAP372      0.0000 
     44 C6N       -15.4950    8.6580   -8.6680 C.ar      1 NAP372      0.0000 
     45 P2B       -16.6170   -3.4000  -17.0020 P.3       1 NAP372      0.0000 
     46 O1X       -16.5840   -4.6870  -17.7200 O.co2     1 NAP372      0.0000 
     47 O2X       -17.0960   -2.2700  -17.8400 O.co2     1 NAP372      0.0000 
     48 O3X       -17.4350   -3.5060  -15.7160 O.co2     1 NAP372      0.0000 
     49 H         -12.7789    1.0283  -14.2238 H         1 NAP372      0.0000 
     50 H         -13.1180    2.0158  -15.6555 H         1 NAP372      0.0000 
     51 H         -12.5162    0.1941  -16.7904 H         1 NAP372      0.0000 
     52 H         -15.2787   -0.1179  -16.4324 H         1 NAP372      0.0000 
     53 H         -15.2897   -1.8161  -15.0230 H         1 NAP372      0.0000 
     54 H         -12.7230   -2.9607  -15.9897 H         1 NAP372      0.0000 
     55 H         -14.7602   -1.9576  -12.8298 H         1 NAP372      0.0000 
     56 H         -12.2756   -5.2358   -9.8040 H         1 NAP372      0.0000 
     57 H         -12.7921   -6.8388  -10.4278 H         1 NAP372      0.0000 
     58 H         -10.2766   -6.2852  -14.3460 H         1 NAP372      0.0000 
     59 H         -14.4499    6.0520  -12.8508 H         1 NAP372      0.0000 
     60 H         -14.4364    6.4101  -11.1154 H         1 NAP372      0.0000 
     61 H         -17.0021    5.9343  -12.5935 H         1 NAP372      0.0000 
     62 H         -15.3674    8.0020  -13.2108 H         1 NAP372      0.0000 
     63 H         -15.2947    8.9246  -11.1420 H         1 NAP372      0.0000 
     64 H         -18.1795    8.3383  -10.7140 H         1 NAP372      0.0000 
     65 H         -18.8505    8.4050   -8.4851 H         1 NAP372      0.0000 
     66 H         -19.9240    7.7885   -6.8861 H         1 NAP372      0.0000 
     67 H         -20.5403    8.4029   -5.3150 H         1 NAP372      0.0000 
     68 H         -16.0501    9.2613   -5.4509 H         1 NAP372      0.0000 
     69 H         -14.2518    9.0935   -7.0419 H         1 NAP372      0.0000 
     70 H         -14.7332    8.5834   -9.3591 H         1 NAP372      0.0000 
     71 H         -15.0829   -1.3492  -18.3505 H         1 NAP372      0.0000 
     72 H         -18.2302    7.9928  -12.9759 H         1 NAP372      0.0000 
     73 H         -16.5223   10.8106  -11.2016 H         1 NAP372      0.0000 
@<TRIPOS>BOND
     1    2    1 ar   
     2    3    1 ar   
     3    4    1 1    
     4   23    1 1    
     5    5    4 1    
     6    6    5 1    
     7   49    5 1    
     8   50    5 1    
     9    7    6 1    
    10    8    6 1    
    11   51    6 1    
    12   12    7 1    
    13    9    8 1    
    14   10    8 1    
    15   52    8 1    
    16   71    9 1    
    17   11   10 1    
    18   12   10 1    
    19   53   10 1    
    20   45   11 1    
    21   13   12 1    
    22   54   12 1    
    23   14   13 1    
    24   22   13 1    
    25   15   14 2    
    26   55   14 1    
    27   16   15 1    
    28   17   16 ar   
    29   22   16 ar   
    30   18   17 1    
    31   19   17 ar   
    32   56   18 1    
    33   57   18 1    
    34   20   19 ar   
    35   21   20 ar   
    36   58   20 1    
    37   22   21 ar   
    38   24   23 1    
    39   25   24 ar   
    40   26   24 ar   
    41   27   24 1    
    42   28   27 1    
    43   29   28 1    
    44   59   28 1    
    45   60   28 1    
    46   30   29 1    
    47   31   29 1    
    48   61   29 1    
    49   35   30 1    
    50   32   31 1    
    51   33   31 1    
    52   62   31 1    
    53   72   32 1    
    54   34   33 1    
    55   35   33 1    
    56   63   33 1    
    57   73   34 1    
    58   36   35 1    
    59   64   35 1    
    60   37   36 ar   
    61   44   36 ar   
    62   38   37 ar   
    63   65   37 1    
    64   39   38 1    
    65   42   38 ar   
    66   40   39 2    
    67   41   39 am   
    68   66   41 1    
    69   67   41 1    
    70   43   42 ar   
    71   68   42 1    
    72   44   43 ar   
    73   69   43 1    
    74   70   44 1    
    75   46   45 ar   
    76   47   45 ar   
    77   48   45 ar   
@<TRIPOS>SUBSTRUCTURE
     1 NAP372      1 GROUP   
@<TRIPOS>SET

