#    Name: 3ZRC_1_CAVITY_N1_6.mol2
#    Modification time : Tue Mar 11 15:23:00 2014

@<TRIPOS>MOLECULE
3ZRC_1_CAVITY_N1_6.mol2
   52     0     5     0     0
SMALL
NO_CHARGES


@<TRIPOS>ATOM
      1 CA        -50.6591  -14.2327   10.0372 C.3       4 GLY6        0.0000 
      2 CA        -49.4264  -13.6876    9.3789 C.3       4 GLY6        0.0000 
      3 CA        -51.5027  -13.6425    8.9464 C.3       4 GLY6        0.0000 
      4 CA        -50.2700  -13.0974    8.2880 C.3       4 GLY6        0.0000 
      5 CA        -49.0374  -12.5524    7.6296 C.3       4 GLY6        0.0000 
      6 CA        -52.3463  -13.0522    7.8555 C.3       4 GLY6        0.0000 
      7 DU        -51.1136  -12.5072    7.1971 H         5 CUB7        0.0000 
      8 DU        -49.8810  -11.9621    6.5388 H         5 CUB7        0.0000 
      9 DU        -51.9572  -11.9170    6.1063 H         5 CUB7        0.0000 
     10 CA        -51.3654  -14.9092    8.1548 C.3       4 GLY6        0.0000 
     11 CA        -50.1327  -14.3641    7.4964 C.3       4 GLY6        0.0000 
     12 CZ        -52.2090  -14.3190    7.0639 C.ar      3 PHE5        0.0000 
     13 CZ        -50.9763  -13.7739    6.4056 C.ar      3 PHE5        0.0000 
     14 O         -48.7202  -13.0111   11.2613 O.2       2 ALA2        0.0000 
     15 CA        -50.7964  -12.9660   10.8288 C.3       4 GLY6        0.0000 
     16 DU        -49.5638  -12.4209   10.1704 H         5 CUB7        0.0000 
     17 CA        -48.3311  -11.8759    9.5121 C.3       4 GLY6        0.0000 
     18 CA        -51.6400  -12.3757    9.7379 C.3       4 GLY6        0.0000 
     19 DU        -50.4074  -11.8307    9.0796 H         5 CUB7        0.0000 
     20 DU        -49.1747  -11.2856    8.4212 H         5 CUB7        0.0000 
     21 CA        -52.4836  -11.7855    8.6471 C.3       4 GLY6        0.0000 
     22 DU        -51.2510  -11.2405    7.9887 H         5 CUB7        0.0000 
     23 DU        -50.0183  -10.6954    7.3303 H         5 CUB7        0.0000 
     24 DU        -52.0946  -10.6503    6.8978 H         5 CUB7        0.0000 
     25 CA        -50.0902  -12.2895   12.7112 C.3       4 GLY6        0.0000 
     26 CA        -48.8575  -11.7444   12.0529 C.3       4 GLY6        0.0000 
     27 CA        -47.6248  -11.1994   11.3945 C.3       4 GLY6        0.0000 
     28 CA        -50.9338  -11.6992   11.6204 C.3       4 GLY6        0.0000 
     29 CA        -49.7011  -11.1542   10.9620 C.3       4 GLY6        0.0000 
     30 N         -51.7774  -11.1090   10.5295 N.2       2 ALA2        0.0000 
     31 DU        -50.5447  -10.5640    9.8711 H         5 CUB7        0.0000 
     32 CA        -49.3120  -10.0189    9.2128 C.3       4 GLY6        0.0000 
     33 N         -52.6210  -10.5188    9.4386 N.2       2 ALA2        0.0000 
     34 DU        -51.3883   -9.9738    8.7803 H         5 CUB7        0.0000 
     35 OG        -50.1556   -9.4287    8.1219 O.2       1 SER1        0.0000 
     36 N         -53.4646   -9.9286    8.3478 N.2       2 ALA2        0.0000 
     37 O         -54.3082   -9.3384    7.2569 O.2       2 ALA2        0.0000 
     38 O         -53.0755   -8.7933    6.5986 O.2       2 ALA2        0.0000 
     39 CA        -51.4601  -11.5678   14.1612 C.3       4 GLY6        0.0000 
     40 CA        -50.2275  -11.0227   13.5028 C.3       4 GLY6        0.0000 
     41 CA        -52.3038  -10.9776   13.0703 C.3       4 GLY6        0.0000 
     42 DU        -51.0711  -10.4325   12.4119 H         5 CUB7        0.0000 
     43 CA        -49.8384   -9.8875   11.7536 C.3       4 GLY6        0.0000 
     44 CA        -50.6820   -9.2973   10.6627 C.3       4 GLY6        0.0000 
     45 CA        -49.4493   -8.7522   10.0043 C.3       4 GLY6        0.0000 
     46 N         -52.7583   -9.2521   10.2302 N.2       2 ALA2        0.0000 
     47 OG        -51.5256   -8.7070    9.5718 O.2       1 SER1        0.0000 
     48 N         -53.6019   -8.6619    9.1393 N.2       2 ALA2        0.0000 
     49 OG        -52.3692   -8.1168    8.4810 O.2       1 SER1        0.0000 
     50 O         -55.6782   -8.6167    8.7069 O.2       2 ALA2        0.0000 
     51 O         -54.4455   -8.0717    8.0485 O.2       2 ALA2        0.0000 
     52 DU        -53.2128   -7.5266    7.3901 H         5 CUB7        0.0000 
@<TRIPOS>BOND
@<TRIPOS>SUBSTRUCTURE
     1 SER1       35 GROUP   
     2 ALA2       14 GROUP   
     3 PHE5       12 GROUP   
     4 GLY6        1 GROUP   
     5 CUB7        7 GROUP   
@<TRIPOS>SET

