#    Name: 3zrc_L8B_1_INTS_M
#    Modification time : Tue Mar 25 03:51:28 2014

@<TRIPOS>MOLECULE
3zrc_L8B_1_INTS_M
   42     0     9     0     0
SMALL
NO_CHARGES


@<TRIPOS>ATOM
      1 CA        -57.2270  -10.3425   -3.2615 C.3       3 GLC5        0.0000 
      2 CA        -56.7070  -10.9350   -5.1580 C.3       9 GLL5        0.0000 
      3 CA        -57.7470   -9.7500   -1.3650 C.3       6 GLP5        0.0000 
      4 CA        -53.6660  -15.2260   -2.7810 C.3       3 GLC5        0.0000 
      5 CA        -53.3310  -13.2620   -2.3620 C.3       9 GLL5        0.0000 
      6 CA        -54.0010  -17.1900   -3.2000 C.3       6 GLP5        0.0000 
      7 CA        -54.8705  -16.5610   -0.8775 C.3       3 GLC5        0.0000 
      8 CA        -54.3240  -15.0460   -0.2130 C.3       9 GLL5        0.0000 
      9 CA        -55.4170  -18.0760   -1.5420 C.3       6 GLP5        0.0000 
     10 CA        -54.7110  -16.9640    0.1030 C.3       3 GLC5        0.0000 
     11 CA        -55.1030  -15.4130    0.9950 C.3       9 GLL5        0.0000 
     12 CA        -54.3190  -18.5150   -0.7890 C.3       6 GLP5        0.0000 
     13 N         -57.3355  -15.0090    1.7890 N.am      2 SEC2        0.0000 
     14 N         -56.3080  -14.7800    0.9510 N.am      8 SEL2        0.0000 
     15 N         -58.3630  -15.2380    2.6270 N.am      5 SEP2        0.0000 
     16 CA        -55.8350  -12.1685    0.3000 C.3       3 GLC5        0.0000 
     17 CA        -54.3040  -13.3800    1.3850 C.3       9 GLL5        0.0000 
     18 CA        -57.3660  -10.9570   -0.7850 C.3       6 GLP5        0.0000 
     19 O         -54.8415  -12.0065    3.4965 O.2       1 ALC1        0.0000 
     20 O         -53.4500  -12.0180    3.0930 O.2       7 ALL1        0.0000 
     21 O         -56.2330  -11.9950    3.9000 O.2       4 ALP1        0.0000 
     22 CA        -50.7310  -16.1530    7.3900 C.3       3 GLC5        0.0000 
     23 CA        -51.3250  -14.2130    8.2740 C.3       9 GLL5        0.0000 
     24 CA        -50.1370  -18.0930    6.5060 C.3       6 GLP5        0.0000 
     25 CA        -51.1365  -14.3555   11.0355 C.3       3 GLC5        0.0000 
     26 CA        -50.5320  -13.9990    9.2660 C.3       9 GLL5        0.0000 
     27 CA        -51.7410  -14.7120   12.8050 C.3       6 GLP5        0.0000 
     28 N         -49.9880  -15.6410   11.2015 N.am      2 SEC2        0.0000 
     29 N         -50.6420  -15.0340   10.0390 N.am      8 SEL2        0.0000 
     30 N         -49.3340  -16.2480   12.3640 N.am      5 SEP2        0.0000 
     31 CA        -55.4320  -16.1830    2.8060 C.3       3 GLC5        0.0000 
     32 CA        -54.3150  -14.7250    2.0030 C.3       9 GLL5        0.0000 
     33 CA        -56.1550  -17.2970    4.1130 C.3       6 GLP5        0.0000 
     34 CA        -52.8488  -15.2152    2.1250 C.3       3 GLC5        0.0000 
     35 CA        -51.1910  -16.2060    2.8080 C.3       6 GLP5        0.0000 
     36 CA        -54.5602  -13.5143    6.5875 C.3       3 GLC5        0.0000 
     37 CA        -53.0710  -12.8010    5.4780 C.3       9 GLL5        0.0000 
     38 CA        -56.1910  -13.8600    7.1460 C.3       6 GLP5        0.0000 
     39 CA        -49.6153  -15.2595    8.5275 C.3       3 GLC5        0.0000 
     40 CA        -48.3020  -16.4130    8.2850 C.3       6 GLP5        0.0000 
     41 CA        -52.7257  -13.7420    9.2393 C.3       3 GLC5        0.0000 
     42 CA        -54.4610  -13.5680    9.9860 C.3       6 GLP5        0.0000 
@<TRIPOS>BOND
@<TRIPOS>SUBSTRUCTURE
     1 ALC1       19 GROUP        1 X    ALC  0     ROOT ALC X 1
     2 SEC2       13 GROUP        1 X    SEC  0     **** SEC X 2
     3 GLC5        1 GROUP        1 X    GLC  0     **** GLC X 6
     4 ALP1       21 GROUP        1 Y    ALP  0     ROOT ALP Y 8
     5 SEP2       15 GROUP        1 Y    SEP  0     **** SEP Y 9
     6 GLP5        3 GROUP        1 Y    GLP  0     **** GLP Y 13
     7 ALL1       20 GROUP        1 Z    ALL  0     ROOT ALL Z 15
     8 SEL2       14 GROUP        1 Z    SEL  0     **** SEL Z 16
     9 GLL5        2 GROUP        1 Z    GLL  0     **** GLL Z 20
@<TRIPOS>SET

