#    Name: 3zrc_L8B_1_ligand
#    Modification time : Tue Mar 25 03:51:28 2014

@<TRIPOS>MOLECULE
3zrc_L8B_1_ligand
   52    55     1     0     0
SMALL
NO_CHARGES


@<TRIPOS>ATOM
      1 CAA       -56.7070  -10.9350   -5.1580 C.3       1 L8B1205     0.0000 
      2 CAW       -56.0300  -11.9020   -4.2460 C.2       1 L8B1205     0.0000 
      3 CAK       -54.7890  -11.8300   -3.8700 C.2       1 L8B1205     0.0000 
      4 NAQ       -56.6130  -12.9290   -3.7450 N.2       1 L8B1205     0.0000 
      5 OAT       -55.7000  -13.5180   -2.9960 O.3       1 L8B1205     0.0000 
      6 CAZ       -54.5770  -12.8470   -3.0950 C.2       1 L8B1205     0.0000 
      7 CAM       -53.3310  -13.2620   -2.3620 C.3       1 L8B1205     0.0000 
      8 CAU       -53.5270  -12.8320   -0.9350 C.2       1 L8B1205     0.0000 
      9 OAB       -53.3230  -11.6660   -0.6970 O.2       1 L8B1205     0.0000 
     10 N         -54.0010  -13.6670    0.0010 N.am      1 L8B1205     0.0000 
     11 CD2       -54.3240  -15.0460   -0.2130 C.3       1 L8B1205     0.0000 
     12 CG        -55.1030  -15.4130    0.9950 C.3       1 L8B1205     0.0000 
     13 OD1       -56.3080  -14.7800    0.9510 O.3       1 L8B1205     0.0000 
     14 CB        -54.3150  -14.7250    2.0030 C.3       1 L8B1205     0.0000 
     15 CA        -54.3040  -13.3800    1.3850 C.3       1 L8B1205     0.0000 
     16 C         -53.1660  -12.6510    1.9880 C.2       1 L8B1205     0.0000 
     17 O         -52.0770  -12.6510    1.4540 O.2       1 L8B1205     0.0000 
     18 NAR       -53.4500  -12.0180    3.0930 N.am      1 L8B1205     0.0000 
     19 CAL       -52.4580  -11.2210    3.7650 C.3       1 L8B1205     0.0000 
     20 CAX       -52.1310  -11.9890    4.9620 C.ar      1 L8B1205     0.0000 
     21 CAF       -53.0710  -12.8010    5.4780 C.ar      1 L8B1205     0.0000 
     22 CAH       -52.7880  -13.5360    6.5800 C.ar      1 L8B1205     0.0000 
     23 CAE       -50.9060  -11.9040    5.5270 C.ar      1 L8B1205     0.0000 
     24 CAG       -50.6160  -12.6450    6.6370 C.ar      1 L8B1205     0.0000 
     25 CAY       -51.5730  -13.4530    7.1640 C.ar      1 L8B1205     0.0000 
     26 CBA       -51.3250  -14.2130    8.2740 C.2       1 L8B1205     0.0000 
     27 CAJ       -50.5320  -13.9990    9.2660 C.2       1 L8B1205     0.0000 
     28 NAP       -50.6420  -15.0340   10.0390 N.2       1 L8B1205     0.0000 
     29 CAI       -51.4930  -15.8850    9.5560 C.2       1 L8B1205     0.0000 
     30 OAS       -51.9140  -15.3670    8.4420 O.3       1 L8B1205     0.0000 
     31 H         -54.1438  -11.1440   -4.1224 H         1 L8B1205     0.0000 
     32 H         -52.4771  -12.7623   -2.7808 H         1 L8B1205     0.0000 
     33 H         -53.2170  -14.3292   -2.4103 H         1 L8B1205     0.0000 
     34 H         -53.4394  -15.6557   -0.2680 H         1 L8B1205     0.0000 
     35 H         -54.9359  -15.1779   -1.0879 H         1 L8B1205     0.0000 
     36 H         -55.0975  -16.4200    1.1410 H         1 L8B1205     0.0000 
     37 H         -53.3348  -15.1106    2.0529 H         1 L8B1205     0.0000 
     38 H         -54.8180  -14.6957    2.9292 H         1 L8B1205     0.0000 
     39 H         -55.2000  -12.9043    1.5135 H         1 L8B1205     0.0000 
     40 H         -54.3904  -12.0526    3.5422 H         1 L8B1205     0.0000 
     41 H         -52.8584  -10.2563    4.0400 H         1 L8B1205     0.0000 
     42 H         -51.5786  -11.0987    3.1499 H         1 L8B1205     0.0000 
     43 H         -54.0096  -12.8671    5.0372 H         1 L8B1205     0.0000 
     44 H         -53.5148  -14.1701    6.9791 H         1 L8B1205     0.0000 
     45 H         -50.1827  -11.2787    5.1229 H         1 L8B1205     0.0000 
     46 H         -49.6796  -12.5897    7.0683 H         1 L8B1205     0.0000 
     47 H         -49.9647  -13.2220    9.4106 H         1 L8B1205     0.0000 
     48 H         -51.7601  -16.7318    9.9446 H         1 L8B1205     0.0000 
     49 H         -56.7031  -10.0073   -4.7847 H         1 L8B1205     0.0000 
     50 H         -56.2610  -10.8931   -6.0521 H         1 L8B1205     0.0000 
     51 H         -57.6626  -11.1824   -5.3184 H         1 L8B1205     0.0000 
     52 H         -56.1878  -13.9562    1.5050 H         1 L8B1205     0.0000 
@<TRIPOS>BOND
     1    2    1 1    
     2   49    1 1    
     3   50    1 1    
     4   51    1 1    
     5    3    2 1    
     6    4    2 2    
     7    6    3 2    
     8   31    3 1    
     9    5    4 1    
    10    6    5 1    
    11    7    6 1    
    12    8    7 1    
    13   32    7 1    
    14   33    7 1    
    15    9    8 2    
    16   10    8 am   
    17   11   10 1    
    18   15   10 1    
    19   12   11 1    
    20   34   11 1    
    21   35   11 1    
    22   13   12 1    
    23   14   12 1    
    24   36   12 1    
    25   52   13 1    
    26   15   14 1    
    27   37   14 1    
    28   38   14 1    
    29   16   15 1    
    30   39   15 1    
    31   17   16 2    
    32   18   16 am   
    33   19   18 1    
    34   40   18 1    
    35   20   19 1    
    36   41   19 1    
    37   42   19 1    
    38   21   20 ar   
    39   23   20 ar   
    40   22   21 ar   
    41   43   21 1    
    42   25   22 ar   
    43   44   22 1    
    44   24   23 ar   
    45   45   23 1    
    46   25   24 ar   
    47   46   24 1    
    48   26   25 1    
    49   27   26 2    
    50   30   26 1    
    51   28   27 1    
    52   47   27 1    
    53   29   28 2    
    54   30   29 1    
    55   48   29 1    
@<TRIPOS>SUBSTRUCTURE
     1 L8B1205     1 GROUP   
@<TRIPOS>SET

