#    Name: 2uxp_CLM_2_INTS_M
#    Modification time : Tue Mar 25 00:26:01 2014

@<TRIPOS>MOLECULE
2uxp_CLM_2_INTS_M
   40     0     6     0     0
SMALL
NO_CHARGES


@<TRIPOS>ATOM
      1 CA         -2.5255   34.4625   11.8670 C.3       2 GLC5        0.0000 
      2 CA         -2.4320   33.5110   13.2650 C.3       6 GLL5        0.0000 
      3 CA         -2.6190   35.4140   10.4690 C.3       4 GLP5        0.0000 
      4 CA         -0.8570   33.2030   17.7415 C.3       2 GLC5        0.0000 
      5 CA         -1.5660   32.4200   16.1520 C.3       6 GLL5        0.0000 
      6 CA         -0.1480   33.9860   19.3310 C.3       4 GLP5        0.0000 
      7 CA          1.6065   36.3235   15.8025 C.3       2 GLC5        0.0000 
      8 CA          0.8990   36.4450   13.9740 C.3       6 GLL5        0.0000 
      9 CA          2.3140   36.2020   17.6310 C.3       4 GLP5        0.0000 
     10 CA          3.4120   35.7330   15.1855 C.3       2 GLC5        0.0000 
     11 CA          2.3710   36.1070   13.7320 C.3       6 GLL5        0.0000 
     12 CA          4.4530   35.3590   16.6390 C.3       4 GLP5        0.0000 
     13 CA          3.8400   36.6595   12.8715 C.3       2 GLC5        0.0000 
     14 CA          5.3090   37.2120   12.0110 C.3       4 GLP5        0.0000 
     15 CA          1.5805   39.0650   13.8700 C.3       2 GLC5        0.0000 
     16 CA          0.4360   37.5820   13.0460 C.3       6 GLL5        0.0000 
     17 CA          2.7250   40.5480   14.6940 C.3       4 GLP5        0.0000 
     18 CA         -1.3565   38.5695   11.3360 C.3       2 GLC5        0.0000 
     19 CA         -0.9740   38.0070   13.2600 C.3       6 GLL5        0.0000 
     20 CA         -1.7390   39.1320    9.4120 C.3       4 GLP5        0.0000 
     21 N          -6.4740   39.5900   15.2725 N.am      1 SEC2        0.0000 
     22 N          -5.0530   39.8980   15.0270 N.am      5 SEL2        0.0000 
     23 N          -7.8950   39.2820   15.5180 N.am      3 SEP2        0.0000 
     24 CA          0.7405   39.9655   14.0970 C.3       2 GLC5        0.0000 
     25 CA         -1.2440   39.3830   13.5000 C.3       6 GLL5        0.0000 
     26 CA         -2.4683   31.3062   15.5723 C.3       2 GLC5        0.0000 
     27 CA         -1.0490   33.2170   14.5570 C.3       6 GLL5        0.0000 
     28 CA         -3.6290   29.7940   15.7900 C.3       4 GLP5        0.0000 
     29 CA          0.3638   37.8948   15.4115 C.3       2 GLC5        0.0000 
     30 CA          0.0600   38.7760   17.3130 C.3       4 GLP5        0.0000 
     31 CA         -0.5245   38.7355   15.3465 C.3       2 GLC5        0.0000 
     32 CA         -2.8510   38.4710   11.6728 C.3       2 GLC5        0.0000 
     33 CA         -2.0450   37.0600   13.1980 C.3       6 GLL5        0.0000 
     34 CA         -2.9980   39.6800   10.0550 C.3       4 GLP5        0.0000 
     35 CA         -2.5276   36.4564   11.8875 C.3       2 GLC5        0.0000 
     36 CA         -3.3630   37.4640   13.3830 C.3       6 GLL5        0.0000 
     37 CA         -1.5777   41.3248   12.9888 C.3       2 GLC5        0.0000 
     38 CA         -2.5690   39.7840   13.6950 C.3       6 GLL5        0.0000 
     39 CA         -1.2490   43.0660   12.3800 C.3       4 GLP5        0.0000 
     40 CA         -2.5855   39.5132   11.8195 C.3       2 GLC5        0.0000 
@<TRIPOS>BOND
@<TRIPOS>SUBSTRUCTURE
     1 SEC2       21 GROUP        1 X    SEC  0     ROOT SEC X 2
     2 GLC5        1 GROUP        1 X    GLC  0     **** GLC X 6
     3 SEP2       23 GROUP        1 Y    SEP  0     ROOT SEP Y 9
     4 GLP5        3 GROUP        1 Y    GLP  0     **** GLP Y 13
     5 SEL2       22 GROUP        1 Z    SEL  0     ROOT SEL Z 16
     6 GLL5        2 GROUP        1 Z    GLL  0     **** GLL Z 20
@<TRIPOS>SET

