#    Name: 2uxp_CLM_2_ligand
#    Modification time : Tue Mar 25 00:26:01 2014

@<TRIPOS>MOLECULE
2uxp_CLM_2_ligand
   32    32     1     0     0
SMALL
NO_CHARGES


@<TRIPOS>ATOM
      1 C1         -1.0490   33.2170   14.5570 C.3       1 CLM1211     0.0000 
      2 CL1        -2.4320   33.5110   13.2650 Cl        1 CLM1211     0.0000 
      3 CL2        -1.5660   32.4200   16.1520 Cl        1 CLM1211     0.0000 
      4 C2         -0.4130   34.5580   14.8820 C.2       1 CLM1211     0.0000 
      5 O2         -0.4060   34.9890   16.0560 O.2       1 CLM1211     0.0000 
      6 N2          0.1110   35.2250   13.8400 N.am      1 CLM1211     0.0000 
      7 C3          0.8990   36.4450   13.9740 C.3       1 CLM1211     0.0000 
      8 C4          2.3710   36.1070   13.7320 C.3       1 CLM1211     0.0000 
      9 O4          2.5570   35.4860   12.4500 O.3       1 CLM1211     0.0000 
     10 C5          0.4360   37.5820   13.0460 C.3       1 CLM1211     0.0000 
     11 O5          0.5970   37.1890   11.6650 O.3       1 CLM1211     0.0000 
     12 C6         -0.9740   38.0070   13.2600 C.ar      1 CLM1211     0.0000 
     13 C7         -2.0450   37.0600   13.1980 C.ar      1 CLM1211     0.0000 
     14 C8         -3.3630   37.4640   13.3830 C.ar      1 CLM1211     0.0000 
     15 C9         -3.6350   38.8360   13.6410 C.ar      1 CLM1211     0.0000 
     16 N9         -4.9680   39.2550   13.8330 N.pl3     1 CLM1211     0.0000 
     17 O9A        -5.0530   39.8980   15.0270 O.2       1 CLM1211     0.0000 
     18 O9B        -5.7610   38.1630   13.8180 O.2       1 CLM1211     0.0000 
     19 C10        -2.5690   39.7840   13.6950 C.ar      1 CLM1211     0.0000 
     20 C11        -1.2440   39.3830   13.5000 C.ar      1 CLM1211     0.0000 
     21 H          -0.3978   32.5476   14.0943 H         1 CLM1211     0.0000 
     22 H          -0.0285   34.8863   12.8536 H         1 CLM1211     0.0000 
     23 H           0.8284   36.8130   15.0090 H         1 CLM1211     0.0000 
     24 H           2.7021   35.4485   14.5497 H         1 CLM1211     0.0000 
     25 H           2.9469   37.0417   13.8135 H         1 CLM1211     0.0000 
     26 H           1.0912   38.4465   13.2418 H         1 CLM1211     0.0000 
     27 H          -1.8199   36.0751   13.0139 H         1 CLM1211     0.0000 
     28 H          -4.1306   36.7995   13.3373 H         1 CLM1211     0.0000 
     29 H          -2.7914   40.7690   13.8800 H         1 CLM1211     0.0000 
     30 H          -0.4829   40.0507   13.5269 H         1 CLM1211     0.0000 
     31 H           1.9147   35.9518   11.8413 H         1 CLM1211     0.0000 
     32 H          -0.2536   36.7193   11.4289 H         1 CLM1211     0.0000 
@<TRIPOS>BOND
     1    2    1 1    
     2    3    1 1    
     3    4    1 1    
     4   21    1 1    
     5    5    4 2    
     6    6    4 am   
     7    7    6 1    
     8   22    6 1    
     9    8    7 1    
    10   10    7 1    
    11   23    7 1    
    12    9    8 1    
    13   24    8 1    
    14   25    8 1    
    15   31    9 1    
    16   11   10 1    
    17   12   10 1    
    18   26   10 1    
    19   32   11 1    
    20   13   12 ar   
    21   20   12 ar   
    22   14   13 ar   
    23   27   13 1    
    24   15   14 ar   
    25   28   14 1    
    26   16   15 1    
    27   19   15 ar   
    28   17   16 2    
    29   18   16 2    
    30   20   19 ar   
    31   29   19 1    
    32   30   20 1    
@<TRIPOS>SUBSTRUCTURE
     1 CLM1211     1 GROUP   
@<TRIPOS>SET

