#    Name: 2IKG_1_CAVITY_N1_6.mol2
#    Modification time : Mon Mar 10 19:40:28 2014

@<TRIPOS>MOLECULE
2IKG_1_CAVITY_N1_6.mol2
   84     0     4     0     0
SMALL
NO_CHARGES


@<TRIPOS>ATOM
      1 CA         18.3024  -10.9993   14.0822 C.3       3 GLY6        0.0000 
      2 CZ         16.8669  -10.9600   13.6489 C.ar      2 PHE5        0.0000 
      3 CA         17.8405   -5.7163   10.9000 C.3       3 GLY6        0.0000 
      4 O          18.0838   -4.4054   10.2128 O.2       1 ALA2        0.0000 
      5 CZ         18.3272   -3.0945    9.5256 C.ar      2 PHE5        0.0000 
      6 CA         16.1616   -6.9879   11.1539 C.3       3 GLY6        0.0000 
      7 CA         16.4050   -5.6770   10.4667 C.3       3 GLY6        0.0000 
      8 CA         16.6483   -4.3661    9.7795 C.3       3 GLY6        0.0000 
      9 CA         16.8917   -3.0551    9.0923 C.3       3 GLY6        0.0000 
     10 CA         14.9695   -5.6377   10.0333 C.3       3 GLY6        0.0000 
     11 CA         15.2129   -4.3267    9.3461 C.3       3 GLY6        0.0000 
     12 CA         18.8905  -12.9325   17.1509 C.3       3 GLY6        0.0000 
     13 CZ         19.1338  -11.6216   16.4637 C.ar      2 PHE5        0.0000 
     14 CA         19.8640   -7.6889   14.4021 C.3       3 GLY6        0.0000 
     15 DU         17.4550  -12.8932   16.7176 H         4 CUB7        0.0000 
     16 DU         17.6983  -11.5823   16.0304 H         4 CUB7        0.0000 
     17 CZ         17.9417  -10.2714   15.3432 C.ar      2 PHE5        0.0000 
     18 CA         18.1851   -8.9604   14.6559 C.3       3 GLY6        0.0000 
     19 CA         18.4285   -7.6495   13.9687 C.3       3 GLY6        0.0000 
     20 CA         18.6719   -6.3386   13.2815 C.3       3 GLY6        0.0000 
     21 CA         18.9152   -5.0277   12.5943 C.3       3 GLY6        0.0000 
     22 DU         16.0195  -12.8539   16.2842 H         4 CUB7        0.0000 
     23 CZ         16.2629  -11.5430   15.5970 C.ar      2 PHE5        0.0000 
     24 CZ         16.5062  -10.2320   14.9098 C.ar      2 PHE5        0.0000 
     25 CZ         16.7496   -8.9211   14.2226 C.ar      2 PHE5        0.0000 
     26 CA         16.9930   -7.6102   13.5354 C.3       3 GLY6        0.0000 
     27 CA         17.2364   -6.2993   12.8482 C.3       3 GLY6        0.0000 
     28 CZ         17.4797   -4.9883   12.1610 C.ar      2 PHE5        0.0000 
     29 CZ         17.7231   -3.6774   11.4738 C.ar      2 PHE5        0.0000 
     30 DU         14.5840  -12.8145   15.8508 H         4 CUB7        0.0000 
     31 CZ         14.8274  -11.5036   15.1636 C.ar      2 PHE5        0.0000 
     32 CA         15.8009   -6.2599   12.4148 C.3       3 GLY6        0.0000 
     33 CZ         16.0443   -4.9490   11.7276 C.ar      2 PHE5        0.0000 
     34 CZ         16.2876   -3.6381   11.0404 C.ar      2 PHE5        0.0000 
     35 CZ         16.5310   -2.3272   10.3532 C.ar      2 PHE5        0.0000 
     36 CZ         13.3919  -11.4643   14.7303 C.ar      2 PHE5        0.0000 
     37 CZ         14.3654   -6.2206   11.9814 C.ar      2 PHE5        0.0000 
     38 CA         14.6088   -4.9097   11.2942 C.3       3 GLY6        0.0000 
     39 CZ         14.8521   -3.5988   10.6070 C.ar      2 PHE5        0.0000 
     40 O          18.5297  -12.2046   18.4119 O.2       1 ALA2        0.0000 
     41 CZ         19.0165   -9.5827   17.0374 C.ar      2 PHE5        0.0000 
     42 CZ         19.5033   -6.9609   15.6630 C.ar      2 PHE5        0.0000 
     43 CA         19.7466   -5.6500   14.9758 C.3       3 GLY6        0.0000 
     44 O          16.8509  -13.4762   18.6657 O.2       1 ALA2        0.0000 
     45 O          17.0943  -12.1652   17.9785 O.2       1 ALA2        0.0000 
     46 O          17.3376  -10.8543   17.2913 O.2       1 ALA2        0.0000 
     47 CZ         17.5810   -9.5434   16.6041 C.ar      2 PHE5        0.0000 
     48 CZ         17.8244   -8.2325   15.9169 C.ar      2 PHE5        0.0000 
     49 DU         18.0678   -6.9216   15.2297 H         4 CUB7        0.0000 
     50 CZ         18.3111   -5.6106   14.5425 C.ar      2 PHE5        0.0000 
     51 DU         15.4154  -13.4368   18.2323 H         4 CUB7        0.0000 
     52 O          15.6588  -12.1259   17.5451 O.2       1 ALA2        0.0000 
     53 O          15.9021  -10.8150   16.8579 O.2       1 ALA2        0.0000 
     54 DU         16.1455   -9.5041   16.1707 H         4 CUB7        0.0000 
     55 DU         16.3889   -8.1931   15.4835 H         4 CUB7        0.0000 
     56 CZ         16.6323   -6.8822   14.7963 C.ar      2 PHE5        0.0000 
     57 CZ         16.8756   -5.5713   14.1091 C.ar      2 PHE5        0.0000 
     58 N          14.2233  -12.0866   17.1118 N.2       1 ALA2        0.0000 
     59 CA         14.4666  -10.7757   16.4246 C.3       3 GLY6        0.0000 
     60 CZ         14.7100   -9.4647   15.7374 C.ar      2 PHE5        0.0000 
     61 CZ         14.9534   -8.1538   15.0502 C.ar      2 PHE5        0.0000 
     62 O          15.1968   -6.8429   14.3629 O.2       1 ALA2        0.0000 
     63 CZ         18.8992   -7.5438   17.6112 C.ar      2 PHE5        0.0000 
     64 CZ         17.2203   -8.8154   17.8650 C.ar      2 PHE5        0.0000 
     65 CZ         17.4637   -7.5045   17.1778 C.ar      2 PHE5        0.0000 
     66 CA         17.7070   -6.1936   16.4906 C.3       3 GLY6        0.0000 
     67 CZ         17.9504   -4.8827   15.8034 C.ar      2 PHE5        0.0000 
     68 O          15.0547  -12.7089   19.4933 O.2       1 ALA2        0.0000 
     69 O          15.2980  -11.3979   18.8061 O.2       1 ALA2        0.0000 
     70 O          15.5414  -10.0870   18.1189 O.2       1 ALA2        0.0000 
     71 O          15.7848   -8.7761   17.4317 O.2       1 ALA2        0.0000 
     72 DU         16.0282   -7.4652   16.7444 H         4 CUB7        0.0000 
     73 O          16.2716   -6.1543   16.0572 O.2       1 ALA2        0.0000 
     74 N          13.8625  -11.3586   18.3727 N.2       1 ALA2        0.0000 
     75 CA         14.1059  -10.0477   17.6855 C.3       3 GLY6        0.0000 
     76 CA         14.3493   -8.7368   16.9983 C.3       3 GLY6        0.0000 
     77 CZ         14.5927   -7.4258   16.3111 C.ar      2 PHE5        0.0000 
     78 CZ         17.1030   -6.7765   18.4387 C.ar      2 PHE5        0.0000 
     79 CZ         17.3463   -5.4656   17.7515 C.ar      2 PHE5        0.0000 
     80 CZ         15.4241   -8.0481   18.6926 C.ar      2 PHE5        0.0000 
     81 N          15.6675   -6.7372   18.0054 N.2       1 ALA2        0.0000 
     82 N          15.9108   -5.4263   17.3182 N.2       1 ALA2        0.0000 
     83 CZ         13.9886   -8.0088   18.2592 C.ar      2 PHE5        0.0000 
     84 N          14.2320   -6.6979   17.5720 N.2       1 ALA2        0.0000 
@<TRIPOS>BOND
@<TRIPOS>SUBSTRUCTURE
     1 ALA2        4 GROUP   
     2 PHE5        2 GROUP   
     3 GLY6        1 GROUP   
     4 CUB7       15 GROUP   
@<TRIPOS>SET

