#    Name: 2ikg_BTO_1_INTS_M
#    Modification time : Tue Mar 25 18:19:45 2014

@<TRIPOS>MOLECULE
2ikg_BTO_1_INTS_M
   38     0     6     0     0
SMALL
NO_CHARGES


@<TRIPOS>ATOM
      1 CA         12.5770   -5.1410   11.3815 C.3       2 GLC5        0.0000 
      2 CA         14.5990   -5.2950   11.4120 C.3       6 GLL5        0.0000 
      3 CA         10.5550   -4.9870   11.3510 C.3       4 GLP5        0.0000 
      4 CA         18.4955   -6.1460   11.5000 C.3       2 GLC5        0.0000 
      5 CA         17.4080   -4.6810   11.7230 C.3       6 GLL5        0.0000 
      6 CA         19.5830   -7.6110   11.2770 C.3       4 GLP5        0.0000 
      7 N          19.7525   -4.0530   10.3135 N.am      1 SEC2        0.0000 
      8 N          18.4840   -2.9850   10.1740 N.am      5 SEL2        0.0000 
      9 N          21.0210   -5.1210   10.4530 N.am      3 SEP2        0.0000 
     10 CA         18.8175   -8.6115   18.1900 C.3       2 GLC5        0.0000 
     11 CA         18.2140   -7.8660   16.8540 C.3       6 GLL5        0.0000 
     12 CA         19.4210   -9.3570   19.5260 C.3       4 GLP5        0.0000 
     13 CA         19.8490   -8.5575   16.5225 C.3       2 GLC5        0.0000 
     14 CA         21.4840   -9.2490   16.1910 C.3       4 GLP5        0.0000 
     15 CA         19.3040   -6.2235   17.3730 C.3       2 GLC5        0.0000 
     16 CA         20.3940   -4.5810   17.8920 C.3       4 GLP5        0.0000 
     17 CA         17.6060   -8.7310   19.0085 C.3       2 GLC5        0.0000 
     18 CA         16.9030   -7.9370   17.6860 C.3       6 GLL5        0.0000 
     19 CA         18.3090   -9.5250   20.3310 C.3       4 GLP5        0.0000 
     20 CA         17.4615   -7.6250   19.9405 C.3       2 GLC5        0.0000 
     21 CA         16.8720   -6.6070   18.4880 C.3       6 GLL5        0.0000 
     22 CA         18.0510   -8.6430   21.3930 C.3       4 GLP5        0.0000 
     23 CA         18.6330   -5.5940   18.1900 C.3       2 GLC5        0.0000 
     24 CA         17.0530   -5.0985   19.2010 C.3       2 GLC5        0.0000 
     25 CA         17.2340   -3.5900   19.9140 C.3       4 GLP5        0.0000 
     26 N          14.5160   -5.7220   20.9430 N.am      1 SEC2        0.0000 
     27 N          15.3580   -5.7710   20.1150 N.am      5 SEL2        0.0000 
     28 N          13.6740   -5.6730   21.7710 N.am      3 SEP2        0.0000 
     29 CA         13.6378   -3.3790   11.5935 C.3       2 GLC5        0.0000 
     30 CA         12.3660   -1.9440   12.1960 C.3       4 GLP5        0.0000 
     31 CA         15.6608   -5.5480    9.3255 C.3       2 GLC5        0.0000 
     32 CA         15.2200   -4.3330   10.5700 C.3       6 GLL5        0.0000 
     33 CA         16.4120   -6.2820    7.6600 C.3       4 GLP5        0.0000 
     34 CA         16.7122   -5.3235    9.4423 C.3       2 GLC5        0.0000 
     35 CA         16.6170   -4.0490   10.7260 C.3       6 GLL5        0.0000 
     36 CA         17.1773   -7.0800   11.9028 C.3       2 GLC5        0.0000 
     37 CA         16.8590   -5.6570   12.5850 C.3       6 GLL5        0.0000 
     38 CA         18.2510   -8.3610   11.3080 C.3       4 GLP5        0.0000 
@<TRIPOS>BOND
@<TRIPOS>SUBSTRUCTURE
     1 SEC2        7 GROUP        1 X    SEC  0     ROOT SEC X 2
     2 GLC5        1 GROUP        1 X    GLC  0     **** GLC X 6
     3 SEP2        9 GROUP        1 Y    SEP  0     ROOT SEP Y 9
     4 GLP5        3 GROUP        1 Y    GLP  0     **** GLP Y 13
     5 SEL2        8 GROUP        1 Z    SEL  0     ROOT SEL Z 16
     6 GLL5        2 GROUP        1 Z    GLL  0     **** GLL Z 20
@<TRIPOS>SET

