#    Name: 2ikg_BTO_1_ligand
#    Modification time : Tue Mar 25 18:19:45 2014

@<TRIPOS>MOLECULE
2ikg_BTO_1_ligand
   30    31     1     0     0
SMALL
NO_CHARGES


@<TRIPOS>ATOM
      1 C1         14.5990   -5.2950   11.4120 C.ar      1 BTO317      0.0000 
      2 C2         15.2200   -4.3330   10.5700 C.ar      1 BTO317      0.0000 
      3 C3         16.6170   -4.0490   10.7260 C.ar      1 BTO317      0.0000 
      4 C4         17.4080   -4.6810   11.7230 C.ar      1 BTO317      0.0000 
      5 C5         16.8590   -5.6570   12.5850 C.ar      1 BTO317      0.0000 
      6 C6         15.3480   -5.9410   12.4100 C.ar      1 BTO317      0.0000 
      7 N          17.2900   -3.1280    9.9260 N.pl3     1 BTO317      0.0000 
      8 O          18.4840   -2.9850   10.1740 O.2       1 BTO317      0.0000 
      9 O1         16.6490   -2.5540    9.0660 O.2       1 BTO317      0.0000 
     10 C7         17.7440   -6.0660   13.7480 C.2       1 BTO317      0.0000 
     11 N1         17.2930   -6.7410   14.9120 N.2       1 BTO317      0.0000 
     12 C8         18.2520   -6.9820   15.6660 C.2       1 BTO317      0.0000 
     13 C9         18.2140   -7.8660   16.8540 C.3       1 BTO317      0.0000 
     14 C10        16.9030   -7.9370   17.6860 C.3       1 BTO317      0.0000 
     15 C11        16.8720   -6.6070   18.4880 C.3       1 BTO317      0.0000 
     16 C12        15.4890   -6.1830   18.9680 C.2       1 BTO317      0.0000 
     17 O13        15.3580   -5.7710   20.1150 O.co2     1 BTO317      0.0000 
     18 O14        14.5200   -6.2440   18.2500 O.co2     1 BTO317      0.0000 
     19 O15        19.3790   -6.4930   15.0660 O.3       1 BTO317      0.0000 
     20 N2         19.0150   -5.9130   13.8370 N.2       1 BTO317      0.0000 
     21 H          13.6098   -5.5113   11.2862 H         1 BTO317      0.0000 
     22 H          14.6830   -3.8469    9.8609 H         1 BTO317      0.0000 
     23 H          18.3986   -4.4208   11.8164 H         1 BTO317      0.0000 
     24 H          14.9503   -6.6106   13.0529 H         1 BTO317      0.0000 
     25 H          19.0394   -7.5833   17.5656 H         1 BTO317      0.0000 
     26 H          18.4688   -8.9204   16.5524 H         1 BTO317      0.0000 
     27 H          16.9548   -8.7533   18.3571 H         1 BTO317      0.0000 
     28 H          16.0719   -7.9751   17.0324 H         1 BTO317      0.0000 
     29 H          17.2975   -5.8116   17.8521 H         1 BTO317      0.0000 
     30 H          17.5434   -6.7136   19.3574 H         1 BTO317      0.0000 
@<TRIPOS>BOND
     1    2    1 ar   
     2    6    1 ar   
     3   21    1 1    
     4    3    2 ar   
     5   22    2 1    
     6    4    3 ar   
     7    7    3 1    
     8    5    4 ar   
     9   23    4 1    
    10    6    5 ar   
    11   10    5 1    
    12   24    6 1    
    13    8    7 2    
    14    9    7 2    
    15   11   10 1    
    16   20   10 2    
    17   12   11 2    
    18   13   12 1    
    19   19   12 1    
    20   14   13 1    
    21   25   13 1    
    22   26   13 1    
    23   15   14 1    
    24   27   14 1    
    25   28   14 1    
    26   16   15 1    
    27   29   15 1    
    28   30   15 1    
    29   17   16 ar   
    30   18   16 ar   
    31   20   19 1    
@<TRIPOS>SUBSTRUCTURE
     1 BTO317      1 GROUP   
@<TRIPOS>SET

