#    Name: 4b1i_A8P_1_INTS_M
#    Modification time : Tue Mar 25 06:34:35 2014

@<TRIPOS>MOLECULE
4b1i_A8P_1_INTS_M
  106     0     9     0     0
SMALL
NO_CHARGES


@<TRIPOS>ATOM
      1 CA         30.5125   -4.0080   -2.9775 C.3       3 GLC5        0.0000 
      2 CA         32.3510   -4.1170   -2.3930 C.3       9 GLL5        0.0000 
      3 CA         28.6740   -3.8990   -3.5620 C.3       6 GLP5        0.0000 
      4 CA         30.0135   -1.8705   -2.9950 C.3       3 GLC5        0.0000 
      5 CA         31.5690   -1.1500   -2.0460 C.3       9 GLL5        0.0000 
      6 CA         28.4580   -2.5910   -3.9440 C.3       6 GLP5        0.0000 
      7 CA         31.7220    1.3650   -2.2940 C.3       3 GLC5        0.0000 
      8 CA         31.1710   -0.0940   -0.9830 C.3       9 GLL5        0.0000 
      9 CA         32.2730    2.8240   -3.6050 C.3       6 GLP5        0.0000 
     10 CA         29.8495    1.7460   -2.5640 C.3       3 GLC5        0.0000 
     11 CA         29.8630    0.5770   -1.3600 C.3       9 GLL5        0.0000 
     12 CA         29.8360    2.9150   -3.7680 C.3       6 GLP5        0.0000 
     13 CA         29.1605   -1.0070   -2.6520 C.3       3 GLC5        0.0000 
     14 CA         28.7595    2.2890    1.0450 C.3       3 GLC5        0.0000 
     15 CA         28.8550    0.9050   -0.2920 C.3       9 GLL5        0.0000 
     16 CA         28.6640    3.6730    2.3820 C.3       6 GLP5        0.0000 
     17 CA         28.6765    2.1845   -1.7920 C.3       3 GLC5        0.0000 
     18 CA         28.4980    3.4640   -3.2920 C.3       6 GLP5        0.0000 
     19 CA         26.4130    0.0010    1.1105 C.3       3 GLC5        0.0000 
     20 CA         27.6480    0.0340   -0.3630 C.3       9 GLL5        0.0000 
     21 CA         25.1780   -0.0320    2.5840 C.3       6 GLP5        0.0000 
     22 CA         27.4155   -1.0495   -2.2935 C.3       3 GLC5        0.0000 
     23 CA         27.1830   -2.1330   -4.2240 C.3       6 GLP5        0.0000 
     24 CA         22.3120   -3.7610   -2.9435 C.3       3 GLC5        0.0000 
     25 CA         23.5590   -3.1750   -1.3900 C.3       9 GLL5        0.0000 
     26 CA         21.0650   -4.3470   -4.4970 C.3       6 GLP5        0.0000 
     27 N          21.6850   -5.1415   -1.6590 N.am      2 SEC2        0.0000 
     28 N          23.2050   -4.4720   -1.3740 N.am      8 SEL2        0.0000 
     29 N          20.1650   -5.8110   -1.9440 N.am      5 SEP2        0.0000 
     30 CA         22.5855   -5.5930   -2.5745 C.3       3 GLC5        0.0000 
     31 CA         24.0910   -5.3530   -0.9330 C.3       9 GLL5        0.0000 
     32 CA         21.0800   -5.8330   -4.2160 C.3       6 GLP5        0.0000 
     33 CA         22.9110   -5.6030    0.5695 C.3       3 GLC5        0.0000 
     34 CA         21.7310   -5.8530    2.0720 C.3       6 GLP5        0.0000 
     35 CA         23.6760   -7.3580   -1.4200 C.3       3 GLC5        0.0000 
     36 CA         23.2610   -9.3630   -1.9070 C.3       6 GLP5        0.0000 
     37 CA         25.9725   -5.7940   -1.9805 C.3       3 GLC5        0.0000 
     38 CA         27.8540   -6.2350   -3.0280 C.3       6 GLP5        0.0000 
     39 CA         26.7520   -5.0655   -1.7600 C.3       3 GLC5        0.0000 
     40 CA         25.6500   -3.8960   -0.4920 C.3       9 GLL5        0.0000 
     41 CA         26.7770   -4.3065    2.1355 C.3       3 GLC5        0.0000 
     42 CA         27.9860   -4.0500    0.4890 C.3       9 GLL5        0.0000 
     43 CA         25.5680   -4.5630    3.7820 C.3       6 GLP5        0.0000 
     44 CA         28.7975   -5.7585    1.5355 C.3       3 GLC5        0.0000 
     45 CA         29.6090   -7.4670    2.5820 C.3       6 GLP5        0.0000 
     46 CA         27.8000   -4.4260   -1.4960 C.3       3 GLC5        0.0000 
     47 CA         27.6140   -4.8020   -3.4810 C.3       6 GLP5        0.0000 
     48 CA         29.0255   -3.8585   -1.8370 C.3       3 GLC5        0.0000 
     49 CA         29.3770   -3.8180   -0.1120 C.3       9 GLL5        0.0000 
     50 CA         27.4870   -4.1170    3.0335 C.3       3 GLC5        0.0000 
     51 CA         29.4060   -3.6710    2.2850 C.3       9 GLL5        0.0000 
     52 CA         29.5075   -5.5690    2.4335 C.3       3 GLC5        0.0000 
     53 CA         27.6070   -3.1635    4.0600 C.3       3 GLC5        0.0000 
     54 CA         29.4470   -2.8380    3.5300 C.3       9 GLL5        0.0000 
     55 CA         25.7670   -3.4890    4.5900 C.3       6 GLP5        0.0000 
     56 CA         31.3180   -2.4215    3.8920 C.3       3 GLC5        0.0000 
     57 CA         33.1890   -2.0050    4.2540 C.3       6 GLP5        0.0000 
     58 N          31.8130    0.1335    4.8125 N.am      2 SEC2        0.0000 
     59 N          30.5450    0.1380    4.2070 N.am      8 SEL2        0.0000 
     60 N          33.0810    0.1290    5.4180 N.am      5 SEP2        0.0000 
     61 N          27.0920    1.4875    3.1655 N.am      2 SEC2        0.0000 
     62 N          28.0830    0.7280    4.0050 N.am      8 SEL2        0.0000 
     63 N          26.1010    2.2470    2.3260 N.am      5 SEP2        0.0000 
     64 N          28.7330   -3.3435    7.9820 N.am      2 SEC2        0.0000 
     65 N          28.5350   -1.8530    8.0030 N.am      8 SEL2        0.0000 
     66 N          28.9310   -4.8340    7.9610 N.am      5 SEP2        0.0000 
     67 N          31.7645   -2.4080    5.9920 N.am      2 SEC2        0.0000 
     68 N          30.8240   -1.7140    6.8920 N.am      8 SEL2        0.0000 
     69 N          32.7050   -3.1020    5.0920 N.am      5 SEP2        0.0000 
     70 N          32.0575   -1.1100    7.5100 N.am      2 SEC2        0.0000 
     71 N          33.2910   -0.5060    8.1280 N.am      5 SEP2        0.0000 
     72 CA         29.3775    1.4350   10.1495 C.3       3 GLC5        0.0000 
     73 CA         28.6540    0.9670    8.4500 C.3       9 GLL5        0.0000 
     74 CA         30.1010    1.9030   11.8490 C.3       6 GLP5        0.0000 
     75 CA         30.6635    2.3565    7.4645 C.3       3 GLC5        0.0000 
     76 CA         28.8210    2.4600    8.4350 C.3       9 GLL5        0.0000 
     77 CA         32.5060    2.2530    6.4940 C.3       6 GLP5        0.0000 
     78 CA         29.9945    2.2995    9.7570 C.3       3 GLC5        0.0000 
     79 CA         31.1680    2.1390   11.0790 C.3       6 GLP5        0.0000 
     80 CA         28.9725    2.5510   10.6000 C.3       3 GLC5        0.0000 
     81 CA         27.8440    3.1990    9.3510 C.3       9 GLL5        0.0000 
     82 CA         28.1080    3.9940    5.5675 C.3       3 GLC5        0.0000 
     83 CA         27.5010    4.0530    7.2050 C.3       9 GLL5        0.0000 
     84 CA         28.7150    3.9350    3.9300 C.3       6 GLP5        0.0000 
     85 O          24.6020    4.3410    9.1875 O.2       1 ALC1        0.0000 
     86 O          25.8520    4.5980    8.8990 O.2       7 ALL1        0.0000 
     87 O          23.3520    4.0840    9.4760 O.2       4 ALP1        0.0000 
     88 N          28.2975    4.7995   11.4020 N.am      2 SEC2        0.0000 
     89 N          28.4140    4.4070    9.9140 N.am      8 SEL2        0.0000 
     90 N          28.1810    5.1920   12.8900 N.am      5 SEP2        0.0000 
     91 N          30.0490   -6.5505   -0.1040 N.am      2 SEC2        0.0000 
     92 N          30.0410   -5.0380   -0.4500 N.am      8 SEL2        0.0000 
     93 N          30.0570   -8.0630    0.2420 N.am      5 SEP2        0.0000 
     94 O          21.2270   -2.1895   -1.9265 O.2       1 ALC1        0.0000 
     95 O          22.6700   -2.2660   -1.8480 O.2       7 ALL1        0.0000 
     96 O          19.7840   -2.1130   -2.0050 O.2       4 ALP1        0.0000 
     97 CA         32.2950    0.2437   -3.3297 C.3       3 GLC5        0.0000 
     98 CA         32.2960    1.8760   -4.6120 C.3       6 GLP5        0.0000 
     99 CA         24.4800   -2.2469    0.7275 C.3       3 GLC5        0.0000 
    100 CA         24.8570   -2.8560   -0.9220 C.3       9 GLL5        0.0000 
    101 CA         24.0310   -1.0380    2.2790 C.3       6 GLP5        0.0000 
    102 CA         26.5915    3.9395   10.6268 C.3       3 GLC5        0.0000 
    103 CA         26.7000    3.5630    8.4080 C.3       9 GLL5        0.0000 
    104 CA         25.9110    4.4980   12.3740 C.3       6 GLP5        0.0000 
    105 CA         25.1967    3.4555    7.2123 C.3       3 GLC5        0.0000 
    106 CA         23.2930    3.1030    6.6180 C.3       6 GLP5        0.0000 
@<TRIPOS>BOND
@<TRIPOS>SUBSTRUCTURE
     1 ALC1       85 GROUP        1 X    ALC  0     ROOT ALC X 1
     2 SEC2       27 GROUP        1 X    SEC  0     **** SEC X 2
     3 GLC5        1 GROUP        1 X    GLC  0     **** GLC X 6
     4 ALP1       87 GROUP        1 Y    ALP  0     ROOT ALP Y 8
     5 SEP2       29 GROUP        1 Y    SEP  0     **** SEP Y 9
     6 GLP5        3 GROUP        1 Y    GLP  0     **** GLP Y 13
     7 ALL1       86 GROUP        1 Z    ALL  0     ROOT ALL Z 15
     8 SEL2       28 GROUP        1 Z    SEL  0     **** SEL Z 16
     9 GLL5        2 GROUP        1 Z    GLL  0     **** GLL Z 20
@<TRIPOS>SET

