#    Name: 4b1i_A8P_1_ligand
#    Modification time : Tue Mar 25 06:34:35 2014

@<TRIPOS>MOLECULE
4b1i_A8P_1_ligand
   82    85     1     0     0
SMALL
NO_CHARGES


@<TRIPOS>ATOM
      1 C1         32.3510   -4.1170   -2.3930 C.3       1 A8P1967     0.0000 
      2 C2         33.2760   -3.1110   -1.7410 C.3       1 A8P1967     0.0000 
      3 C3         33.0190   -1.6270   -2.0490 C.3       1 A8P1967     0.0000 
      4 C4         31.5690   -1.1500   -2.0460 C.3       1 A8P1967     0.0000 
      5 C5         31.1710   -0.0940   -0.9830 C.3       1 A8P1967     0.0000 
      6 C6         29.8630    0.5770   -1.3600 C.3       1 A8P1967     0.0000 
      7 C7         28.8550    0.9050   -0.2920 C.3       1 A8P1967     0.0000 
      8 C8         27.6480    0.0340   -0.3630 C.3       1 A8P1967     0.0000 
      9 N9         27.7110   -1.1550    0.0470 N.pl3     1 A8P1967     0.0000 
     10 C10        26.6820   -1.9630   -0.2720 C.2       1 A8P1967     0.0000 
     11 N11        25.5140   -1.6500   -0.7840 N.2       1 A8P1967     0.0000 
     12 C12        24.8570   -2.8560   -0.9220 C.ar      1 A8P1967     0.0000 
     13 C13        23.5590   -3.1750   -1.3900 C.ar      1 A8P1967     0.0000 
     14 N14        23.2050   -4.4720   -1.3740 N.ar      1 A8P1967     0.0000 
     15 C15        24.0910   -5.3530   -0.9330 C.ar      1 A8P1967     0.0000 
     16 N16        25.3230   -5.1790   -0.4700 N.ar      1 A8P1967     0.0000 
     17 C17        25.6500   -3.8960   -0.4920 C.ar      1 A8P1967     0.0000 
     18 N18        26.8380   -3.3230   -0.0820 N.pl3     1 A8P1967     0.0000 
     19 C19        27.9860   -4.0500    0.4890 C.3       1 A8P1967     0.0000 
     20 C20        29.3770   -3.8180   -0.1120 C.3       1 A8P1967     0.0000 
     21 C21        30.0820   -3.1010    1.0550 C.3       1 A8P1967     0.0000 
     22 C22        29.4060   -3.6710    2.2850 C.3       1 A8P1967     0.0000 
     23 O23        28.0430   -3.7930    1.8740 O.3       1 A8P1967     0.0000 
     24 C24        29.4470   -2.8380    3.5300 C.3       1 A8P1967     0.0000 
     25 O25        28.9010   -1.5470    3.2560 O.3       1 A8P1967     0.0000 
     26 P26        29.1430   -0.3460    4.2410 P.3       1 A8P1967     0.0000 
     27 O27        30.5450    0.1380    4.2070 O.co2     1 A8P1967     0.0000 
     28 O28        28.0830    0.7280    4.0050 O.co2     1 A8P1967     0.0000 
     29 O29        28.7380   -1.0420    5.6130 O.3       1 A8P1967     0.0000 
     30 P30        29.4170   -1.1280    7.0520 P.3       1 A8P1967     0.0000 
     31 O31        28.5350   -1.8530    8.0030 O.co2     1 A8P1967     0.0000 
     32 O32        30.8240   -1.7140    6.8920 O.co2     1 A8P1967     0.0000 
     33 O33        29.5150    0.4020    7.4350 O.3       1 A8P1967     0.0000 
     34 C34        28.6540    0.9670    8.4500 C.3       1 A8P1967     0.0000 
     35 C35        28.8210    2.4600    8.4350 C.3       1 A8P1967     0.0000 
     36 C36        27.8440    3.1990    9.3510 C.3       1 A8P1967     0.0000 
     37 C37        26.7000    3.5630    8.4080 C.3       1 A8P1967     0.0000 
     38 C38        27.5010    4.0530    7.2050 C.3       1 A8P1967     0.0000 
     39 N39        28.5570    3.0210    7.0970 N.4       1 A8P1967     0.0000 
     40 O40        25.8520    4.5980    8.8990 O.3       1 A8P1967     0.0000 
     41 O41        28.4140    4.4070    9.9140 O.3       1 A8P1967     0.0000 
     42 O42        31.4700   -3.3770    1.1430 O.3       1 A8P1967     0.0000 
     43 O43        30.0410   -5.0380   -0.4500 O.3       1 A8P1967     0.0000 
     44 N44        22.6700   -2.2660   -1.8480 N.pl3     1 A8P1967     0.0000 
     45 H          34.3290   -3.3471   -2.0266 H         1 A8P1967     0.0000 
     46 H          33.2382   -3.2470   -0.6337 H         1 A8P1967     0.0000 
     47 H          33.4700   -1.3932   -3.0439 H         1 A8P1967     0.0000 
     48 H          33.5988   -1.0127   -1.3180 H         1 A8P1967     0.0000 
     49 H          30.8989   -2.0326   -1.9216 H         1 A8P1967     0.0000 
     50 H          31.3233   -0.7352   -3.0515 H         1 A8P1967     0.0000 
     51 H          31.9621    0.6481   -0.9191 H         1 A8P1967     0.0000 
     52 H          31.0678   -0.5914   -0.0225 H         1 A8P1967     0.0000 
     53 H          29.3568   -0.0619   -2.1466 H         1 A8P1967     0.0000 
     54 H          30.1084    1.5275   -1.9254 H         1 A8P1967     0.0000 
     55 H          28.5556    1.9610   -0.3925 H         1 A8P1967     0.0000 
     56 H          29.3309    0.7979    0.6964 H         1 A8P1967     0.0000 
     57 H          27.2889    0.1236   -1.4679 H         1 A8P1967     0.0000 
     58 H          26.8088    0.6568    0.1523 H         1 A8P1967     0.0000 
     59 H          28.4982   -1.5352    0.6058 H         1 A8P1967     0.0000 
     60 H          23.7446   -6.4196   -0.9539 H         1 A8P1967     0.0000 
     61 H          27.7813   -5.1547    0.3704 H         1 A8P1967     0.0000 
     62 H          29.2836   -3.1266   -0.9028 H         1 A8P1967     0.0000 
     63 H          29.8480   -2.0674    1.0050 H         1 A8P1967     0.0000 
     64 H          29.8048   -4.6530    2.4727 H         1 A8P1967     0.0000 
     65 H          30.4891   -2.7676    3.8678 H         1 A8P1967     0.0000 
     66 H          28.8776   -3.3545    4.3136 H         1 A8P1967     0.0000 
     67 H          28.9175    0.5937    9.4405 H         1 A8P1967     0.0000 
     68 H          27.6077    0.7283    8.2546 H         1 A8P1967     0.0000 
     69 H          29.8210    2.7329    8.7345 H         1 A8P1967     0.0000 
     70 H          27.4757    2.5259   10.0736 H         1 A8P1967     0.0000 
     71 H          26.2083    2.6753    8.1226 H         1 A8P1967     0.0000 
     72 H          27.9164    5.0021    7.4257 H         1 A8P1967     0.0000 
     73 H          26.8785    4.0529    6.3479 H         1 A8P1967     0.0000 
     74 H          21.7054   -2.4718   -1.6828 H         1 A8P1967     0.0000 
     75 H          23.0556   -1.4682   -2.3115 H         1 A8P1967     0.0000 
     76 H          32.3899   -4.0651   -3.3909 H         1 A8P1967     0.0000 
     77 H          32.5847   -5.0555   -2.1390 H         1 A8P1967     0.0000 
     78 H          31.3977   -3.9706   -2.1289 H         1 A8P1967     0.0000 
     79 H          24.9536    4.1705    8.9995 H         1 A8P1967     0.0000 
     80 H          27.6443    5.0392   10.0028 H         1 A8P1967     0.0000 
     81 H          31.9021   -2.7346    0.5100 H         1 A8P1967     0.0000 
     82 H          30.9770   -4.9240   -0.1168 H         1 A8P1967     0.0000 
@<TRIPOS>BOND
     1    2    1 1    
     2   76    1 1    
     3   77    1 1    
     4   78    1 1    
     5    3    2 1    
     6   45    2 1    
     7   46    2 1    
     8    4    3 1    
     9   47    3 1    
    10   48    3 1    
    11    5    4 1    
    12   49    4 1    
    13   50    4 1    
    14    6    5 1    
    15   51    5 1    
    16   52    5 1    
    17    7    6 1    
    18   53    6 1    
    19   54    6 1    
    20    8    7 1    
    21   55    7 1    
    22   56    7 1    
    23    9    8 1    
    24   57    8 1    
    25   58    8 1    
    26   10    9 1    
    27   59    9 1    
    28   11   10 2    
    29   18   10 1    
    30   12   11 1    
    31   13   12 ar   
    32   17   12 ar   
    33   14   13 ar   
    34   44   13 1    
    35   15   14 ar   
    36   16   15 ar   
    37   60   15 1    
    38   17   16 ar   
    39   18   17 1    
    40   19   18 1    
    41   20   19 1    
    42   23   19 1    
    43   61   19 1    
    44   21   20 1    
    45   43   20 1    
    46   62   20 1    
    47   22   21 1    
    48   42   21 1    
    49   63   21 1    
    50   23   22 1    
    51   24   22 1    
    52   64   22 1    
    53   25   24 1    
    54   65   24 1    
    55   66   24 1    
    56   26   25 1    
    57   27   26 ar   
    58   28   26 ar   
    59   29   26 1    
    60   30   29 1    
    61   31   30 ar   
    62   32   30 ar   
    63   33   30 1    
    64   34   33 1    
    65   35   34 1    
    66   67   34 1    
    67   68   34 1    
    68   36   35 1    
    69   39   35 1    
    70   69   35 1    
    71   37   36 1    
    72   41   36 1    
    73   70   36 1    
    74   38   37 1    
    75   40   37 1    
    76   71   37 1    
    77   39   38 1    
    78   72   38 1    
    79   73   38 1    
    80   79   40 1    
    81   80   41 1    
    82   81   42 1    
    83   82   43 1    
    84   74   44 1    
    85   75   44 1    
@<TRIPOS>SUBSTRUCTURE
     1 A8P1967     1 GROUP   
@<TRIPOS>SET

