#    Name: 4equ_G6I_2_INTS_M
#    Modification time : Mon Mar 24 18:30:25 2014

@<TRIPOS>MOLECULE
4equ_G6I_2_INTS_M
  111     0     9     0     0
SMALL
NO_CHARGES


@<TRIPOS>ATOM
      1 O          57.8255  -20.6030   58.0360 O.2       1 ALC1        0.0000 
      2 O          58.7410  -20.5800   56.8240 O.2       7 ALL1        0.0000 
      3 O          56.9100  -20.6260   59.2480 O.2       4 ALP1        0.0000 
      4 CA         61.3935  -18.6855   56.3450 C.3       3 GLC5        0.0000 
      5 CA         59.3140  -19.4630   56.3410 C.3       9 GLL5        0.0000 
      6 CA         63.4730  -17.9080   56.3490 C.3       6 GLP5        0.0000 
      7 CA         57.8815  -18.6910   57.8000 C.3       3 GLC5        0.0000 
      8 CA         56.4490  -17.9190   59.2590 C.3       6 GLP5        0.0000 
      9 CA         58.0695  -17.9375   55.8135 C.3       3 GLC5        0.0000 
     10 CA         56.8250  -16.4120   55.2860 C.3       6 GLP5        0.0000 
     11 N          59.0305  -18.3840   58.6945 N.am      2 SEC2        0.0000 
     12 N          59.3830  -18.4010   57.1750 N.am      8 SEL2        0.0000 
     13 N          58.6780  -18.3670   60.2140 N.am      5 SEP2        0.0000 
     14 CA         61.6940  -17.5930   56.5280 C.3       3 GLC5        0.0000 
     15 CA         59.9150  -17.2780   56.7070 C.3       9 GLL5        0.0000 
     16 CA         60.5390  -15.2735   57.0055 C.3       3 GLC5        0.0000 
     17 CA         61.1630  -13.2690   57.3040 C.3       6 GLP5        0.0000 
     18 CA         60.4490  -17.5625   58.7060 C.3       3 GLC5        0.0000 
     19 CA         60.9830  -17.8470   60.7050 C.3       6 GLP5        0.0000 
     20 CA         58.2735  -16.6995   57.9780 C.3       3 GLC5        0.0000 
     21 CA         56.6320  -16.1210   59.2490 C.3       6 GLP5        0.0000 
     22 CA         58.3700  -16.8450   55.9965 C.3       3 GLC5        0.0000 
     23 CA         58.5630  -17.3000   54.9610 C.3       3 GLC5        0.0000 
     24 CA         60.3010  -18.1880   54.6360 C.3       9 GLL5        0.0000 
     25 CA         62.0110  -20.5455   53.9775 C.3       3 GLC5        0.0000 
     26 CA         60.7990  -19.2950   52.5680 C.3       9 GLL5        0.0000 
     27 CA         63.2230  -21.7960   55.3870 C.3       6 GLP5        0.0000 
     28 CA         63.1550  -18.1045   52.4420 C.3       3 GLC5        0.0000 
     29 CA         61.3080  -16.9290   52.7290 C.3       9 GLL5        0.0000 
     30 CA         65.0020  -19.2800   52.1550 C.3       6 GLP5        0.0000 
     31 CA         64.6375  -17.4140   52.8115 C.3       3 GLC5        0.0000 
     32 CA         64.2730  -15.5480   53.4680 C.3       9 GLL5        0.0000 
     33 CA         63.8730  -16.7280   54.9085 C.3       3 GLC5        0.0000 
     34 CA         66.1165  -16.2340   54.3315 C.3       3 GLC5        0.0000 
     35 CA         67.9600  -16.9200   55.1950 C.3       6 GLP5        0.0000 
     36 O          62.0235  -10.8380   50.4465 O.2       1 ALC1        0.0000 
     37 O          61.0570  -11.3050   51.4380 O.2       7 ALL1        0.0000 
     38 O          62.9900  -10.3710   49.4550 O.2       4 ALP1        0.0000 
     39 N          57.7710  -12.0190   51.0555 N.am      2 SEC2        0.0000 
     40 N          58.8950  -11.9190   51.9570 N.am      8 SEL2        0.0000 
     41 N          56.6470  -12.1190   50.1540 N.am      5 SEP2        0.0000 
     42 CA         56.7840  -10.7375   51.8565 C.3       3 GLC5        0.0000 
     43 CA         57.9880   -9.2280   51.4330 C.3       9 GLL5        0.0000 
     44 CA         55.5800  -12.2470   52.2800 C.3       6 GLP5        0.0000 
     45 CA         59.9900   -8.6725   47.5030 C.3       3 GLC5        0.0000 
     46 CA         59.3910   -7.8500   49.4740 C.3       9 GLL5        0.0000 
     47 CA         60.5890   -9.4950   45.5320 C.3       6 GLP5        0.0000 
     48 CA         58.5840   -5.3775   50.3475 C.3       3 GLC5        0.0000 
     49 CA         58.1940   -7.3150   49.9710 C.3       9 GLL5        0.0000 
     50 CA         58.9740   -3.4400   50.7240 C.3       6 GLP5        0.0000 
     51 CA         58.9805   -7.9925   52.4075 C.3       3 GLC5        0.0000 
     52 CA         57.4920   -8.0180   50.9550 C.3       9 GLL5        0.0000 
     53 CA         60.4690   -7.9670   53.8600 C.3       6 GLP5        0.0000 
     54 CA         53.3600   -9.0980   52.1745 C.3       3 GLC5        0.0000 
     55 CA         55.3440   -8.4420   51.7810 C.3       9 GLL5        0.0000 
     56 CA         51.3760   -9.7540   52.5680 C.3       6 GLP5        0.0000 
     57 CA         55.4620  -10.3445   52.0305 C.3       3 GLC5        0.0000 
     58 CA         58.4665   -7.3790   53.2335 C.3       3 GLC5        0.0000 
     59 CA         56.4640   -6.7910   52.6070 C.3       9 GLL5        0.0000 
     60 CA         56.6415   -4.8425   53.2905 C.3       3 GLC5        0.0000 
     61 CA         56.8190   -2.8940   53.9740 C.3       6 GLP5        0.0000 
     62 CA         55.1455   -4.9920   52.7670 C.3       3 GLC5        0.0000 
     63 CA         53.8270   -3.1930   52.9270 C.3       6 GLP5        0.0000 
     64 CA         53.9375   -5.7350   51.1815 C.3       3 GLC5        0.0000 
     65 CA         55.5530   -6.6870   50.6490 C.3       9 GLL5        0.0000 
     66 CA         52.3220   -4.7830   51.7140 C.3       6 GLP5        0.0000 
     67 CA         56.2645   -6.0835   48.9355 C.3       3 GLC5        0.0000 
     68 CA         56.9760   -5.4800   47.2220 C.3       6 GLP5        0.0000 
     69 CA         56.3223  -23.3485   56.1903 C.3       3 GLC5        0.0000 
     70 CA         58.2900  -24.4540   55.3370 C.3       9 GLL5        0.0000 
     71 CA         54.5210  -22.4140   56.3970 C.3       6 GLP5        0.0000 
     72 CA         60.6335  -23.6180   55.2395 C.3       3 GLC5        0.0000 
     73 CA         58.7740  -23.4520   54.4910 C.3       9 GLL5        0.0000 
     74 CA         62.5280  -24.1940   55.5530 C.3       6 GLP5        0.0000 
     75 CA         56.4460  -22.3608   56.5302 C.3       3 GLC5        0.0000 
     76 CA         58.6200  -21.8020   56.2510 C.3       9 GLL5        0.0000 
     77 CA         63.2024  -18.9877   51.7395 C.3       3 GLC5        0.0000 
     78 CA         61.7630  -18.0970   50.7360 C.3       9 GLL5        0.0000 
     79 CA         62.2016  -17.7235   54.8514 C.3       3 GLC5        0.0000 
     80 CA         65.4008  -15.0470   51.9970 C.3       3 GLC5        0.0000 
     81 CA         63.3400  -14.4720   52.9340 C.3       9 GLL5        0.0000 
     82 CA         66.9950  -15.0840   50.7930 C.3       6 GLP5        0.0000 
     83 CA         63.2507  -13.6985   54.3905 C.3       3 GLC5        0.0000 
     84 CA         62.6950  -12.3870   55.5800 C.3       6 GLP5        0.0000 
     85 CA         64.2802  -13.1800   50.4840 C.3       3 GLC5        0.0000 
     86 CA         63.9130  -13.3040   52.4690 C.3       9 GLL5        0.0000 
     87 CA         65.0420  -13.5660   48.7500 C.3       6 GLP5        0.0000 
     88 CA         64.9313  -11.6610   52.7165 C.3       3 GLC5        0.0000 
     89 CA         66.3440  -10.5280   53.2150 C.3       6 GLP5        0.0000 
     90 CA         62.6710  -10.3057   52.6025 C.3       3 GLC5        0.0000 
     91 CA         63.1240  -12.2840   51.9670 C.3       9 GLL5        0.0000 
     92 CA         62.9110   -8.2760   53.2620 C.3       6 GLP5        0.0000 
     93 CA         58.4735  -10.0188   53.1595 C.3       3 GLC5        0.0000 
     94 CA         59.1900   -9.7550   50.9590 C.3       9 GLL5        0.0000 
     95 CA         58.3580  -10.5460   55.1230 C.3       6 GLP5        0.0000 
     96 CA         57.6285  -10.1943   49.5880 C.3       3 GLC5        0.0000 
     97 CA         56.6680  -10.8970   47.9800 C.3       6 GLP5        0.0000 
     98 CA         61.4990   -8.2515   49.4258 C.3       3 GLC5        0.0000 
     99 CA         59.8910   -9.0540   49.9630 C.3       9 GLL5        0.0000 
    100 CA         63.3570   -8.0510   49.1330 C.3       6 GLP5        0.0000 
    101 CA         59.8545   -8.6199   52.2198 C.3       3 GLC5        0.0000 
    102 CA         58.1545   -9.6745   48.8492 C.3       3 GLC5        0.0000 
    103 CA         57.8842   -6.5312   48.4723 C.3       3 GLC5        0.0000 
    104 CA         57.2555   -9.2817   49.2215 C.3       3 GLC5        0.0000 
    105 CA         55.8735   -7.2572   54.0425 C.3       3 GLC5        0.0000 
    106 CA         56.1720   -7.4660   51.5130 C.3       9 GLL5        0.0000 
    107 CA         55.6360   -7.1420   55.9580 C.3       6 GLP5        0.0000 
    108 CA         54.1912   -7.9333   50.1290 C.3       3 GLC5        0.0000 
    109 CA         52.7270   -8.5460   49.1100 C.3       6 GLP5        0.0000 
    110 CA         62.6393  -12.7025   53.9169 C.3       3 GLC5        0.0000 
    111 CA         61.7380  -12.3870   51.9190 C.3       9 GLL5        0.0000 
@<TRIPOS>BOND
@<TRIPOS>SUBSTRUCTURE
     1 ALC1        1 GROUP        1 X    ALC  0     ROOT ALC X 1
     2 SEC2       11 GROUP        1 X    SEC  0     **** SEC X 2
     3 GLC5        4 GROUP        1 X    GLC  0     **** GLC X 6
     4 ALP1        3 GROUP        1 Y    ALP  0     ROOT ALP Y 8
     5 SEP2       13 GROUP        1 Y    SEP  0     **** SEP Y 9
     6 GLP5        6 GROUP        1 Y    GLP  0     **** GLP Y 13
     7 ALL1        2 GROUP        1 Z    ALL  0     ROOT ALL Z 15
     8 SEL2       12 GROUP        1 Z    SEL  0     **** SEL Z 16
     9 GLL5        5 GROUP        1 Z    GLL  0     **** GLL Z 20
@<TRIPOS>SET

