#    Name: 4equ_G6I_2_ligand
#    Modification time : Mon Mar 24 18:30:25 2014

@<TRIPOS>MOLECULE
4equ_G6I_2_ligand
   66    70     1     0     0
SMALL
NO_CHARGES


@<TRIPOS>ATOM
      1 CAA        58.9040  -26.2770   53.8270 C.3       1 G6I401      0.0000 
      2 OBC        58.1010  -25.7640   54.9500 O.3       1 G6I401      0.0000 
      3 CBH        58.2900  -24.4540   55.3370 C.ar      1 G6I401      0.0000 
      4 CAR        58.7740  -23.4520   54.4910 C.ar      1 G6I401      0.0000 
      5 CAP        58.9460  -22.1310   54.9380 C.ar      1 G6I401      0.0000 
      6 CAS        57.9570  -24.1120   56.6300 C.ar      1 G6I401      0.0000 
      7 CAQ        58.1220  -22.8130   57.0760 C.ar      1 G6I401      0.0000 
      8 CBF        58.6200  -21.8020   56.2510 C.ar      1 G6I401      0.0000 
      9 NBA        58.7410  -20.5800   56.8240 N.pl3     1 G6I401      0.0000 
     10 CBK        59.3140  -19.4630   56.3410 C.ar      1 G6I401      0.0000 
     11 NAY        59.7810  -19.3390   55.0820 N.ar      1 G6I401      0.0000 
     12 NAW        59.3830  -18.4010   57.1750 N.ar      1 G6I401      0.0000 
     13 CAJ        59.9150  -17.2780   56.7070 C.ar      1 G6I401      0.0000 
     14 NAX        60.3440  -17.1460   55.4660 N.ar      1 G6I401      0.0000 
     15 CBM        60.3010  -18.1880   54.6360 C.ar      1 G6I401      0.0000 
     16 CBO        60.8040  -18.1100   53.3210 C.ar      1 G6I401      0.0000 
     17 CAN        60.7990  -19.2950   52.5680 C.ar      1 G6I401      0.0000 
     18 CAG        61.2860  -19.2930   51.2560 C.ar      1 G6I401      0.0000 
     19 CAI        61.7630  -18.0970   50.7360 C.ar      1 G6I401      0.0000 
     20 NAV        61.7360  -16.9780   51.4630 N.ar      1 G6I401      0.0000 
     21 CBN        61.3080  -16.9290   52.7290 C.ar      1 G6I401      0.0000 
     22 NBB        61.3400  -15.7550   53.3660 N.pl3     1 G6I401      0.0000 
     23 CBL        61.9400  -14.6320   52.9060 C.ar      1 G6I401      0.0000 
     24 CAT        61.1780  -13.5620   52.4150 C.ar      1 G6I401      0.0000 
     25 CBE        63.3400  -14.4720   52.9340 C.ar      1 G6I401      0.0000 
     26 CAB        64.2730  -15.5480   53.4680 C.3       1 G6I401      0.0000 
     27 CAM        63.9130  -13.3040   52.4690 C.ar      1 G6I401      0.0000 
     28 CAO        63.1240  -12.2840   51.9670 C.ar      1 G6I401      0.0000 
     29 CBG        61.7380  -12.3870   51.9190 C.ar      1 G6I401      0.0000 
     30 NAZ        61.0570  -11.3050   51.4380 N.am      1 G6I401      0.0000 
     31 CBD        59.7100  -11.0980   51.5200 C.2       1 G6I401      0.0000 
     32 OAC        58.8950  -11.9190   51.9570 O.2       1 G6I401      0.0000 
     33 CBI        59.1900   -9.7550   50.9590 C.ar      1 G6I401      0.0000 
     34 CAU        57.9880   -9.2280   51.4330 C.ar      1 G6I401      0.0000 
     35 CAK        59.8910   -9.0540   49.9630 C.ar      1 G6I401      0.0000 
     36 CAH        59.3910   -7.8500   49.4740 C.ar      1 G6I401      0.0000 
     37 CAL        58.1940   -7.3150   49.9710 C.ar      1 G6I401      0.0000 
     38 CBJ        57.4920   -8.0180   50.9550 C.ar      1 G6I401      0.0000 
     39 CBP        56.1720   -7.4660   51.5130 C.3       1 G6I401      0.0000 
     40 FAF        55.3440   -8.4420   51.7810 F         1 G6I401      0.0000 
     41 FAD        56.4640   -6.7910   52.6070 F         1 G6I401      0.0000 
     42 FAE        55.5530   -6.6870   50.6490 F         1 G6I401      0.0000 
     43 H          59.0125  -23.6857   53.5104 H         1 G6I401      0.0000 
     44 H          59.3086  -21.4201   54.2987 H         1 G6I401      0.0000 
     45 H          57.5810  -24.8300   57.2730 H         1 G6I401      0.0000 
     46 H          57.8678  -22.5750   58.0597 H         1 G6I401      0.0000 
     47 H          58.3033  -20.4917   57.8373 H         1 G6I401      0.0000 
     48 H          59.9984  -16.4413   57.3711 H         1 G6I401      0.0000 
     49 H          60.4382  -20.1606   52.9810 H         1 G6I401      0.0000 
     50 H          61.2883  -20.1441   50.7044 H         1 G6I401      0.0000 
     51 H          62.1419  -18.0979   49.7640 H         1 G6I401      0.0000 
     52 H          60.8497  -15.6894   54.3258 H         1 G6I401      0.0000 
     53 H          60.1324  -13.6551   52.4233 H         1 G6I401      0.0000 
     54 H          64.9413  -13.1899   52.4959 H         1 G6I401      0.0000 
     55 H          63.5775  -11.4148   51.6150 H         1 G6I401      0.0000 
     56 H          61.6399  -10.5405   50.9459 H         1 G6I401      0.0000 
     57 H          57.4558   -9.7477   52.1539 H         1 G6I401      0.0000 
     58 H          60.7718   -9.4346   49.5994 H         1 G6I401      0.0000 
     59 H          59.9043   -7.3421   48.7371 H         1 G6I401      0.0000 
     60 H          57.8421   -6.4263   49.6189 H         1 G6I401      0.0000 
     61 H          59.8842  -26.2293   54.0190 H         1 G6I401      0.0000 
     62 H          58.6912  -27.2329   53.6244 H         1 G6I401      0.0000 
     63 H          58.7440  -25.7569   52.9880 H         1 G6I401      0.0000 
     64 H          65.2318  -15.2695   53.4118 H         1 G6I401      0.0000 
     65 H          64.0851  -15.7600   54.4270 H         1 G6I401      0.0000 
     66 H          64.1856  -16.4027   52.9563 H         1 G6I401      0.0000 
@<TRIPOS>BOND
     1    2    1 1    
     2   61    1 1    
     3   62    1 1    
     4   63    1 1    
     5    3    2 1    
     6    4    3 ar   
     7    6    3 ar   
     8    5    4 ar   
     9   43    4 1    
    10    8    5 ar   
    11   44    5 1    
    12    7    6 ar   
    13   45    6 1    
    14    8    7 ar   
    15   46    7 1    
    16    9    8 1    
    17   10    9 1    
    18   47    9 1    
    19   11   10 ar   
    20   12   10 ar   
    21   15   11 ar   
    22   13   12 ar   
    23   14   13 ar   
    24   48   13 1    
    25   15   14 ar   
    26   16   15 1    
    27   17   16 ar   
    28   21   16 ar   
    29   18   17 ar   
    30   49   17 1    
    31   19   18 ar   
    32   50   18 1    
    33   20   19 ar   
    34   51   19 1    
    35   21   20 ar   
    36   22   21 1    
    37   23   22 1    
    38   52   22 1    
    39   24   23 ar   
    40   25   23 ar   
    41   29   24 ar   
    42   53   24 1    
    43   26   25 1    
    44   27   25 ar   
    45   64   26 1    
    46   65   26 1    
    47   66   26 1    
    48   28   27 ar   
    49   54   27 1    
    50   29   28 ar   
    51   55   28 1    
    52   30   29 1    
    53   31   30 am   
    54   56   30 1    
    55   32   31 2    
    56   33   31 1    
    57   34   33 ar   
    58   35   33 ar   
    59   38   34 ar   
    60   57   34 1    
    61   36   35 ar   
    62   58   35 1    
    63   37   36 ar   
    64   59   36 1    
    65   38   37 ar   
    66   60   37 1    
    67   39   38 1    
    68   40   39 1    
    69   41   39 1    
    70   42   39 1    
@<TRIPOS>SUBSTRUCTURE
     1 G6I401      1 GROUP   
@<TRIPOS>SET

