#    Name: 3vsw_R31_1_INTS_M
#    Modification time : Tue Mar 25 01:30:58 2014

@<TRIPOS>MOLECULE
3vsw_R31_1_INTS_M
   94     0     9     0     0
SMALL
NO_CHARGES


@<TRIPOS>ATOM
      1 CA        177.6265  197.4375   98.3405 C.3       3 GLC5        0.0000 
      2 CA        176.5800  198.7880   97.1730 C.3       9 GLL5        0.0000 
      3 CA        178.6730  196.0870   99.5080 C.3       6 GLP5        0.0000 
      4 CA        179.8635  197.7080   94.9575 C.3       3 GLC5        0.0000 
      5 CA        178.3310  198.9100   95.4420 C.3       9 GLL5        0.0000 
      6 CA        181.3960  196.5060   94.4730 C.3       6 GLP5        0.0000 
      7 CA        177.2685  197.9630   92.6020 C.3       3 GLC5        0.0000 
      8 CA        177.2820  198.9760   94.3060 C.3       9 GLL5        0.0000 
      9 CA        177.2550  196.9500   90.8980 C.3       6 GLP5        0.0000 
     10 CA        173.6805  198.7445   90.0075 C.3       3 GLC5        0.0000 
     11 CA        173.5990  197.8190   91.9430 C.3       9 GLL5        0.0000 
     12 CA        173.7620  199.6700   88.0720 C.3       6 GLP5        0.0000 
     13 CA        172.6025  195.4390   93.7880 C.3       3 GLC5        0.0000 
     14 CA        173.4130  196.4010   92.0510 C.3       9 GLL5        0.0000 
     15 CA        171.7920  194.4770   95.5250 C.3       6 GLP5        0.0000 
     16 CA        173.8250  195.2770   90.5490 C.3       3 GLC5        0.0000 
     17 CA        174.2370  194.1530   89.0470 C.3       6 GLP5        0.0000 
     18 CA        174.2040  193.6640   92.9365 C.3       3 GLC5        0.0000 
     19 CA        174.2030  195.6480   92.9510 C.3       9 GLL5        0.0000 
     20 CA        174.2050  191.6800   92.9220 C.3       6 GLP5        0.0000 
     21 CA        174.7900  194.7255   91.4655 C.3       3 GLC5        0.0000 
     22 CA        175.3770  193.8030   89.9800 C.3       6 GLP5        0.0000 
     23 CA        174.2865  200.1735   89.9360 C.3       3 GLC5        0.0000 
     24 CA        174.8110  200.6770   91.8000 C.3       9 GLL5        0.0000 
     25 CA        175.7690  198.9535   90.7180 C.3       3 GLC5        0.0000 
     26 CA        176.7270  197.2300   89.6360 C.3       6 GLP5        0.0000 
     27 CA        177.2255  202.8410   93.2975 C.3       3 GLC5        0.0000 
     28 CA        175.4900  201.9500   92.3220 C.3       9 GLL5        0.0000 
     29 CA        178.9610  203.7320   94.2730 C.3       6 GLP5        0.0000 
     30 CA        175.2485  202.3970   89.2655 C.3       3 GLC5        0.0000 
     31 CA        175.6610  202.9240   91.1530 C.3       9 GLL5        0.0000 
     32 CA        174.8360  201.8700   87.3780 C.3       6 GLP5        0.0000 
     33 CA        176.1280  202.9845   88.8080 C.3       3 GLC5        0.0000 
     34 CA        177.4200  204.0990   90.2380 C.3       9 GLL5        0.0000 
     35 CA        177.9675  204.3940   88.4435 C.3       3 GLC5        0.0000 
     36 CA        178.5150  204.6890   86.6490 C.3       6 GLP5        0.0000 
     37 CA        178.5625  205.6360   89.6885 C.3       3 GLC5        0.0000 
     38 CA        179.7050  207.1730   89.1390 C.3       6 GLP5        0.0000 
     39 CA        178.1905  203.9155   92.2555 C.3       3 GLC5        0.0000 
     40 CA        179.2510  198.8215   99.2675 C.3       3 GLC5        0.0000 
     41 CA        178.7000  199.9980   97.6170 C.3       9 GLL5        0.0000 
     42 CA        179.8020  197.6450  100.9180 C.3       6 GLP5        0.0000 
     43 CA        180.3125  202.9410   99.8375 C.3       3 GLC5        0.0000 
     44 CA        178.8050  201.3100   99.8230 C.3       9 GLL5        0.0000 
     45 CA        181.8200  204.5720   99.8520 C.3       6 GLP5        0.0000 
     46 CA        179.3035  199.4775  100.3705 C.3       3 GLC5        0.0000 
     47 N         178.7065  203.7865   97.4925 N.am      2 SEC2        0.0000 
     48 N         178.2790  202.4010   97.6550 N.am      8 SEL2        0.0000 
     49 N         179.1340  205.1720   97.3300 N.am      5 SEP2        0.0000 
     50 N         180.5805  202.4815   98.3690 N.am      2 SEC2        0.0000 
     51 N         180.1060  201.8390   99.6330 N.am      8 SEL2        0.0000 
     52 N         181.0550  203.1240   97.1050 N.am      5 SEP2        0.0000 
     53 O         180.9495  201.5075   98.7095 O.2       1 ALC1        0.0000 
     54 O         180.1060  201.8390   99.6330 O.2       7 ALL1        0.0000 
     55 O         181.7930  201.1760   97.7860 O.2       4 ALP1        0.0000 
     56 CA        180.2740  203.6315  101.0095 C.3       3 GLC5        0.0000 
     57 CA        178.7280  202.6910  102.1670 C.3       9 GLL5        0.0000 
     58 O         181.2795  202.1900  102.5145 O.2       1 ALC1        0.0000 
     59 O         180.3890  201.1080  103.2090 O.2       7 ALL1        0.0000 
     60 O         182.1700  203.2720  101.8200 O.2       4 ALP1        0.0000 
     61 N         176.8830  199.8660  103.4000 N.am      2 SEC2        0.0000 
     62 N         178.2230  200.8050  103.5710 N.am      8 SEL2        0.0000 
     63 N         175.5430  198.9270  103.2290 N.am      5 SEP2        0.0000 
     64 CA        182.1635  200.0535  101.9580 C.3       3 GLC5        0.0000 
     65 CA        180.7950  199.7620  103.6290 C.3       9 GLL5        0.0000 
     66 CA        183.5320  200.3450  100.2870 C.3       6 GLP5        0.0000 
     67 CA        180.2985  198.7035  102.2735 C.3       3 GLC5        0.0000 
     68 CA        183.2830  196.9135  105.4935 C.3       3 GLC5        0.0000 
     69 CA        182.2980  198.3020  105.1040 C.3       9 GLL5        0.0000 
     70 CA        184.2680  195.5250  105.8830 C.3       6 GLP5        0.0000 
     71 CA        179.1570  206.0700  104.0885 C.3       3 GLC5        0.0000 
     72 CA        178.5950  204.3260  104.2460 C.3       9 GLL5        0.0000 
     73 CA        179.7190  207.8140  103.9310 C.3       6 GLP5        0.0000 
     74 CA        177.2380  204.3135  105.5495 C.3       3 GLC5        0.0000 
     75 CA        175.8810  204.3010  106.8530 C.3       6 GLP5        0.0000 
     76 CA        179.0980  205.5530  105.8275 C.3       3 GLC5        0.0000 
     77 CA        179.6010  206.7800  107.4090 C.3       6 GLP5        0.0000 
     78 CA        178.5270  206.5645  101.8075 C.3       3 GLC5        0.0000 
     79 CA        177.3000  204.9630  102.1520 C.3       9 GLL5        0.0000 
     80 CA        179.7540  208.1660  101.4630 C.3       6 GLP5        0.0000 
     81 CA        177.6805  206.0125  100.2205 C.3       3 GLC5        0.0000 
     82 CA        178.0610  207.0620   98.2890 C.3       6 GLP5        0.0000 
     83 N         173.9835  198.1965   97.6450 N.am      2 SEC2        0.0000 
     84 N         174.4290  198.2580   96.3830 N.am      8 SEL2        0.0000 
     85 N         173.5380  198.1350   98.9070 N.am      5 SEP2        0.0000 
     86 CA        173.9022  195.1215   94.7895 C.3       3 GLC5        0.0000 
     87 CA        175.1480  196.3080   93.7650 C.3       9 GLL5        0.0000 
     88 CA        173.1290  194.2650   96.2210 C.3       6 GLP5        0.0000 
     89 CA        175.4982  203.6505   93.4087 C.3       3 GLC5        0.0000 
     90 CA        175.4210  204.8640   95.0800 C.3       6 GLP5        0.0000 
     91 CA        174.1238  203.9250   92.1202 C.3       3 GLC5        0.0000 
     92 CA        172.6720  205.4130   92.5030 C.3       6 GLP5        0.0000 
     93 CA        176.0652  205.1150  103.4515 C.3       3 GLC5        0.0000 
     94 CA        174.5350  205.8580  104.3510 C.3       6 GLP5        0.0000 
@<TRIPOS>BOND
@<TRIPOS>SUBSTRUCTURE
     1 ALC1       53 GROUP        1 X    ALC  0     ROOT ALC X 1
     2 SEC2       47 GROUP        1 X    SEC  0     **** SEC X 2
     3 GLC5        1 GROUP        1 X    GLC  0     **** GLC X 6
     4 ALP1       55 GROUP        1 Y    ALP  0     ROOT ALP Y 8
     5 SEP2       49 GROUP        1 Y    SEP  0     **** SEP Y 9
     6 GLP5        3 GROUP        1 Y    GLP  0     **** GLP Y 13
     7 ALL1       54 GROUP        1 Z    ALL  0     ROOT ALL Z 15
     8 SEL2       48 GROUP        1 Z    SEL  0     **** SEL Z 16
     9 GLL5        2 GROUP        1 Z    GLL  0     **** GLL Z 20
@<TRIPOS>SET

