#    Name: 3vsw_R31_1_ligand
#    Modification time : Tue Mar 25 01:30:58 2014

@<TRIPOS>MOLECULE
3vsw_R31_1_ligand
   85    86     1     0     0
SMALL
NO_CHARGES


@<TRIPOS>ATOM
      1 C1        176.5800  198.7880   97.1730 C.3       1 R31402      0.0000 
      2 N2        177.8080  199.3830   96.6860 N.4       1 R31402      0.0000 
      3 C3        178.3310  198.9100   95.4420 C.3       1 R31402      0.0000 
      4 C4        177.2820  198.9760   94.3060 C.3       1 R31402      0.0000 
      5 N5        175.9920  198.3630   94.7180 N.am      1 R31402      0.0000 
      6 C6        175.5790  198.4560   96.0430 C.2       1 R31402      0.0000 
      7 C7        175.2060  197.7210   93.7900 C.ar      1 R31402      0.0000 
      8 C8        174.4500  198.4750   92.8700 C.ar      1 R31402      0.0000 
      9 C9        173.5990  197.8190   91.9430 C.ar      1 R31402      0.0000 
     10 C10       173.4130  196.4010   92.0510 C.ar      1 R31402      0.0000 
     11 C11       174.2030  195.6480   92.9510 C.ar      1 R31402      0.0000 
     12 C12       175.1480  196.3080   93.7650 C.ar      1 R31402      0.0000 
     13 O13       174.5050  199.8160   92.8560 O.3       1 R31402      0.0000 
     14 C14       174.8110  200.6770   91.8000 C.3       1 R31402      0.0000 
     15 C15       175.4900  201.9500   92.3220 C.3       1 R31402      0.0000 
     16 C16       175.6610  202.9240   91.1530 C.3       1 R31402      0.0000 
     17 O17       176.9660  202.8150   90.6200 O.3       1 R31402      0.0000 
     18 C18       177.4200  204.0990   90.2380 C.3       1 R31402      0.0000 
     19 C19       178.7000  199.9980   97.6170 C.3       1 R31402      0.0000 
     20 C20       178.1020  201.1680   98.4370 C.3       1 R31402      0.0000 
     21 C21       178.8050  201.3100   99.8230 C.3       1 R31402      0.0000 
     22 N22       178.2790  202.4010   97.6550 N.3       1 R31402      0.0000 
     23 C23       178.0570  202.2010  100.8490 C.3       1 R31402      0.0000 
     24 O24       180.1060  201.8390   99.6330 O.3       1 R31402      0.0000 
     25 C25       178.7280  202.6910  102.1670 C.3       1 R31402      0.0000 
     26 C26       179.1150  201.4750  103.0320 C.2       1 R31402      0.0000 
     27 N27       180.3890  201.1080  103.2090 N.am      1 R31402      0.0000 
     28 O28       178.2230  200.8050  103.5710 O.2       1 R31402      0.0000 
     29 C29       177.8910  203.7810  102.9520 C.3       1 R31402      0.0000 
     30 C30       180.7950  199.7620  103.6290 C.3       1 R31402      0.0000 
     31 C31       181.4990  199.6380  104.9890 C.3       1 R31402      0.0000 
     32 C32       182.5280  200.8040  105.0580 C.2       1 R31402      0.0000 
     33 N33       183.6160  200.7610  104.2380 N.am      1 R31402      0.0000 
     34 C34       180.4810  199.7660  106.1580 C.3       1 R31402      0.0000 
     35 C35       182.2980  198.3020  105.1040 C.3       1 R31402      0.0000 
     36 O36       182.3520  201.7530  105.8150 O.2       1 R31402      0.0000 
     37 C37       178.5950  204.3260  104.2460 C.3       1 R31402      0.0000 
     38 C38       177.3000  204.9630  102.1520 C.3       1 R31402      0.0000 
     39 O39       174.4290  198.2580   96.3830 O.2       1 R31402      0.0000 
     40 H         176.0642  199.4612   97.8824 H         1 R31402      0.0000 
     41 H         176.7813  197.8489   97.7209 H         1 R31402      0.0000 
     42 H         177.2671  200.4893   96.2202 H         1 R31402      0.0000 
     43 H         178.6673  197.8608   95.5119 H         1 R31402      0.0000 
     44 H         179.2026  199.5022   95.1129 H         1 R31402      0.0000 
     45 H         177.6924  198.4559   93.4348 H         1 R31402      0.0000 
     46 H         177.1382  200.0273   94.0378 H         1 R31402      0.0000 
     47 H         173.1282  198.3369   91.2155 H         1 R31402      0.0000 
     48 H         172.7091  195.9437   91.4753 H         1 R31402      0.0000 
     49 H         174.0896  194.6389   93.0098 H         1 R31402      0.0000 
     50 H         175.7951  195.7630   94.3405 H         1 R31402      0.0000 
     51 H         173.9150  200.9955   91.2409 H         1 R31402      0.0000 
     52 H         175.4995  200.2211   91.0686 H         1 R31402      0.0000 
     53 H         176.4575  201.6993   92.7259 H         1 R31402      0.0000 
     54 H         174.8694  202.4017   93.0788 H         1 R31402      0.0000 
     55 H         175.4518  203.9335   91.5327 H         1 R31402      0.0000 
     56 H         174.8886  202.6841   90.4094 H         1 R31402      0.0000 
     57 H         179.6103  200.3983   97.1052 H         1 R31402      0.0000 
     58 H         179.0916  199.2561   98.3567 H         1 R31402      0.0000 
     59 H         177.0628  200.9720   98.5983 H         1 R31402      0.0000 
     60 H         178.8740  200.3042  100.2550 H         1 R31402      0.0000 
     61 H         177.0959  201.6680  101.1337 H         1 R31402      0.0000 
     62 H         177.6776  203.1184  100.2983 H         1 R31402      0.0000 
     63 H         179.6842  203.1815  101.8654 H         1 R31402      0.0000 
     64 H         181.1809  201.7816  103.0523 H         1 R31402      0.0000 
     65 H         176.9751  203.2167  103.3673 H         1 R31402      0.0000 
     66 H         181.4727  199.3072  102.8590 H         1 R31402      0.0000 
     67 H         179.9036  199.0809  103.6506 H         1 R31402      0.0000 
     68 H         183.6580  199.9898  103.6028 H         1 R31402      0.0000 
     69 H         184.2764  201.5044  104.3438 H         1 R31402      0.0000 
     70 H         178.3424  204.0675   89.8531 H         1 R31402      0.0000 
     71 H         176.8276  204.5117   89.5461 H         1 R31402      0.0000 
     72 H         177.4476  204.7292   91.0139 H         1 R31402      0.0000 
     73 H         180.9272  199.6865  107.0494 H         1 R31402      0.0000 
     74 H         180.0086  200.6473  106.1443 H         1 R31402      0.0000 
     75 H         179.7780  199.0559  106.1177 H         1 R31402      0.0000 
     76 H         183.0019  198.2283  104.3976 H         1 R31402      0.0000 
     77 H         182.7595  198.2201  105.9874 H         1 R31402      0.0000 
     78 H         181.7029  197.5040  105.0092 H         1 R31402      0.0000 
     79 H         178.7781  203.5961  104.9046 H         1 R31402      0.0000 
     80 H         179.4718  204.7592  104.0373 H         1 R31402      0.0000 
     81 H         178.0345  205.0093  104.7140 H         1 R31402      0.0000 
     82 H         178.0131  205.4992  101.7004 H         1 R31402      0.0000 
     83 H         176.6716  204.6517  101.4392 H         1 R31402      0.0000 
     84 H         176.7891  205.5906  102.7395 H         1 R31402      0.0000 
     85 H         180.4718  201.3483   98.8422 H         1 R31402      0.0000 
@<TRIPOS>BOND
     1    2    1 1    
     2    6    1 1    
     3   40    1 1    
     4   41    1 1    
     5    3    2 1    
     6   19    2 1    
     7   42    2 1    
     8    4    3 1    
     9   43    3 1    
    10   44    3 1    
    11    5    4 1    
    12   45    4 1    
    13   46    4 1    
    14    6    5 am   
    15    7    5 1    
    16   39    6 2    
    17    8    7 ar   
    18   12    7 ar   
    19    9    8 ar   
    20   13    8 1    
    21   10    9 ar   
    22   47    9 1    
    23   11   10 ar   
    24   48   10 1    
    25   12   11 ar   
    26   49   11 1    
    27   50   12 1    
    28   14   13 1    
    29   15   14 1    
    30   51   14 1    
    31   52   14 1    
    32   16   15 1    
    33   53   15 1    
    34   54   15 1    
    35   17   16 1    
    36   55   16 1    
    37   56   16 1    
    38   18   17 1    
    39   70   18 1    
    40   71   18 1    
    41   72   18 1    
    42   20   19 1    
    43   57   19 1    
    44   58   19 1    
    45   21   20 1    
    46   22   20 1    
    47   59   20 1    
    48   23   21 1    
    49   24   21 1    
    50   60   21 1    
    51   25   23 1    
    52   61   23 1    
    53   62   23 1    
    54   85   24 1    
    55   26   25 1    
    56   29   25 1    
    57   63   25 1    
    58   27   26 am   
    59   28   26 2    
    60   30   27 1    
    61   64   27 1    
    62   37   29 1    
    63   38   29 1    
    64   65   29 1    
    65   31   30 1    
    66   66   30 1    
    67   67   30 1    
    68   32   31 1    
    69   34   31 1    
    70   35   31 1    
    71   33   32 am   
    72   36   32 2    
    73   68   33 1    
    74   69   33 1    
    75   73   34 1    
    76   74   34 1    
    77   75   34 1    
    78   76   35 1    
    79   77   35 1    
    80   78   35 1    
    81   79   37 1    
    82   80   37 1    
    83   81   37 1    
    84   82   38 1    
    85   83   38 1    
    86   84   38 1    
@<TRIPOS>SUBSTRUCTURE
     1 R31402      1 GROUP   
@<TRIPOS>SET

