#    Name: 1z6t_ADP_4_INTS_M
#    Modification time : Tue Mar 25 11:32:48 2014

@<TRIPOS>MOLECULE
1z6t_ADP_4_INTS_M
   73     0    12     0     0
SMALL
NO_CHARGES


@<TRIPOS>ATOM
      1 N          31.9225   72.4900   92.7555 N.am      2 SEC2        0.0000 
      2 N          30.8930   73.3930   93.2940 N.am     10 SEL2        0.0000 
      3 N          32.9520   71.5870   92.2170 N.am      6 SEP2        0.0000 
      4 NZ         29.3575   71.9665   95.7245 N.4       3 LYC4        0.0000 
      5 NZ         30.6980   72.6830   95.6530 N.4      11 LYL4        0.0000 
      6 NZ         28.0170   71.2500   95.7960 N.4       7 LYP4        0.0000 
      7 N          31.9410   72.7730   96.5115 N.am      2 SEC2        0.0000 
      8 N          30.6980   72.6830   95.6530 N.am     10 SEL2        0.0000 
      9 N          33.1840   72.8630   97.3700 N.am      6 SEP2        0.0000 
     10 N          31.8070   71.9510   95.3510 N.am      2 SEC2        0.0000 
     11 N          32.9160   71.2190   95.0490 N.am      6 SEP2        0.0000 
     12 N          29.3575   71.9665   95.7245 N.am      2 SEC2        0.0000 
     13 N          28.0170   71.2500   95.7960 N.am      6 SEP2        0.0000 
     14 NZ         28.7860   73.0410   95.3585 N.4       3 LYC4        0.0000 
     15 NZ         29.5550   74.8320   94.9210 N.4      11 LYL4        0.0000 
     16 N          29.2225   75.0535   96.2705 N.am      2 SEC2        0.0000 
     17 N          29.5550   74.8320   94.9210 N.am     10 SEL2        0.0000 
     18 N          28.8900   75.2750   97.6200 N.am      6 SEP2        0.0000 
     19 N          29.6525   76.3005   94.8465 N.am      2 SEC2        0.0000 
     20 N          29.7500   77.7690   94.7720 N.am      6 SEP2        0.0000 
     21 N          33.8770   74.1555   92.1240 N.am      2 SEC2        0.0000 
     22 N          34.0420   74.1140   93.6320 N.am     10 SEL2        0.0000 
     23 N          33.7120   74.1970   90.6160 N.am      6 SEP2        0.0000 
     24 N          34.7705   73.3220   92.6635 N.am      2 SEC2        0.0000 
     25 N          35.4990   72.5300   91.6950 N.am      6 SEP2        0.0000 
     26 N          33.1760   75.2015   91.8630 N.am      2 SEC2        0.0000 
     27 N          32.6400   76.2060   93.1100 N.am     10 SEL2        0.0000 
     28 N          32.5780   73.7890   96.2210 N.am      2 SEC2        0.0000 
     29 N          31.9720   74.7150   95.0720 N.am     10 SEL2        0.0000 
     30 CA         31.9130   76.5815   96.8445 C.3       4 GLC5        0.0000 
     31 CA         33.6560   77.2890   95.6720 C.3      12 GLL5        0.0000 
     32 CA         30.1700   75.8740   98.0170 C.3       8 GLP5        0.0000 
     33 CA         32.0330   78.0250   94.8750 C.3       4 GLC5        0.0000 
     34 CA         30.4100   78.7610   94.0780 C.3       8 GLP5        0.0000 
     35 CA         36.4660   76.5785   93.7430 C.3       4 GLC5        0.0000 
     36 CA         35.7810   78.3670   94.7230 C.3      12 GLL5        0.0000 
     37 CA         37.1510   74.7900   92.7630 C.3       8 GLP5        0.0000 
     38 CA         35.7755   80.1520   93.4810 C.3       4 GLC5        0.0000 
     39 CA         35.7700   81.9370   92.2390 C.3       8 GLP5        0.0000 
     40 CA         38.8420   78.5615   94.2340 C.3       4 GLC5        0.0000 
     41 CA         37.0860   78.6930   95.4220 C.3      12 GLL5        0.0000 
     42 CA         40.5980   78.4300   93.0460 C.3       8 GLP5        0.0000 
     43 CA         36.9090   76.9825   98.3925 C.3       4 GLC5        0.0000 
     44 CA         37.0670   77.7920   96.6560 C.3      12 GLL5        0.0000 
     45 CA         36.7510   76.1730  100.1290 C.3       8 GLP5        0.0000 
     46 CA         35.9330   79.0705   98.0070 C.3       4 GLC5        0.0000 
     47 CA         34.7990   80.3490   99.3580 C.3       8 GLP5        0.0000 
     48 CA         41.8845   73.8705   98.2845 C.3       4 GLC5        0.0000 
     49 CA         40.5300   74.1930   96.8120 C.3      12 GLL5        0.0000 
     50 CA         43.2390   73.5480   99.7570 C.3       8 GLP5        0.0000 
     51 O          42.1265   72.3840   96.9270 O.2       1 ALC1        0.0000 
     52 O          40.8040   72.8960   96.7210 O.2       9 ALL1        0.0000 
     53 O          43.4490   71.8720   97.1330 O.2       5 ALP1        0.0000 
     54 N          42.9755   74.7665   97.0870 N.am      2 SEC2        0.0000 
     55 N          41.5160   75.0570   97.0530 N.am     10 SEL2        0.0000 
     56 N          44.4350   74.4760   97.1210 N.am      6 SEP2        0.0000 
     57 CA         41.0075   76.6545   95.1205 C.3       4 GLC5        0.0000 
     58 CA         41.2950   76.3730   97.1520 C.3      12 GLL5        0.0000 
     59 CA         40.7200   76.9360   93.0890 C.3       8 GLP5        0.0000 
     60 CA         42.8680   76.2835   96.2865 C.3       4 GLC5        0.0000 
     61 CA         44.4410   76.1940   95.4210 C.3       8 GLP5        0.0000 
     62 CA         42.2670   74.9605   98.4545 C.3       4 GLC5        0.0000 
     63 CA         41.1560   76.5345   99.1015 C.3       4 GLC5        0.0000 
     64 CA         41.0170   76.6960  101.0510 C.3       8 GLP5        0.0000 
     65 CA         33.8353   79.1150   97.2605 C.3       4 GLC5        0.0000 
     66 CA         34.8570   78.1990   95.9160 C.3      12 GLL5        0.0000 
     67 CA         33.4140   80.4860   98.7270 C.3       8 GLP5        0.0000 
     68 CA         39.8983   76.1945   94.8997 C.3       4 GLC5        0.0000 
     69 CA         38.9970   76.1810   96.7690 C.3      12 GLL5        0.0000 
     70 CA         39.3915   73.7675   94.9415 C.3       4 GLC5        0.0000 
     71 CA         39.1560   74.7250   96.6520 C.3      12 GLL5        0.0000 
     72 CA         38.9400   73.0760   93.1510 C.3       8 GLP5        0.0000 
     73 CA         37.9137   75.8130   98.4198 C.3       4 GLC5        0.0000 
@<TRIPOS>BOND
@<TRIPOS>SUBSTRUCTURE
     1 ALC1       51 GROUP        1 X    ALC  0     ROOT ALC X 1
     2 SEC2        1 GROUP        1 X    SEC  0     **** SEC X 2
     3 LYC4        4 GROUP        1 X    LYC  0     **** LYC X 4
     4 GLC5       30 GROUP        1 X    GLC  0     **** GLC X 6
     5 ALP1       53 GROUP        1 Y    ALP  0     ROOT ALP Y 8
     6 SEP2        3 GROUP        1 Y    SEP  0     **** SEP Y 9
     7 LYP4        6 GROUP        1 Y    LYP  0     **** LYP Y 11
     8 GLP5       32 GROUP        1 Y    GLP  0     **** GLP Y 13
     9 ALL1       52 GROUP        1 Z    ALL  0     ROOT ALL Z 15
    10 SEL2        2 GROUP        1 Z    SEL  0     **** SEL Z 16
    11 LYL4        5 GROUP        1 Z    LYL  0     **** LYL Z 18
    12 GLL5       31 GROUP        1 Z    GLL  0     **** GLL Z 20
@<TRIPOS>SET

