#    Name: 1z6t_ADP_4_ligand
#    Modification time : Tue Mar 25 11:32:48 2014

@<TRIPOS>MOLECULE
1z6t_ADP_4_ligand
   39    41     1     0     0
SMALL
NO_CHARGES


@<TRIPOS>ATOM
      1 PB         30.6470   73.8510   94.7000 P.3       1 ADP903      0.0000 
      2 O1B        30.8930   73.3930   93.2940 O.co2     1 ADP903      0.0000 
      3 O2B        30.6980   72.6830   95.6530 O.co2     1 ADP903      0.0000 
      4 O3B        29.5550   74.8320   94.9210 O.co2     1 ADP903      0.0000 
      5 PA         33.1590   75.2220   94.1010 P.3       1 ADP903      0.0000 
      6 O1A        34.0420   74.1140   93.6320 O.co2     1 ADP903      0.0000 
      7 O2A        32.6400   76.2060   93.1100 O.co2     1 ADP903      0.0000 
      8 O3A        31.9720   74.7150   95.0720 O.3       1 ADP903      0.0000 
      9 O5'        34.0740   76.0210   95.1760 O.3       1 ADP903      0.0000 
     10 C5'        33.6560   77.2890   95.6720 C.3       1 ADP903      0.0000 
     11 C4'        34.8570   78.1990   95.9160 C.3       1 ADP903      0.0000 
     12 O4'        35.6720   77.6370   96.9460 O.3       1 ADP903      0.0000 
     13 C3'        35.7810   78.3670   94.7230 C.3       1 ADP903      0.0000 
     14 O3'        35.2900   79.3980   93.8590 O.3       1 ADP903      0.0000 
     15 C2'        37.0860   78.6930   95.4220 C.3       1 ADP903      0.0000 
     16 O2'        37.0390   80.0620   95.8760 O.3       1 ADP903      0.0000 
     17 C1'        37.0670   77.7920   96.6560 C.3       1 ADP903      0.0000 
     18 N9         37.7110   76.4450   96.5890 N.pl3     1 ADP903      0.0000 
     19 C8         37.0930   75.2640   96.4070 C.2       1 ADP903      0.0000 
     20 N7         37.9420   74.2130   96.4350 N.2       1 ADP903      0.0000 
     21 C5         39.1560   74.7250   96.6520 C.ar      1 ADP903      0.0000 
     22 C6         40.5300   74.1930   96.8120 C.ar      1 ADP903      0.0000 
     23 N6         40.8040   72.8960   96.7210 N.pl3     1 ADP903      0.0000 
     24 N1         41.5160   75.0570   97.0530 N.ar      1 ADP903      0.0000 
     25 C2         41.2950   76.3730   97.1520 C.ar      1 ADP903      0.0000 
     26 N3         40.0940   76.9330   97.0030 N.ar      1 ADP903      0.0000 
     27 C4         38.9970   76.1810   96.7690 C.ar      1 ADP903      0.0000 
     28 H          33.1106   77.1945   96.6240 H         1 ADP903      0.0000 
     29 H          32.9868   77.8029   94.9643 H         1 ADP903      0.0000 
     30 H          34.5085   79.1751   96.2183 H         1 ADP903      0.0000 
     31 H          35.8747   77.4159   94.2596 H         1 ADP903      0.0000 
     32 H          37.8883   78.4624   94.8265 H         1 ADP903      0.0000 
     33 H          37.5101   78.3709   97.4842 H         1 ADP903      0.0000 
     34 H          36.1116   75.1705   96.2660 H         1 ADP903      0.0000 
     35 H          41.7594   72.6371   96.8633 H         1 ADP903      0.0000 
     36 H          40.0301   72.2959   96.5184 H         1 ADP903      0.0000 
     37 H          42.1299   77.0100   97.3625 H         1 ADP903      0.0000 
     38 H          34.2958   79.2905   93.8669 H         1 ADP903      0.0000 
     39 H          36.3873   80.5143   95.2671 H         1 ADP903      0.0000 
@<TRIPOS>BOND
     1    2    1 ar   
     2    3    1 ar   
     3    4    1 ar   
     4    8    1 1    
     5    6    5 ar   
     6    7    5 ar   
     7    8    5 1    
     8    9    5 1    
     9   10    9 1    
    10   11   10 1    
    11   28   10 1    
    12   29   10 1    
    13   12   11 1    
    14   13   11 1    
    15   30   11 1    
    16   17   12 1    
    17   14   13 1    
    18   15   13 1    
    19   31   13 1    
    20   38   14 1    
    21   16   15 1    
    22   17   15 1    
    23   32   15 1    
    24   39   16 1    
    25   18   17 1    
    26   33   17 1    
    27   19   18 1    
    28   27   18 1    
    29   20   19 2    
    30   34   19 1    
    31   21   20 1    
    32   22   21 ar   
    33   27   21 ar   
    34   23   22 1    
    35   24   22 ar   
    36   35   23 1    
    37   36   23 1    
    38   25   24 ar   
    39   26   25 ar   
    40   37   25 1    
    41   27   26 ar   
@<TRIPOS>SUBSTRUCTURE
     1 ADP903      1 GROUP   
@<TRIPOS>SET

