#    Name: 1KTS_1_CAVITY_N1_6.mol2
#    Modification time : Mon Mar 10 12:57:07 2014

@<TRIPOS>MOLECULE
1KTS_1_CAVITY_N1_6.mol2
   61     0     6     0     0
SMALL
NO_CHARGES


@<TRIPOS>ATOM
      1 O          12.7490  -18.1905   21.9479 O.2       2 ALA2        0.0000 
      2 CZ         16.5223  -15.8314   21.2796 C.ar      4 PHE5        0.0000 
      3 N          14.4605  -16.3204   21.3792 N.2       2 ALA2        0.0000 
      4 N          12.3988  -16.8095   21.4787 N.2       2 ALA2        0.0000 
      5 DU         13.4603  -16.8990   20.4227 H         6 CUB7        0.0000 
      6 DU         14.5219  -16.9886   19.3668 H         6 CUB7        0.0000 
      7 CA         11.3985  -17.3881   20.5223 C.3       5 GLY6        0.0000 
      8 DU         12.4601  -17.4777   19.4663 H         6 CUB7        0.0000 
      9 N          15.1105  -14.3608   21.8664 N.2       2 ALA2        0.0000 
     10 CZ         16.1721  -14.4504   20.8104 C.ar      4 PHE5        0.0000 
     11 N          13.0488  -14.8499   21.9659 N.2       2 ALA2        0.0000 
     12 N          14.1103  -14.9394   20.9100 N.2       2 ALA2        0.0000 
     13 CZ         15.1719  -15.0290   19.8540 C.ar      4 PHE5        0.0000 
     14 N          12.0485  -15.4285   21.0095 N.2       2 ALA2        0.0000 
     15 DU         13.1101  -15.5180   19.9535 H         6 CUB7        0.0000 
     16 CZ         14.1716  -15.6076   18.8976 C.ar      4 PHE5        0.0000 
     17 CZ         15.2332  -15.6972   17.8416 C.ar      4 PHE5        0.0000 
     18 CA         11.0483  -16.0071   20.0531 C.3       5 GLY6        0.0000 
     19 CA         12.1098  -16.0966   18.9971 C.3       5 GLY6        0.0000 
     20 CA         13.1714  -16.1862   17.9411 C.3       5 GLY6        0.0000 
     21 CA         16.8221  -12.4908   21.2976 C.3       5 GLY6        0.0000 
     22 O          13.6988  -12.8902   22.4532 O.2       2 ALA2        0.0000 
     23 O          14.7603  -12.9798   21.3972 O.2       2 ALA2        0.0000 
     24 CZ         15.8219  -13.0694   20.3412 C.ar      4 PHE5        0.0000 
     25 N          12.6985  -13.4688   21.4967 N.2       2 ALA2        0.0000 
     26 DU         13.7601  -13.5584   20.4408 H         6 CUB7        0.0000 
     27 CZ         14.8216  -13.6480   19.3848 C.ar      4 PHE5        0.0000 
     28 CA         11.6983  -14.0475   20.5403 C.3       5 GLY6        0.0000 
     29 O          12.7599  -14.1370   19.4843 O.2       2 ALA2        0.0000 
     30 CA         13.8214  -14.2266   18.4283 C.3       5 GLY6        0.0000 
     31 CZ         14.8829  -14.3162   17.3724 C.ar      4 PHE5        0.0000 
     32 CA         15.4103  -11.0202   21.8844 C.3       5 GLY6        0.0000 
     33 N          16.4719  -11.1097   20.8284 N.2       2 ALA2        0.0000 
     34 O          12.2870  -11.4197   23.0399 O.2       2 ALA2        0.0000 
     35 O          13.3486  -11.5092   21.9840 O.2       2 ALA2        0.0000 
     36 CA         14.4101  -11.5988   20.9280 C.3       5 GLY6        0.0000 
     37 CA         15.4716  -11.6884   19.8720 C.3       5 GLY6        0.0000 
     38 OG         16.5332  -11.7779   18.8160 O.2       1 SER1        0.0000 
     39 CA         11.2868  -11.9983   22.0835 C.3       5 GLY6        0.0000 
     40 CA         12.3483  -12.0878   21.0275 C.3       5 GLY6        0.0000 
     41 O          13.4099  -12.1774   19.9715 O.2       2 ALA2        0.0000 
     42 OG         14.4714  -12.2670   18.9156 O.2       1 SER1        0.0000 
     43 CZ         15.5329  -12.3565   17.8596 C.ar      4 PHE5        0.0000 
     44 CZ         16.5945  -12.4461   16.8036 C.ar      4 PHE5        0.0000 
     45 CA         13.4712  -12.8456   17.9591 C.3       5 GLY6        0.0000 
     46 CA         14.5327  -12.9351   16.9032 C.3       5 GLY6        0.0000 
     47 CZ         15.5943  -13.0247   15.8472 C.ar      4 PHE5        0.0000 
     48 CZ         16.6558  -13.1143   14.7912 C.ar      4 PHE5        0.0000 
     49 CA         14.5940  -13.6033   14.8908 C.3       5 GLY6        0.0000 
     50 CA         11.9368  -10.0386   22.5707 C.3       5 GLY6        0.0000 
     51 CA         12.9983  -10.1282   21.5147 C.3       5 GLY6        0.0000 
     52 CA         14.0599  -10.2178   20.4588 C.3       5 GLY6        0.0000 
     53 N          11.9981  -10.7068   20.5583 N.2       2 ALA2        0.0000 
     54 N          13.0596  -10.7964   19.5023 N.2       2 ALA2        0.0000 
     55 OG         14.1212  -10.8860   18.4464 O.2       1 SER1        0.0000 
     56 OD1        17.3058  -11.1547   15.2784 O.3       3 ASP3        0.0000 
     57 CA         13.1209  -11.4646   17.4899 C.3       5 GLY6        0.0000 
     58 O          14.1825  -11.5541   16.4340 O.2       2 ALA2        0.0000 
     59 OG         15.2440  -11.6437   15.3780 O.2       1 SER1        0.0000 
     60 OD1        16.3056  -11.7333   14.3220 O.3       3 ASP3        0.0000 
     61 CA         14.2438  -12.2223   14.4215 C.3       5 GLY6        0.0000 
@<TRIPOS>BOND
@<TRIPOS>SUBSTRUCTURE
     1 SER1       38 GROUP   
     2 ALA2        1 GROUP   
     3 ASP3       56 GROUP   
     4 PHE5        2 GROUP   
     5 GLY6        7 GROUP   
     6 CUB7        5 GROUP   
@<TRIPOS>SET

