#    Name: 1kts_C24_1_INTS_M
#    Modification time : Tue Mar 25 10:35:47 2014

@<TRIPOS>MOLECULE
1kts_C24_1_INTS_M
   78     0     9     0     0
SMALL
NO_CHARGES


@<TRIPOS>ATOM
      1 CA         18.0190  -10.3305   19.0565 C.3       3 GLC5        0.0000 
      2 CA         16.7250  -11.6230   20.1950 C.3       9 GLL5        0.0000 
      3 CA         19.3130   -9.0380   17.9180 C.3       6 GLP5        0.0000 
      4 CA         17.3475  -13.3025   19.2860 C.3       3 GLC5        0.0000 
      5 CA         17.9700  -14.9820   18.3770 C.3       6 GLP5        0.0000 
      6 CA         15.9015  -10.0125   19.4155 C.3       3 GLC5        0.0000 
      7 CA         15.0780   -8.4020   18.6360 C.3       6 GLP5        0.0000 
      8 CA         16.6320  -11.2055   22.1580 C.3       3 GLC5        0.0000 
      9 CA         16.5390  -10.7880   24.1210 C.3       6 GLP5        0.0000 
     10 N          15.9890  -13.0175   23.3225 N.am      2 SEC2        0.0000 
     11 N          16.8850  -13.4190   21.9150 N.am      8 SEL2        0.0000 
     12 N          15.0930  -12.6160   24.7300 N.am      5 SEP2        0.0000 
     13 CA         21.3695  -16.0380   27.9185 C.3       3 GLC5        0.0000 
     14 CA         20.5640  -15.8050   26.1390 C.3       9 GLL5        0.0000 
     15 CA         22.1750  -16.2710   29.6980 C.3       6 GLP5        0.0000 
     16 CA         21.2210  -12.2530   24.9545 C.3       3 GLC5        0.0000 
     17 CA         21.0900  -13.5420   26.7530 C.3       9 GLL5        0.0000 
     18 CA         21.3520  -10.9640   23.1560 C.3       6 GLP5        0.0000 
     19 CA         19.4800  -12.4685   25.6645 C.3       3 GLC5        0.0000 
     20 CA         17.8700  -11.3950   24.5760 C.3       6 GLP5        0.0000 
     21 CA         22.5655  -12.1715   24.8800 C.3       3 GLC5        0.0000 
     22 CA         22.3540  -13.6700   26.2250 C.3       9 GLL5        0.0000 
     23 CA         22.7770  -10.6730   23.5350 C.3       6 GLP5        0.0000 
     24 CA         20.7850  -16.9990   28.3555 C.3       3 GLC5        0.0000 
     25 CA         19.3950  -17.7270   27.0130 C.3       9 GLL5        0.0000 
     26 CA         19.5965  -16.4980   29.1420 C.3       3 GLC5        0.0000 
     27 CA         18.2980  -17.3390   27.9930 C.3       9 GLL5        0.0000 
     28 CA         20.8950  -15.6570   30.2910 C.3       6 GLP5        0.0000 
     29 CA         17.7750  -15.4585   28.3370 C.3       3 GLC5        0.0000 
     30 CA         17.2520  -13.5780   28.6810 C.3       6 GLP5        0.0000 
     31 CA         16.5700  -17.1070   28.1305 C.3       3 GLC5        0.0000 
     32 CA         14.8420  -16.8750   28.2680 C.3       6 GLP5        0.0000 
     33 N          16.2870  -18.7100   29.7605 N.am      2 SEC2        0.0000 
     34 N          17.4130  -19.4890   29.1150 N.am      8 SEL2        0.0000 
     35 N          15.1610  -17.9310   30.4060 N.am      5 SEP2        0.0000 
     36 CA         19.2985  -21.6065   31.8875 C.3       3 GLC5        0.0000 
     37 CA         19.0210  -21.1670   29.8700 C.3       9 GLL5        0.0000 
     38 CA         19.5760  -22.0460   33.9050 C.3       6 GLP5        0.0000 
     39 CA         20.0130  -10.4715   19.3770 C.3       3 GLC5        0.0000 
     40 CA         19.7610  -12.1870   19.9180 C.3       9 GLL5        0.0000 
     41 CA         20.2650   -8.7560   18.8360 C.3       6 GLP5        0.0000 
     42 CA         21.2470  -13.4480   19.6620 C.3       3 GLC5        0.0000 
     43 CA         22.7330  -14.7090   19.4060 C.3       6 GLP5        0.0000 
     44 CA         18.8655  -13.5845   19.1475 C.3       3 GLC5        0.0000 
     45 CA         20.5565  -11.5755   21.5370 C.3       3 GLC5        0.0000 
     46 O           9.8250  -10.3670   25.1265 O.2       1 ALC1        0.0000 
     47 O          11.2420  -10.5860   24.5090 O.2       7 ALL1        0.0000 
     48 O           8.4080  -10.1480   25.7440 O.2       4 ALP1        0.0000 
     49 O           9.2640  -12.3690   24.3990 O.2       1 ALC1        0.0000 
     50 O          10.3280  -12.4910   23.6340 O.2       7 ALL1        0.0000 
     51 O           8.2000  -12.2470   25.1640 O.2       4 ALP1        0.0000 
     52 O          10.4450  -14.0190   23.4020 O.2       1 ALC1        0.0000 
     53 O          10.5620  -15.5470   23.1700 O.2       4 ALP1        0.0000 
     54 CA         10.5320  -13.7570   21.2855 C.3       3 GLC5        0.0000 
     55 CA         12.2990  -12.5630   21.6970 C.3       9 GLL5        0.0000 
     56 CA          8.7650  -14.9510   20.8740 C.3       6 GLP5        0.0000 
     57 CA         14.6985   -9.8330   19.9335 C.3       3 GLC5        0.0000 
     58 CA         14.3240  -11.7530   20.7750 C.3       9 GLL5        0.0000 
     59 CA         20.7725  -14.8682   28.5090 C.3       3 GLC5        0.0000 
     60 CA         20.2100  -14.6170   26.7010 C.3       9 GLL5        0.0000 
     61 CA         22.3600  -15.2723   27.8190 C.3       3 GLC5        0.0000 
     62 CA         23.5255  -13.1017   27.0410 C.3       3 GLC5        0.0000 
     63 CA         22.7360  -14.8770   25.6550 C.3       9 GLL5        0.0000 
     64 CA         24.8220  -11.9620   28.0100 C.3       6 GLP5        0.0000 
     65 CA         20.5042  -12.5252   22.5568 C.3       3 GLC5        0.0000 
     66 CA         20.2270  -14.3910   22.1370 C.3       9 GLL5        0.0000 
     67 CA         18.1798  -12.7889   23.4511 C.3       3 GLC5        0.0000 
     68 CA         19.0860  -13.7820   21.7780 C.3       9 GLL5        0.0000 
     69 CA         13.1997   -8.8723   21.9650 C.3       3 GLC5        0.0000 
     70 CA         14.3140  -10.7750   21.6870 C.3       9 GLL5        0.0000 
     71 CA         12.6060   -7.0070   21.7800 C.3       6 GLP5        0.0000 
     72 CA         15.1675  -10.8850   23.0215 C.3       3 GLC5        0.0000 
     73 CA         13.2730  -10.7000   22.6130 C.3       9 GLL5        0.0000 
     74 CA         10.6242  -11.9785   20.9810 C.3       3 GLC5        0.0000 
     75 CA         12.2660  -11.6010   22.6330 C.3       9 GLL5        0.0000 
     76 CA          8.9660  -11.8750   19.7970 C.3       6 GLP5        0.0000 
     77 CA         13.2826  -12.5624   23.8115 C.3       3 GLC5        0.0000 
     78 CA         14.0310  -13.2680   25.4630 C.3       6 GLP5        0.0000 
@<TRIPOS>BOND
@<TRIPOS>SUBSTRUCTURE
     1 ALC1       46 GROUP        1 X    ALC  0     ROOT ALC X 1
     2 SEC2       10 GROUP        1 X    SEC  0     **** SEC X 2
     3 GLC5        1 GROUP        1 X    GLC  0     **** GLC X 6
     4 ALP1       48 GROUP        1 Y    ALP  0     ROOT ALP Y 8
     5 SEP2       12 GROUP        1 Y    SEP  0     **** SEP Y 9
     6 GLP5        3 GROUP        1 Y    GLP  0     **** GLP Y 13
     7 ALL1       47 GROUP        1 Z    ALL  0     ROOT ALL Z 15
     8 SEL2       11 GROUP        1 Z    SEL  0     **** SEL Z 16
     9 GLL5        2 GROUP        1 Z    GLL  0     **** GLL Z 20
@<TRIPOS>SET

