#    Name: 1kts_C24_1_ligand
#    Modification time : Tue Mar 25 10:35:47 2014

@<TRIPOS>MOLECULE
1kts_C24_1_ligand
   67    70     1     0     0
SMALL
NO_CHARGES


@<TRIPOS>ATOM
      1 C2         14.3240  -11.7530   20.7750 C.ar      1 C24999      0.0000 
      2 N10        15.3200  -11.9160   19.9120 N.pl3     1 C24999      0.0000 
      3 C11        16.7250  -11.6230   20.1950 C.3       1 C24999      0.0000 
      4 C12        17.5050  -12.6650   21.0010 C.2       1 C24999      0.0000 
      5 N16        16.8850  -13.4190   21.9150 N.2       1 C24999      0.0000 
      6 C15        17.9320  -14.1180   22.3800 C.ar      1 C24999      0.0000 
      7 C18        17.8540  -15.0490   23.3690 C.ar      1 C24999      0.0000 
      8 C19        18.9510  -15.7210   23.8070 C.ar      1 C24999      0.0000 
      9 C40        18.7870  -16.6720   24.8760 C.2       1 C24999      0.0000 
     10 O21        17.7890  -17.4000   24.7800 O.2       1 C24999      0.0000 
     11 N22        19.5950  -16.7250   25.9630 N.am      1 C24999      0.0000 
     12 C23        20.5640  -15.8050   26.1390 C.ar      1 C24999      0.0000 
     13 C24        20.2100  -14.6170   26.7010 C.ar      1 C24999      0.0000 
     14 C25        21.0900  -13.5420   26.7530 C.ar      1 C24999      0.0000 
     15 C26        22.3540  -13.6700   26.2250 C.ar      1 C24999      0.0000 
     16 C27        22.7360  -14.8770   25.6550 C.ar      1 C24999      0.0000 
     17 N28        21.7980  -15.9490   25.6240 N.ar      1 C24999      0.0000 
     18 C29        19.3950  -17.7270   27.0130 C.3       1 C24999      0.0000 
     19 C30        18.2980  -17.3390   27.9930 C.3       1 C24999      0.0000 
     20 C31        18.2060  -18.2710   29.1880 C.2       1 C24999      0.0000 
     21 O32        18.7690  -17.9910   30.2470 O.2       1 C24999      0.0000 
     22 O33        17.4130  -19.4890   29.1150 O.3       1 C24999      0.0000 
     23 C34        18.1730  -20.6630   28.7110 C.3       1 C24999      0.0000 
     24 C35        19.0210  -21.1670   29.8700 C.3       1 C24999      0.0000 
     25 C20        20.1390  -15.3510   23.1550 C.ar      1 C24999      0.0000 
     26 C21        20.2270  -14.3910   22.1370 C.ar      1 C24999      0.0000 
     27 C14        19.0860  -13.7820   21.7780 C.ar      1 C24999      0.0000 
     28 N13        18.8310  -12.8370   20.8570 N.pl3     1 C24999      0.0000 
     29 C17        19.7610  -12.1870   19.9180 C.3       1 C24999      0.0000 
     30 C3         14.3140  -10.7750   21.6870 C.ar      1 C24999      0.0000 
     31 C4         13.2730  -10.7000   22.6130 C.ar      1 C24999      0.0000 
     32 C5         12.2660  -11.6010   22.6330 C.ar      1 C24999      0.0000 
     33 C7         11.2710  -11.5560   23.5970 C.ar      1 C24999      0.0000 
     34 N9         11.2420  -10.5860   24.5090 N.pl3     1 C24999      0.0000 
     35 N8         10.3280  -12.4910   23.6340 N.pl3     1 C24999      0.0000 
     36 C6         12.2990  -12.5630   21.6970 C.ar      1 C24999      0.0000 
     37 C1         13.3350  -12.6420   20.7700 C.ar      1 C24999      0.0000 
     38 H          15.1388  -12.2827   18.9318 H         1 C24999      0.0000 
     39 H          16.8119  -10.6441   20.7390 H         1 C24999      0.0000 
     40 H          17.2837  -11.4541   19.2353 H         1 C24999      0.0000 
     41 H          16.9204  -15.2535   23.8054 H         1 C24999      0.0000 
     42 H          19.2545  -14.4972   27.1075 H         1 C24999      0.0000 
     43 H          20.7913  -12.6578   27.1856 H         1 C24999      0.0000 
     44 H          23.0135  -12.8830   26.2495 H         1 C24999      0.0000 
     45 H          23.6625  -15.0099   25.2632 H         1 C24999      0.0000 
     46 H          20.3287  -17.8799   27.5831 H         1 C24999      0.0000 
     47 H          19.1314  -18.7035   26.5691 H         1 C24999      0.0000 
     48 H          17.3319  -17.3326   27.4655 H         1 C24999      0.0000 
     49 H          18.4814  -16.3135   28.3487 H         1 C24999      0.0000 
     50 H          18.8394  -20.4293   27.8736 H         1 C24999      0.0000 
     51 H          17.5056  -21.4725   28.3958 H         1 C24999      0.0000 
     52 H          21.0322  -15.8327   23.4549 H         1 C24999      0.0000 
     53 H          21.1231  -14.1872   21.7106 H         1 C24999      0.0000 
     54 H          15.0646  -10.0627   21.7275 H         1 C24999      0.0000 
     55 H          13.2895   -9.9141   23.3063 H         1 C24999      0.0000 
     56 H          10.4613  -10.5927   25.1339 H         1 C24999      0.0000 
     57 H          12.0036   -9.9383   24.4868 H         1 C24999      0.0000 
     58 H           9.6541  -12.4075   24.3681 H         1 C24999      0.0000 
     59 H          10.3772  -13.1939   22.9244 H         1 C24999      0.0000 
     60 H          11.5384  -13.2804   21.6450 H         1 C24999      0.0000 
     61 H          13.3099  -13.4195   20.0732 H         1 C24999      0.0000 
     62 H          19.5563  -21.9725   29.6158 H         1 C24999      0.0000 
     63 H          19.6678  -20.4730   30.1862 H         1 C24999      0.0000 
     64 H          18.4596  -21.4245   30.6565 H         1 C24999      0.0000 
     65 H          20.6982  -12.5148   20.0368 H         1 C24999      0.0000 
     66 H          19.5086  -12.3597   18.9659 H         1 C24999      0.0000 
     67 H          19.7797  -11.1948   20.0409 H         1 C24999      0.0000 
@<TRIPOS>BOND
     1    2    1 1    
     2   30    1 ar   
     3   37    1 ar   
     4    3    2 1    
     5   38    2 1    
     6    4    3 1    
     7   39    3 1    
     8   40    3 1    
     9    5    4 2    
    10   28    4 1    
    11    6    5 1    
    12    7    6 ar   
    13   27    6 ar   
    14    8    7 ar   
    15   41    7 1    
    16    9    8 1    
    17   25    8 ar   
    18   10    9 2    
    19   11    9 am   
    20   12   11 1    
    21   18   11 1    
    22   13   12 ar   
    23   17   12 ar   
    24   14   13 ar   
    25   42   13 1    
    26   15   14 ar   
    27   43   14 1    
    28   16   15 ar   
    29   44   15 1    
    30   17   16 ar   
    31   45   16 1    
    32   19   18 1    
    33   46   18 1    
    34   47   18 1    
    35   20   19 1    
    36   48   19 1    
    37   49   19 1    
    38   21   20 2    
    39   22   20 1    
    40   23   22 1    
    41   24   23 1    
    42   50   23 1    
    43   51   23 1    
    44   62   24 1    
    45   63   24 1    
    46   64   24 1    
    47   26   25 ar   
    48   52   25 1    
    49   27   26 ar   
    50   53   26 1    
    51   28   27 1    
    52   29   28 1    
    53   65   29 1    
    54   66   29 1    
    55   67   29 1    
    56   31   30 ar   
    57   54   30 1    
    58   32   31 ar   
    59   55   31 1    
    60   33   32 1    
    61   36   32 ar   
    62   34   33 ar   
    63   35   33 ar   
    64   56   34 1    
    65   57   34 1    
    66   58   35 1    
    67   59   35 1    
    68   37   36 ar   
    69   60   36 1    
    70   61   37 1    
@<TRIPOS>SUBSTRUCTURE
     1 C24999      1 GROUP   
@<TRIPOS>SET

