#    Name: 3LNC_2_CAVITY_N1_6.mol2
#    Modification time : Tue Mar 11 11:48:50 2014

@<TRIPOS>MOLECULE
3LNC_2_CAVITY_N1_6.mol2
   86     0     5     0     0
SMALL
NO_CHARGES


@<TRIPOS>ATOM
      1 CA         59.6966   14.1032  -25.1505 C.3       4 GLY6        0.0000 
      2 OG         65.9036   12.7756  -23.5819 O.2       1 SER1        0.0000 
      3 OG         65.1291   14.0502  -23.7415 O.2       1 SER1        0.0000 
      4 DU         64.3546   15.3249  -23.9012 H         5 CUB7        0.0000 
      5 CA         63.5801   16.5995  -24.0609 C.3       4 GLY6        0.0000 
      6 OG         63.0704   14.5611  -23.7692 O.2       1 SER1        0.0000 
      7 CA         62.2959   15.8357  -23.9289 C.3       4 GLY6        0.0000 
      8 CZ         61.7861   13.7973  -23.6372 C.ar      3 PHE5        0.0000 
      9 OG         61.0116   15.0719  -23.7969 O.2       1 SER1        0.0000 
     10 CZ         60.5019   13.0335  -23.5053 C.ar      3 PHE5        0.0000 
     11 CA         59.7274   14.3081  -23.6649 C.3       4 GLY6        0.0000 
     12 N          64.1206   18.8427  -22.8669 N.2       2 ALA2        0.0000 
     13 OG         65.1599   14.2551  -22.2559 O.2       1 SER1        0.0000 
     14 DU         64.3854   15.5297  -22.4156 H         5 CUB7        0.0000 
     15 DU         63.6109   16.8043  -22.5752 H         5 CUB7        0.0000 
     16 CA         62.8364   18.0789  -22.7349 C.3       4 GLY6        0.0000 
     17 OG         63.1012   14.7659  -22.2836 O.2       1 SER1        0.0000 
     18 OG         62.3267   16.0405  -22.4432 O.2       1 SER1        0.0000 
     19 OG         61.5522   17.3151  -22.6029 O.2       1 SER1        0.0000 
     20 OG         61.8170   14.0021  -22.1516 O.2       1 SER1        0.0000 
     21 OG         61.0425   15.2767  -22.3113 O.2       1 SER1        0.0000 
     22 OG         60.2680   16.5513  -22.4709 O.2       1 SER1        0.0000 
     23 OG         61.3073   11.9637  -21.8600 O.2       1 SER1        0.0000 
     24 CZ         60.5328   13.2383  -22.0196 C.ar      3 PHE5        0.0000 
     25 O          59.7583   14.5129  -22.1793 O.2       2 ALA2        0.0000 
     26 CZ         59.2486   12.4745  -21.8876 C.ar      3 PHE5        0.0000 
     27 CA         58.4741   13.7491  -22.0473 C.3       4 GLY6        0.0000 
     28 O          62.9778   13.9465  -28.2261 O.2       2 ALA2        0.0000 
     29 O          62.2033   15.2212  -28.3858 O.2       2 ALA2        0.0000 
     30 CZ         61.4288   16.4958  -28.5454 C.ar      3 PHE5        0.0000 
     31 CZ         60.6543   17.7704  -28.7051 C.ar      3 PHE5        0.0000 
     32 OG         60.9191   14.4574  -28.2538 O.2       1 SER1        0.0000 
     33 CA         60.1446   15.7320  -28.4134 C.3       4 GLY6        0.0000 
     34 OG         59.6349   13.6936  -28.1218 O.2       1 SER1        0.0000 
     35 O          65.0674   13.6406  -26.7128 O.2       2 ALA2        0.0000 
     36 O          64.2929   14.9152  -26.8725 O.2       2 ALA2        0.0000 
     37 DU         63.5184   16.1898  -27.0321 H         5 CUB7        0.0000 
     38 CA         62.7439   17.4644  -27.1918 C.3       4 GLY6        0.0000 
     39 O          63.7832   12.8768  -26.5808 O.2       2 ALA2        0.0000 
     40 OG         63.0086   14.1514  -26.7405 O.2       1 SER1        0.0000 
     41 OG         62.2341   15.4260  -26.9001 O.2       1 SER1        0.0000 
     42 CA         61.4596   16.7006  -27.0598 C.3       4 GLY6        0.0000 
     43 OG         60.9499   14.6622  -26.7681 O.2       1 SER1        0.0000 
     44 CZ         60.1754   15.9368  -26.9278 C.ar      3 PHE5        0.0000 
     45 OG         59.6657   13.8984  -26.6362 O.2       1 SER1        0.0000 
     46 O          65.0982   13.8454  -25.2272 O.2       2 ALA2        0.0000 
     47 DU         64.3237   15.1200  -25.3868 H         5 CUB7        0.0000 
     48 CA         63.5492   16.3946  -25.5465 C.3       4 GLY6        0.0000 
     49 OG         63.8140   13.0816  -25.0952 O.2       1 SER1        0.0000 
     50 OG         63.0395   14.3562  -25.2548 O.2       1 SER1        0.0000 
     51 CA         62.2650   15.6308  -25.4145 C.3       4 GLY6        0.0000 
     52 OG         61.7553   13.5924  -25.1229 O.2       1 SER1        0.0000 
     53 OG         60.9808   14.8670  -25.2825 O.2       1 SER1        0.0000 
     54 CA         60.2063   16.1417  -25.4422 C.3       4 GLY6        0.0000 
     55 O          62.1724   15.0163  -29.8714 O.2       2 ALA2        0.0000 
     56 OG         61.6627   12.9779  -29.5797 O.2       1 SER1        0.0000 
     57 OG         60.8882   14.2525  -29.7394 O.2       1 SER1        0.0000 
     58 CA         60.1137   15.5271  -29.8991 C.3       4 GLY6        0.0000 
     59 N          59.6040   13.4887  -29.6074 N.2       2 ALA2        0.0000 
     60 O          61.6319   12.7731  -31.0654 O.2       2 ALA2        0.0000 
     61 N          60.8574   14.0477  -31.2250 N.2       2 ALA2        0.0000 
     62 OG         64.9260   17.7729  -21.2216 O.2       1 SER1        0.0000 
     63 CA         64.4163   15.7345  -20.9299 C.3       4 GLY6        0.0000 
     64 CA         63.6418   17.0091  -21.0896 C.3       4 GLY6        0.0000 
     65 OG         62.8673   18.2838  -21.2493 O.2       1 SER1        0.0000 
     66 N          63.9066   13.6961  -20.6383 N.2       2 ALA2        0.0000 
     67 N          63.1321   14.9707  -20.7980 N.2       2 ALA2        0.0000 
     68 DU         62.3576   16.2453  -20.9576 H         5 CUB7        0.0000 
     69 OG         61.5831   17.5200  -21.1173 O.2       1 SER1        0.0000 
     70 OG         63.3969   11.6577  -20.3467 O.2       1 SER1        0.0000 
     71 N          62.6224   12.9323  -20.5063 N.2       2 ALA2        0.0000 
     72 N          61.8479   14.2069  -20.6660 N.2       2 ALA2        0.0000 
     73 O          61.0733   15.4815  -20.8256 O.2       2 ALA2        0.0000 
     74 O          60.2988   16.7562  -20.9853 O.2       2 ALA2        0.0000 
     75 N          61.3381   12.1685  -20.3743 N.2       2 ALA2        0.0000 
     76 N          60.5636   13.4431  -20.5340 N.2       2 ALA2        0.0000 
     77 O          59.7891   14.7177  -20.6937 O.2       2 ALA2        0.0000 
     78 N          60.0539   11.4047  -20.2424 N.2       2 ALA2        0.0000 
     79 CA         59.2794   12.6793  -20.4020 C.3       4 GLY6        0.0000 
     80 CA         57.9952   11.9155  -20.2700 C.3       4 GLY6        0.0000 
     81 CA         65.7313   16.7032  -19.5763 C.3       4 GLY6        0.0000 
     82 OG         64.9568   17.9778  -19.7360 O.2       1 SER1        0.0000 
     83 CA         63.6726   17.2140  -19.6040 C.3       4 GLY6        0.0000 
     84 OG         62.8981   18.4886  -19.7636 O.2       1 SER1        0.0000 
     85 CA         62.3884   16.4502  -19.4720 C.3       4 GLY6        0.0000 
     86 N          61.6139   17.7248  -19.6316 N.2       2 ALA2        0.0000 
@<TRIPOS>BOND
@<TRIPOS>SUBSTRUCTURE
     1 SER1        2 GROUP   
     2 ALA2       12 GROUP   
     3 PHE5        8 GROUP   
     4 GLY6        1 GROUP   
     5 CUB7        4 GROUP   
@<TRIPOS>SET

