#    Name: 3lnc_5GP_2_INTS_M
#    Modification time : Mon Mar 24 21:55:02 2014

@<TRIPOS>MOLECULE
3lnc_5GP_2_INTS_M
   60     0    12     0     0
SMALL
NO_CHARGES


@<TRIPOS>ATOM
      1 NZ         65.6080   11.6915  -25.6990 N.4       3 LYC4        0.0000 
      2 NZ         64.9210   12.7170  -24.7710 N.4      11 LYL4        0.0000 
      3 NZ         65.5790   10.1500  -27.6330 N.4       7 LYP4        0.0000 
      4 N          65.6080   11.6915  -25.6990 N.am      2 SEC2        0.0000 
      5 N          64.9210   12.7170  -24.7710 N.am     10 SEL2        0.0000 
      6 N          66.2950   10.6660  -26.6270 N.am      6 SEP2        0.0000 
      7 N          64.4060   11.9335  -23.7645 N.am      2 SEC2        0.0000 
      8 N          63.8910   11.1500  -22.7580 N.am      6 SEP2        0.0000 
      9 NZ         63.7940   11.7560  -27.2620 N.4       3 LYC4        0.0000 
     10 NZ         63.2420   12.9160  -26.6710 N.4      11 LYL4        0.0000 
     11 N          63.7940   11.7560  -27.2620 N.am      2 SEC2        0.0000 
     12 N          63.2420   12.9160  -26.6710 N.am     10 SEL2        0.0000 
     13 N          64.3460   10.5960  -27.8530 N.am      6 SEP2        0.0000 
     14 N          62.1310   12.3580  -26.9090 N.am      2 SEC2        0.0000 
     15 N          61.0200   11.8000  -27.1470 N.am      6 SEP2        0.0000 
     16 CA         60.9820   12.9860  -25.5265 C.3       4 GLC5        0.0000 
     17 CA         61.6670   14.6850  -24.9510 C.3      12 GLL5        0.0000 
     18 CA         60.2970   11.2870  -26.1020 C.3       8 GLP5        0.0000 
     19 N          60.3500   17.7370  -23.1740 N.am      2 SEC2        0.0000 
     20 N          60.8720   16.9860  -22.1460 N.am     10 SEL2        0.0000 
     21 N          59.8280   18.4880  -24.2020 N.am      6 SEP2        0.0000 
     22 O          61.8805   14.3665  -19.1445 O.2       1 ALC1        0.0000 
     23 O          61.5680   15.4010  -20.2940 O.2       9 ALL1        0.0000 
     24 O          62.1930   13.3320  -17.9950 O.2       5 ALP1        0.0000 
     25 CA         60.1970   12.2045  -22.8855 C.3       4 GLC5        0.0000 
     26 CA         60.2390   14.1660  -21.8120 C.3      12 GLL5        0.0000 
     27 CA         60.1550   10.2430  -23.9590 C.3       8 GLP5        0.0000 
     28 CA         58.6555   15.5460  -21.5180 C.3       4 GLC5        0.0000 
     29 CA         57.0720   16.9260  -21.2240 C.3       8 GLP5        0.0000 
     30 CA         60.3775    9.4100  -19.6540 C.3       4 GLC5        0.0000 
     31 CA         59.3570   11.1750  -20.0690 C.3      12 GLL5        0.0000 
     32 CA         61.3980    7.6450  -19.2390 C.3       8 GLP5        0.0000 
     33 CA         59.3230   11.7970  -18.4035 C.3       4 GLC5        0.0000 
     34 CA         59.2890   12.4190  -16.7380 C.3       8 GLP5        0.0000 
     35 N          59.7415    8.9240  -18.5060 N.am      2 SEC2        0.0000 
     36 N          58.5280    9.3790  -18.8550 N.am     10 SEL2        0.0000 
     37 N          60.9550    8.4690  -18.1570 N.am      6 SEP2        0.0000 
     38 O          56.1535   10.6205  -18.4090 O.2       1 ALC1        0.0000 
     39 O          57.1650   11.0990  -19.2720 O.2       9 ALL1        0.0000 
     40 O          55.1420   10.1420  -17.5460 O.2       5 ALP1        0.0000 
     41 O          54.5670   12.0675  -18.9900 O.2       1 ALC1        0.0000 
     42 O          55.6680   12.8060  -19.6700 O.2       9 ALL1        0.0000 
     43 O          53.4660   11.3290  -18.3100 O.2       5 ALP1        0.0000 
     44 O          55.4835   14.1305  -20.0670 O.2       1 ALC1        0.0000 
     45 O          55.2990   15.4550  -20.4640 O.2       5 ALP1        0.0000 
     46 N          58.0115   14.4735  -19.8400 N.am      2 SEC2        0.0000 
     47 N          57.8530   12.9920  -20.4720 N.am     10 SEL2        0.0000 
     48 N          58.1700   15.9550  -19.2080 N.am      6 SEP2        0.0000 
     49 CA         59.3905   13.5660  -19.1960 C.3       4 GLC5        0.0000 
     50 CA         59.0710   12.4340  -20.5960 C.3      12 GLL5        0.0000 
     51 CA         59.7100   14.6980  -17.7960 C.3       8 GLP5        0.0000 
     52 CA         59.3370   15.1858  -24.8137 C.3       4 GLC5        0.0000 
     53 CA         60.8210   15.2020  -23.8000 C.3      12 GLL5        0.0000 
     54 CA         57.4300   15.4280  -25.2520 C.3       8 GLP5        0.0000 
     55 CA         61.0567   17.0634  -24.4041 C.3       4 GLC5        0.0000 
     56 CA         60.6990   18.7260  -25.2900 C.3       8 GLP5        0.0000 
     57 CA         60.3050   14.5953  -19.7440 C.3       4 GLC5        0.0000 
     58 CA         61.5610   14.8190  -21.5720 C.3      12 GLL5        0.0000 
     59 CA         58.5765   10.7688  -21.6107 C.3       4 GLC5        0.0000 
     60 CA         57.9390    9.7330  -22.8890 C.3       8 GLP5        0.0000 
@<TRIPOS>BOND
@<TRIPOS>SUBSTRUCTURE
     1 ALC1       22 GROUP        1 X    ALC  0     ROOT ALC X 1
     2 SEC2        4 GROUP        1 X    SEC  0     **** SEC X 2
     3 LYC4        1 GROUP        1 X    LYC  0     **** LYC X 4
     4 GLC5       16 GROUP        1 X    GLC  0     **** GLC X 6
     5 ALP1       24 GROUP        1 Y    ALP  0     ROOT ALP Y 8
     6 SEP2        6 GROUP        1 Y    SEP  0     **** SEP Y 9
     7 LYP4        3 GROUP        1 Y    LYP  0     **** LYP Y 11
     8 GLP5       18 GROUP        1 Y    GLP  0     **** GLP Y 13
     9 ALL1       23 GROUP        1 Z    ALL  0     ROOT ALL Z 15
    10 SEL2        5 GROUP        1 Z    SEL  0     **** SEL Z 16
    11 LYL4        2 GROUP        1 Z    LYL  0     **** LYL Z 18
    12 GLL5       17 GROUP        1 Z    GLL  0     **** GLL Z 20
@<TRIPOS>SET

