#    Name: 3lnc_5GP_2_ligand
#    Modification time : Mon Mar 24 21:55:02 2014

@<TRIPOS>MOLECULE
3lnc_5GP_2_ligand
   36    38     1     0     0
SMALL
NO_CHARGES


@<TRIPOS>ATOM
      1 P          63.9740   13.6050  -25.5210 P.3       1 5GP300      0.0000 
      2 O1P        64.9210   12.7170  -24.7710 O.co2     1 5GP300      0.0000 
      3 O2P        63.2420   12.9160  -26.6710 O.co2     1 5GP300      0.0000 
      4 O3P        64.5500   14.9150  -25.9370 O.co2     1 5GP300      0.0000 
      5 O5'        62.7930   13.9380  -24.4900 O.3       1 5GP300      0.0000 
      6 C5'        61.6670   14.6850  -24.9510 C.3       1 5GP300      0.0000 
      7 C4'        60.8210   15.2020  -23.8000 C.3       1 5GP300      0.0000 
      8 O4'        60.1140   14.1010  -23.2300 O.3       1 5GP300      0.0000 
      9 C3'        61.5850   15.8580  -22.6610 C.3       1 5GP300      0.0000 
     10 O3'        60.8720   16.9860  -22.1460 O.3       1 5GP300      0.0000 
     11 C2'        61.5610   14.8190  -21.5720 C.3       1 5GP300      0.0000 
     12 O2'        61.5680   15.4010  -20.2940 O.3       1 5GP300      0.0000 
     13 C1'        60.2390   14.1660  -21.8120 C.3       1 5GP300      0.0000 
     14 N9         60.1640   12.8690  -21.1390 N.pl3     1 5GP300      0.0000 
     15 C8         61.1470   11.9410  -21.0190 C.2       1 5GP300      0.0000 
     16 N7         60.6560   10.9080  -20.3310 N.2       1 5GP300      0.0000 
     17 C5         59.3570   11.1750  -20.0690 C.2       1 5GP300      0.0000 
     18 C6         58.3610   10.5110  -19.3830 C.2       1 5GP300      0.0000 
     19 O6         58.5280    9.3790  -18.8550 O.2       1 5GP300      0.0000 
     20 N1         57.1650   11.0990  -19.2720 N.am      1 5GP300      0.0000 
     21 C2         56.9100   12.2960  -19.8090 C.2       1 5GP300      0.0000 
     22 N2         55.6680   12.8060  -19.6700 N.pl3     1 5GP300      0.0000 
     23 N3         57.8530   12.9920  -20.4720 N.2       1 5GP300      0.0000 
     24 C4         59.0710   12.4340  -20.5960 C.2       1 5GP300      0.0000 
     25 H          61.0143   14.0716  -25.5997 H         1 5GP300      0.0000 
     26 H          61.9811   15.5560  -25.5558 H         1 5GP300      0.0000 
     27 H          60.1041   15.9232  -24.1884 H         1 5GP300      0.0000 
     28 H          62.5602   16.0524  -22.9390 H         1 5GP300      0.0000 
     29 H          62.3232   14.1184  -21.7472 H         1 5GP300      0.0000 
     30 H          59.4785   14.8415  -21.4081 H         1 5GP300      0.0000 
     31 H          62.0397   12.0256  -21.3735 H         1 5GP300      0.0000 
     32 H          56.3950   10.5995  -18.7412 H         1 5GP300      0.0000 
     33 H          55.6026   13.8034  -19.6410 H         1 5GP300      0.0000 
     34 H          54.9236   12.1411  -19.6083 H         1 5GP300      0.0000 
     35 H          60.5236   16.6880  -21.2573 H         1 5GP300      0.0000 
     36 H          61.5291   14.6299  -19.6584 H         1 5GP300      0.0000 
@<TRIPOS>BOND
     1    2    1 ar   
     2    3    1 ar   
     3    4    1 ar   
     4    5    1 1    
     5    6    5 1    
     6    7    6 1    
     7   25    6 1    
     8   26    6 1    
     9    8    7 1    
    10    9    7 1    
    11   27    7 1    
    12   13    8 1    
    13   10    9 1    
    14   11    9 1    
    15   28    9 1    
    16   35   10 1    
    17   12   11 1    
    18   13   11 1    
    19   29   11 1    
    20   36   12 1    
    21   14   13 1    
    22   30   13 1    
    23   15   14 1    
    24   24   14 1    
    25   16   15 2    
    26   31   15 1    
    27   17   16 1    
    28   18   17 1    
    29   24   17 2    
    30   19   18 2    
    31   20   18 am   
    32   21   20 1    
    33   32   20 1    
    34   22   21 1    
    35   23   21 2    
    36   33   22 1    
    37   34   22 1    
    38   24   23 1    
@<TRIPOS>SUBSTRUCTURE
     1 5GP300      1 GROUP   
@<TRIPOS>SET

