#    Name: 3t6j_VAL_VAL_TYR_PRO_TRP_1_INTS_M
#    Modification time : Mon Mar 24 19:14:07 2014

@<TRIPOS>MOLECULE
3t6j_VAL_VAL_TYR_PRO_TRP_1_INTS_M
   85     0    12     0     0
SMALL
NO_CHARGES


@<TRIPOS>ATOM
      1 OD1       -36.2315  -14.7835   23.7490 O.co2     3 ASC3        0.0000 
      2 OD1       -36.2570  -15.7390   25.0410 O.co2    11 ASL3        0.0000 
      3 OD1       -36.2060  -13.8280   22.4570 O.co2     7 ASP3        0.0000 
      4 CA        -35.8930  -14.7535   25.1305 C.3       4 GLC5        0.0000 
      5 CA        -35.8150  -16.5270   23.9000 C.3      12 GLL5        0.0000 
      6 CA        -35.9710  -12.9800   26.3610 C.3       8 GLP5        0.0000 
      7 N         -38.2870  -17.3055   25.3370 N.am      2 SEC2        0.0000 
      8 N         -37.8840  -17.7510   23.9930 N.am     10 SEL2        0.0000 
      9 N         -38.6900  -16.8600   26.6810 N.am      6 SEP2        0.0000 
     10 CA        -36.4065  -18.4175   26.7705 C.3       4 GLC5        0.0000 
     11 CA        -35.2340  -18.6390   25.1400 C.3      12 GLL5        0.0000 
     12 CA        -37.5790  -18.1960   28.4010 C.3       8 GLP5        0.0000 
     13 CA        -34.6655  -20.0890   25.6930 C.3       4 GLC5        0.0000 
     14 CA        -34.0970  -21.5390   26.2460 C.3       8 GLP5        0.0000 
     15 CA        -34.0505  -18.2000   21.0810 C.3       4 GLC5        0.0000 
     16 CA        -34.0150  -18.0570   23.0320 C.3      12 GLL5        0.0000 
     17 CA        -34.0860  -18.3430   19.1300 C.3       8 GLP5        0.0000 
     18 O         -35.8290  -18.1780   21.0780 O.2       1 ALC1        0.0000 
     19 O         -37.0030  -17.3510   21.9610 O.2       9 ALL1        0.0000 
     20 O         -34.6550  -19.0050   20.1950 O.2       5 ALP1        0.0000 
     21 N         -37.3625  -20.8140   19.8570 N.am      2 SEC2        0.0000 
     22 N         -37.6150  -19.9880   20.7790 N.am     10 SEL2        0.0000 
     23 N         -37.1100  -21.6400   18.9350 N.am      6 SEP2        0.0000 
     24 CA        -36.8995  -14.2975   20.1165 C.3       4 GLC5        0.0000 
     25 CA        -38.3670  -15.5570   19.8870 C.3      12 GLL5        0.0000 
     26 CA        -35.4320  -13.0380   20.3460 C.3       8 GLP5        0.0000 
     27 CA        -40.1355  -15.7205   19.7350 C.3       4 GLC5        0.0000 
     28 CA        -41.9040  -15.8840   19.5830 C.3       8 GLP5        0.0000 
     29 O         -40.6000  -18.8485   22.0735 O.2       1 ALC1        0.0000 
     30 O         -39.7720  -19.5310   21.2440 O.2       9 ALL1        0.0000 
     31 O         -41.4280  -18.1660   22.9030 O.2       5 ALP1        0.0000 
     32 CA        -38.8575  -21.7990   19.5170 C.3       4 GLC5        0.0000 
     33 CA        -40.3360  -20.7850   20.7610 C.3      12 GLL5        0.0000 
     34 CA        -37.3790  -22.8130   18.2730 C.3       8 GLP5        0.0000 
     35 N         -43.4155  -18.8645   19.8590 N.am      2 SEC2        0.0000 
     36 N         -42.4270  -19.8190   20.1260 N.am     10 SEL2        0.0000 
     37 N         -44.4040  -17.9100   19.5920 N.am      6 SEP2        0.0000 
     38 N         -43.2410  -19.1080   21.2115 N.am      2 SEC2        0.0000 
     39 N         -44.0550  -18.3970   22.2970 N.am      6 SEP2        0.0000 
     40 CA        -44.3015  -21.4960   20.6580 C.3       4 GLC5        0.0000 
     41 CA        -42.8780  -23.0760   21.2510 C.3      12 GLL5        0.0000 
     42 CA        -45.7250  -19.9160   20.0650 C.3       8 GLP5        0.0000 
     43 CA        -42.5805  -18.2610   18.0035 C.3       4 GLC5        0.0000 
     44 CA        -42.1290  -20.3530   17.4170 C.3      12 GLL5        0.0000 
     45 CA        -43.0320  -16.1690   18.5900 C.3       8 GLP5        0.0000 
     46 CA        -43.9270  -20.1345   18.7410 C.3       4 GLC5        0.0000 
     47 CA        -47.4165  -17.4785   16.4755 C.3       4 GLC5        0.0000 
     48 CA        -45.7600  -18.1550   15.3510 C.3      12 GLL5        0.0000 
     49 CA        -49.0730  -16.8020   17.6000 C.3       8 GLP5        0.0000 
     50 CA        -48.9990  -20.5045   13.2390 C.3       4 GLC5        0.0000 
     51 CA        -47.0850  -20.1530   12.6340 C.3      12 GLL5        0.0000 
     52 CA        -50.9130  -20.8560   13.8440 C.3       8 GLP5        0.0000 
     53 CA        -36.2375  -16.6412   19.4325 C.3       4 GLC5        0.0000 
     54 CA        -34.2180  -16.9740   19.0230 C.3       8 GLP5        0.0000 
     55 CA        -40.2856  -16.7148   19.6337 C.3       4 GLC5        0.0000 
     56 CA        -38.1470  -17.0600   19.7970 C.3      12 GLL5        0.0000 
     57 CA        -39.3914  -15.8690   21.5622 C.3       4 GLC5        0.0000 
     58 CA        -40.5120  -15.2710   22.9310 C.3       8 GLP5        0.0000 
     59 CA        -40.0670  -22.5748   22.7518 C.3       4 GLC5        0.0000 
     60 CA        -41.5130  -22.9330   21.4630 C.3      12 GLL5        0.0000 
     61 CA        -39.0620  -23.0850   24.1050 C.3       8 GLP5        0.0000 
     62 CA        -40.1333  -24.5203   22.7040 C.3       4 GLC5        0.0000 
     63 CA        -40.6990  -24.0410   21.2550 C.3      12 GLL5        0.0000 
     64 CA        -39.3030  -24.3930   24.3560 C.3       8 GLP5        0.0000 
     65 CA        -42.5843  -26.9243   21.7655 C.3       4 GLC5        0.0000 
     66 CA        -42.5870  -25.3710   20.6450 C.3      12 GLL5        0.0000 
     67 CA        -43.2610  -28.5360   22.7840 C.3       8 GLP5        0.0000 
     68 CA        -44.3002  -24.0571   22.0050 C.3       4 GLC5        0.0000 
     69 CA        -45.7330  -23.5880   23.1640 C.3       8 GLP5        0.0000 
     70 CA        -40.1020  -21.1855   14.3418 C.3       4 GLC5        0.0000 
     71 CA        -40.2240  -21.5530   16.5170 C.3      12 GLL5        0.0000 
     72 CA        -39.4620  -21.3470   12.3420 C.3       8 GLP5        0.0000 
     73 CA        -38.8200  -22.2538   17.7655 C.3       4 GLC5        0.0000 
     74 CA        -45.9123  -20.4492   18.0418 C.3       4 GLC5        0.0000 
     75 CA        -45.5280  -21.4800   16.1300 C.3      12 GLL5        0.0000 
     76 CA        -46.6152  -22.3728   17.3712 C.3       4 GLC5        0.0000 
     77 CA        -47.1310  -23.7630   18.7240 C.3       8 GLP5        0.0000 
     78 CA        -47.4297  -16.2680   12.9125 C.3       4 GLC5        0.0000 
     79 CA        -46.0750  -18.0170   13.1450 C.3      12 GLL5        0.0000 
     80 CA        -48.7570  -14.7180   13.3480 C.3       8 GLP5        0.0000 
     81 CA        -45.8942  -19.3130    9.3208 C.3       4 GLC5        0.0000 
     82 CA        -46.6630  -18.4990   10.9090 C.3      12 GLL5        0.0000 
     83 CA        -44.8880  -19.4990    7.5330 C.3       8 GLP5        0.0000 
     84 CA        -48.4492  -18.6825    9.9932 C.3       4 GLC5        0.0000 
     85 CA        -49.9980  -18.2380    8.8780 C.3       8 GLP5        0.0000 
@<TRIPOS>BOND
@<TRIPOS>SUBSTRUCTURE
     1 ALC1       18 GROUP        1 X    ALC  0     ROOT ALC X 1
     2 SEC2        7 GROUP        1 X    SEC  0     **** SEC X 2
     3 ASC3        1 GROUP        1 X    ASC  0     **** ASC X 3
     4 GLC5        4 GROUP        1 X    GLC  0     **** GLC X 6
     5 ALP1       20 GROUP        1 Y    ALP  0     ROOT ALP Y 8
     6 SEP2        9 GROUP        1 Y    SEP  0     **** SEP Y 9
     7 ASP3        3 GROUP        1 Y    ASP  0     **** ASP Y 10
     8 GLP5        6 GROUP        1 Y    GLP  0     **** GLP Y 13
     9 ALL1       19 GROUP        1 Z    ALL  0     ROOT ALL Z 15
    10 SEL2        8 GROUP        1 Z    SEL  0     **** SEL Z 16
    11 ASL3        2 GROUP        1 Z    ASL  0     **** ASL Z 17
    12 GLL5        5 GROUP        1 Z    GLL  0     **** GLL Z 20
@<TRIPOS>SET

