#    Name: 3t6j_VAL_VAL_TYR_PRO_TRP_1_ligand
#    Modification time : Mon Mar 24 19:14:07 2014

@<TRIPOS>MOLECULE
3t6j_VAL_VAL_TYR_PRO_TRP_1_ligand
   95    98     5     0     0
SMALL
NO_CHARGES


@<TRIPOS>ATOM
      1 N         -36.2570  -15.7390   25.0410 N.4       1 VAL1        0.0000
      2 CA        -35.8150  -16.5270   23.9000 C.3       1 VAL1        0.0000
      3 C         -37.0020  -17.2640   23.2850 C.2       1 VAL1        0.0000
      4 O         -37.8840  -17.7510   23.9930 O.2       1 VAL1        0.0000
      5 CB        -34.6890  -17.5110   24.2810 C.3       1 VAL1        0.0000
      6 CG1       -35.2340  -18.6390   25.1400 C.3       1 VAL1        0.0000
      7 CG2       -34.0150  -18.0570   23.0320 C.3       1 VAL1        0.0000
      8 HA        -35.4130  -15.8590   23.1262 H         1 VAL1        0.0000
      9 HB        -33.9505  -16.9610   24.8591 H         1 VAL1        0.0000
     10 HNCA      -35.4993  -15.2441   25.4664 H         1 VAL1        0.0000
     11 H         -36.9416  -15.0585   24.7796 H         1 VAL1        0.0000
     12 H         -36.6685  -16.3111   25.7505 H         1 VAL1        0.0000
     13 H         -34.5180  -19.2867   25.4005 H         1 VAL1        0.0000
     14 H         -35.6422  -18.2973   25.9865 H         1 VAL1        0.0000
     15 H         -35.9416  -19.1604   24.6631 H         1 VAL1        0.0000
     16 HG21      -33.6124  -17.3280   22.4784 H         1 VAL1        0.0000
     17 HG22      -33.2787  -18.6954   23.2562 H         1 VAL1        0.0000
     18 HG23      -34.6601  -18.5476   22.4462 H         1 VAL1        0.0000
     19 N         -37.0030  -17.3510   21.9610 N.am      2 VAL2        0.0000
     20 CA        -38.2020  -17.6940   21.2030 C.3       2 VAL2        0.0000
     21 C         -38.5040  -19.1840   21.0460 C.2       2 VAL2        0.0000
     22 O         -37.6150  -19.9880   20.7790 O.2       2 VAL2        0.0000
     23 CB        -38.1470  -17.0600   19.7970 C.3       2 VAL2        0.0000
     24 CG1       -39.1600  -17.7140   18.8690 C.3       2 VAL2        0.0000
     25 CG2       -38.3670  -15.5570   19.8870 C.3       2 VAL2        0.0000
     26 HNCA      -36.1445  -17.1784   21.3902 H         2 VAL2        0.0000
     27 HA        -39.0926  -17.2345   21.6893 H         2 VAL2        0.0000
     28 HB        -37.1480  -17.2364   19.3967 H         2 VAL2        0.0000
     29 H         -39.1375  -17.3133   17.9531 H         2 VAL2        0.0000
     30 H         -38.9895  -18.6938   18.7645 H         2 VAL2        0.0000
     31 H         -40.0948  -17.6138   19.2099 H         2 VAL2        0.0000
     32 HG21      -37.6734  -15.1135   20.4546 H         2 VAL2        0.0000
     33 HG22      -38.3315  -15.1219   18.9873 H         2 VAL2        0.0000
     34 HG23      -39.2572  -15.3351   20.2850 H         2 VAL2        0.0000
     35 N         -39.7720  -19.5310   21.2440 N.am      3 TYR3        0.0000
     36 CA        -40.3360  -20.7850   20.7610 C.3       3 TYR3        0.0000
     37 C         -41.4250  -20.4320   19.7580 C.2       3 TYR3        0.0000
     38 O         -42.4270  -19.8190   20.1260 O.2       3 TYR3        0.0000
     39 CB        -40.9260  -21.6070   21.9070 C.3       3 TYR3        0.0000
     40 CG        -41.5130  -22.9330   21.4630 C.ar      3 TYR3        0.0000
     41 CD1       -40.6990  -24.0410   21.2550 C.ar      3 TYR3        0.0000
     42 CD2       -42.8780  -23.0760   21.2510 C.ar      3 TYR3        0.0000
     43 CE1       -41.2280  -25.2540   20.8490 C.ar      3 TYR3        0.0000
     44 CE2       -43.4180  -24.2870   20.8430 C.ar      3 TYR3        0.0000
     45 CZ        -42.5870  -25.3710   20.6450 C.ar      3 TYR3        0.0000
     46 OH        -43.1140  -26.5760   20.2390 O.3       3 TYR3        0.0000
     47 HNCA      -40.4395  -18.9106   21.7653 H         3 TYR3        0.0000
     48 HA        -39.5902  -21.3673   20.2571 H         3 TYR3        0.0000
     49 HB2       -41.7087  -21.0116   22.4038 H         3 TYR3        0.0000
     50 HB3       -40.1371  -21.7910   22.6538 H         3 TYR3        0.0000
     51 HD1       -39.6760  -23.9541   21.4077 H         3 TYR3        0.0000
     52 HD2       -43.5042  -22.2628   21.4005 H         3 TYR3        0.0000
     53 HE1       -40.6092  -26.0622   20.7009 H         3 TYR3        0.0000
     54 HE2       -44.4305  -24.3731   20.6901 H         3 TYR3        0.0000
     55 HH        -42.3440  -27.2139   20.2557 H         3 TYR3        0.0000
     56 N         -41.2410  -20.8190   18.4860 N.am      4 PRO4        0.0000
     57 CA        -42.1290  -20.3530   17.4170 C.3       4 PRO4        0.0000
     58 C         -43.3960  -21.1920   17.2730 C.2       4 PRO4        0.0000
     59 O         -43.5650  -22.1930   17.9700 O.2       4 PRO4        0.0000
     60 CB        -41.2600  -20.4950   16.1660 C.3       4 PRO4        0.0000
     61 CG        -40.2240  -21.5530   16.5170 C.3       4 PRO4        0.0000
     62 CD        -40.2980  -21.8360   17.9990 C.3       4 PRO4        0.0000
     63 HA        -42.3633  -19.3278   17.5385 H         4 PRO4        0.0000
     64 HB2       -40.7762  -19.5674   15.9597 H         4 PRO4        0.0000
     65 HB3       -41.8596  -20.8304   15.3505 H         4 PRO4        0.0000
     66 HG2       -39.2371  -21.1864   16.2629 H         4 PRO4        0.0000
     67 HG3       -40.4333  -22.4581   15.9603 H         4 PRO4        0.0000
     68 HD2       -40.6811  -22.8192   18.1531 H         4 PRO4        0.0000
     69 HD3       -39.3332  -21.7036   18.4335 H         4 PRO4        0.0000
     70 N         -44.2690  -20.7820   16.3580 N.am      5 TRP5        0.0000
     71 CA        -45.5280  -21.4800   16.1300 C.3       5 TRP5        0.0000
     72 C         -45.4300  -22.4530   14.9600 C.2       5 TRP5        0.0000
     73 O         -44.3420  -22.7350   14.4570 O.2       5 TRP5        0.0000
     74 CB        -46.6710  -20.4850   15.9070 C.3       5 TRP5        0.0000
     75 CG        -46.3280  -19.3420   14.9940 C.2       5 TRP5        0.0000
     76 CD1       -45.7600  -18.1550   15.3510 C.2       5 TRP5        0.0000
     77 CD2       -46.5440  -19.2740   13.5780 C.ar      5 TRP5        0.0000
     78 NE1       -45.6020  -17.3540   14.2460 N.pl3     5 TRP5        0.0000
     79 CE2       -46.0750  -18.0170   13.1450 C.ar      5 TRP5        0.0000
     80 CE3       -47.0850  -20.1530   12.6340 C.ar      5 TRP5        0.0000
     81 CZ2       -46.1300  -17.6190   11.8090 C.ar      5 TRP5        0.0000
     82 CZ3       -47.1380  -19.7550   11.3080 C.ar      5 TRP5        0.0000
     83 CH2       -46.6630  -18.4990   10.9090 C.ar      5 TRP5        0.0000
     84 OXT       -46.4410  -22.9880   14.5020 O.3       5 TRP5        0.0000
     85 HNCA      -44.0995  -19.9459   15.7603 H         5 TRP5        0.0000
     86 HA        -45.7872  -22.0685   17.0235 H         5 TRP5        0.0000
     87 HB2       -46.9866  -20.0901   16.8912 H         5 TRP5        0.0000
     88 HB3       -47.5389  -21.0366   15.4987 H         5 TRP5        0.0000
     89 HD1       -45.5028  -17.9066   16.2523 H         5 TRP5        0.0000
     90 HE1       -45.2212  -16.4723   14.2480 H         5 TRP5        0.0000
     91 HE3       -47.4316  -21.0666   12.9219 H         5 TRP5        0.0000
     92 HZ2       -45.7837  -16.7074   11.5292 H         5 TRP5        0.0000
     93 HZ3       -47.5344  -20.3922   10.5944 H         5 TRP5        0.0000
     94 HH2       -46.7238  -18.2440    9.9017 H         5 TRP5        0.0000
     95 H         -46.1212  -23.5125   13.7129 H         5 TRP5        0.0000
@<TRIPOS>BOND
     1    2    1 1
     2   10    1 1
     3   11    1 1
     4   12    1 1
     5    3    2 1
     6    5    2 1
     7    8    2 1
     8    4    3 2
     9    6    5 1
    10    7    5 1
    11    9    5 1
    12   13    6 1
    13   14    6 1
    14   15    6 1
    15   16    7 1
    16   17    7 1
    17   18    7 1
    18   20   19 1
    19   26   19 1
    20   21   20 1
    21   23   20 1
    22   27   20 1
    23   22   21 2
    24   24   23 1
    25   25   23 1
    26   28   23 1
    27   29   24 1
    28   30   24 1
    29   31   24 1
    30   32   25 1
    31   33   25 1
    32   34   25 1
    33   36   35 1
    34   47   35 1
    35   37   36 1
    36   39   36 1
    37   48   36 1
    38   38   37 2
    39   40   39 1
    40   49   39 1
    41   50   39 1
    42   41   40 ar
    43   42   40 ar
    44   43   41 ar
    45   51   41 1
    46   44   42 ar
    47   52   42 1
    48   45   43 ar
    49   53   43 1
    50   45   44 ar
    51   54   44 1
    52   46   45 1
    53   55   46 1
    54   57   56 1
    55   62   56 1
    56   58   57 1
    57   60   57 1
    58   63   57 1
    59   59   58 2
    60   61   60 1
    61   64   60 1
    62   65   60 1
    63   62   61 1
    64   66   61 1
    65   67   61 1
    66   68   62 1
    67   69   62 1
    68   71   70 1
    69   85   70 1
    70   72   71 1
    71   74   71 1
    72   86   71 1
    73   73   72 2
    74   84   72 1
    75   75   74 1
    76   87   74 1
    77   88   74 1
    78   76   75 2
    79   77   75 1
    80   78   76 1
    81   89   76 1
    82   79   77 ar
    83   80   77 ar
    84   79   78 1
    85   90   78 1
    86   81   79 ar
    87   82   80 ar
    88   91   80 1
    89   83   81 ar
    90   92   81 1
    91   83   82 ar
    92   93   82 1
    93   94   83 1
    94   95   84 1
    95   19    3 am
    96   35   21 am
    97   56   37 am
    98   70   58 am
@<TRIPOS>SUBSTRUCTURE
     1 VAL1        1 RESIDUE
     2 VAL2       19 RESIDUE
     3 TYR3       35 RESIDUE
     4 PRO4       56 RESIDUE
     5 TRP5       70 RESIDUE
@<TRIPOS>SET

