#    Name: 3ZHY_2_CAVITY_N1_ALL.mol2
#    Modification time : Tue Mar 11 14:36:35 2014

@<TRIPOS>MOLECULE
3ZHY_2_CAVITY_N1_ALL.mol2
   86     0     6     0     0
SMALL
NO_CHARGES


@<TRIPOS>ATOM
      1 CA         28.4203   41.9977   28.5947 C.3       5 GLY6        0.0000 
      2 DU         26.4671   42.6254   28.0551 H         6 CUB7        0.0000 
      3 CA         27.3151   41.4242   27.7582 C.3       5 GLY6        0.0000 
      4 CA         28.1631   40.2230   27.4614 C.3       5 GLY6        0.0000 
      5 OG         25.3619   42.0518   27.2187 O.2       1 SER1        0.0000 
      6 CA         26.2099   40.8507   26.9218 C.3       5 GLY6        0.0000 
      7 OG         24.8475   38.5024   24.9521 O.2       1 SER1        0.0000 
      8 CA         30.0818   43.2628   28.2218 C.3       5 GLY6        0.0000 
      9 O          30.9298   42.0617   27.9250 O.2       2 ALA2        0.0000 
     10 DU         28.1286   43.8905   27.6822 H         6 CUB7        0.0000 
     11 CA         28.9766   42.6893   27.3854 C.3       5 GLY6        0.0000 
     12 CA         29.8246   41.4881   27.0886 C.3       5 GLY6        0.0000 
     13 CA         30.6726   40.2870   26.7917 C.3       5 GLY6        0.0000 
     14 DU         27.0234   43.3169   26.8458 H         6 CUB7        0.0000 
     15 DU         27.8714   42.1158   26.5490 H         6 CUB7        0.0000 
     16 CA         28.7194   40.9146   26.2521 C.3       5 GLY6        0.0000 
     17 O          29.5674   39.7134   25.9553 O.2       2 ALA2        0.0000 
     18 DU         25.0702   43.9446   26.3063 H         6 CUB7        0.0000 
     19 DU         25.9182   42.7434   26.0094 H         6 CUB7        0.0000 
     20 OG         26.7662   41.5422   25.7126 O.2       1 SER1        0.0000 
     21 CA         27.6142   40.3411   25.4157 C.3       5 GLY6        0.0000 
     22 OG         23.9650   43.3710   25.4698 O.2       1 SER1        0.0000 
     23 CA         24.8130   42.1699   25.1730 C.3       5 GLY6        0.0000 
     24 OG         25.6610   40.9687   24.8762 O.2       1 SER1        0.0000 
     25 CA         26.5090   39.7675   24.5793 C.3       5 GLY6        0.0000 
     26 O          27.3570   38.5664   24.2825 O.2       2 ALA2        0.0000 
     27 O          23.7078   41.5963   24.3366 O.2       2 ALA2        0.0000 
     28 O          24.5558   40.3952   24.0397 O.2       2 ALA2        0.0000 
     29 NZ         25.4038   39.1940   23.7429 N.2       4 LYS4        0.0000 
     30 CA         30.6381   43.9544   27.0126 C.3       5 GLY6        0.0000 
     31 CA         31.4861   42.7532   26.7157 C.3       5 GLY6        0.0000 
     32 DU         27.8369   45.7832   26.7698 H         6 CUB7        0.0000 
     33 DU         28.6849   44.5820   26.4730 H         6 CUB7        0.0000 
     34 CA         29.5329   43.3809   26.1761 C.3       5 GLY6        0.0000 
     35 CA         30.3809   42.1797   25.8793 C.3       5 GLY6        0.0000 
     36 CA         31.2288   40.9785   25.5825 C.3       5 GLY6        0.0000 
     37 CA         24.1877   48.8132   26.8240 C.3       5 GLY6        0.0000 
     38 OG         25.0357   47.6120   26.5271 O.2       1 SER1        0.0000 
     39 OG         25.8837   46.4108   26.2303 O.2       1 SER1        0.0000 
     40 DU         26.7317   45.2097   25.9334 H         6 CUB7        0.0000 
     41 DU         28.4277   42.8073   25.3397 H         6 CUB7        0.0000 
     42 OG         29.2757   41.6062   25.0429 O.2       1 SER1        0.0000 
     43 OG         24.7785   45.8373   25.3938 O.2       1 SER1        0.0000 
     44 OG         25.6265   44.6361   25.0970 O.2       1 SER1        0.0000 
     45 DU         26.4745   43.4350   24.8002 H         6 CUB7        0.0000 
     46 OG         27.3225   42.2338   24.5033 O.2       1 SER1        0.0000 
     47 OG         28.1705   41.0326   24.2065 O.2       1 SER1        0.0000 
     48 OG         24.5213   44.0626   24.2606 O.2       1 SER1        0.0000 
     49 NZ         25.3693   42.8614   23.9637 N.2       4 LYS4        0.0000 
     50 NZ         26.2173   41.6603   23.6669 N.2       4 LYS4        0.0000 
     51 NZ         27.0653   40.4591   23.3701 N.2       4 LYS4        0.0000 
     52 OG         23.4161   43.4891   23.4242 O.2       1 SER1        0.0000 
     53 OD1        24.2641   42.2879   23.1273 O.3       3 ASP3        0.0000 
     54 OD1        22.3109   42.9155   22.5878 O.3       3 ASP3        0.0000 
     55 N          29.4984   47.0483   26.3970 N.2       2 ALA2        0.0000 
     56 OG         26.6972   48.8771   26.1543 O.2       1 SER1        0.0000 
     57 O          27.5452   47.6759   25.8574 O.2       2 ALA2        0.0000 
     58 N          28.3932   46.4748   25.5606 N.2       2 ALA2        0.0000 
     59 N          29.2412   45.2736   25.2637 N.2       2 ALA2        0.0000 
     60 CA         30.0891   44.0724   24.9669 C.3       5 GLY6        0.0000 
     61 CA         24.7440   49.5047   25.6147 C.3       5 GLY6        0.0000 
     62 OG         25.5920   48.3036   25.3179 O.2       1 SER1        0.0000 
     63 OG         26.4400   47.1024   25.0210 O.2       1 SER1        0.0000 
     64 DU         27.2880   45.9012   24.7242 H         6 CUB7        0.0000 
     65 CA         28.1360   44.7001   24.4273 C.3       5 GLY6        0.0000 
     66 OG         28.9839   43.4989   24.1305 O.2       1 SER1        0.0000 
     67 OG         26.1828   45.3277   23.8878 O.2       1 SER1        0.0000 
     68 OD1        27.0308   44.1265   23.5909 O.3       3 ASP3        0.0000 
     69 OD1        27.8788   42.9254   23.2941 O.3       3 ASP3        0.0000 
     70 OG         25.0776   44.7542   23.0513 O.2       1 SER1        0.0000 
     71 NZ         25.9256   43.5530   22.7545 N.2       4 LYS4        0.0000 
     72 O          23.9724   44.1806   22.2149 O.2       2 ALA2        0.0000 
     73 OD1        24.8204   42.9795   21.9181 O.3       3 ASP3        0.0000 
     74 CA         27.2535   49.5687   24.9450 C.3       5 GLY6        0.0000 
     75 O          28.1015   48.3675   24.6482 O.2       2 ALA2        0.0000 
     76 N          26.1483   48.9951   24.1086 N.2       2 ALA2        0.0000 
     77 CA         26.9963   47.7940   23.8118 C.3       5 GLY6        0.0000 
     78 CA         27.8443   46.5928   23.5149 C.3       5 GLY6        0.0000 
     79 CA         28.6922   45.3916   23.2181 C.3       5 GLY6        0.0000 
     80 OG         25.8911   47.2204   22.9753 O.2       1 SER1        0.0000 
     81 O          26.7391   46.0193   22.6785 O.2       2 ALA2        0.0000 
     82 OD1        27.5870   44.8181   22.3817 O.3       3 ASP3        0.0000 
     83 CA         27.5525   48.4855   22.6025 C.3       5 GLY6        0.0000 
     84 CA         28.4005   47.2843   22.3057 C.3       5 GLY6        0.0000 
     85 N          26.4473   47.9120   21.7661 N.2       2 ALA2        0.0000 
     86 OD1        27.2953   46.7108   21.4692 O.3       3 ASP3        0.0000 
@<TRIPOS>BOND
@<TRIPOS>SUBSTRUCTURE
     1 SER1        5 GROUP   
     2 ALA2        9 GROUP   
     3 ASP3       53 GROUP   
     4 LYS4       29 GROUP   
     5 GLY6        1 GROUP   
     6 CUB7        2 GROUP   
@<TRIPOS>SET

