#    Name: 3zhy_FM6_2_INTS_M
#    Modification time : Tue Mar 25 03:21:16 2014

@<TRIPOS>MOLECULE
3zhy_FM6_2_INTS_M
   58     0    12     0     0
SMALL
NO_CHARGES


@<TRIPOS>ATOM
      1 CA         27.9915   40.7135   29.2825 C.3       4 GLC5        0.0000 
      2 CA         26.3920   41.6060   28.9290 C.3      12 GLL5        0.0000 
      3 CA         29.5910   39.8210   29.6360 C.3       8 GLP5        0.0000 
      4 NZ         23.3105   42.7125   20.8895 N.4       2 LYC4        0.0000 
      5 NZ         22.8670   44.1440   21.6540 N.4      10 LYL4        0.0000 
      6 NZ         23.7540   41.2810   20.1250 N.4       6 LYP4        0.0000 
      7 N          23.7060   44.8670   20.8030 N.am      1 SEC2        0.0000 
      8 N          22.8670   44.1440   21.6540 N.am      9 SEL2        0.0000 
      9 N          24.5450   45.5900   19.9520 N.am      5 SEP2        0.0000 
     10 N          23.3105   42.7125   20.8895 N.am      1 SEC2        0.0000 
     11 N          23.7540   41.2810   20.1250 N.am      5 SEP2        0.0000 
     12 NZ         23.3510   41.5965   21.4075 N.4       2 LYC4        0.0000 
     13 NZ         22.9480   41.9120   22.6900 N.4      10 LYL4        0.0000 
     14 N          22.1165   40.9780   23.4455 N.am      1 SEC2        0.0000 
     15 N          22.9480   41.9120   22.6900 N.am      9 SEL2        0.0000 
     16 N          21.2850   40.0440   24.2010 N.am      5 SEP2        0.0000 
     17 N          23.3510   41.5965   21.4075 N.am      1 SEC2        0.0000 
     18 N          21.5355   43.1975   24.9015 N.am      1 SEC2        0.0000 
     19 N          22.0980   43.8470   23.9580 N.am      9 SEL2        0.0000 
     20 N          20.9730   42.5480   25.8450 N.am      5 SEP2        0.0000 
     21 N          22.5215   45.2980   23.7890 N.am      1 SEC2        0.0000 
     22 N          22.9450   46.7490   23.6200 N.am      5 SEP2        0.0000 
     23 CA         23.5740   46.3600   23.6140 C.3       4 GLC5        0.0000 
     24 CA         25.3010   45.1260   23.3960 C.3      12 GLL5        0.0000 
     25 CA         21.8470   47.5940   23.8320 C.3       8 GLP5        0.0000 
     26 CA         28.8680   45.8250   23.0825 C.3       4 GLC5        0.0000 
     27 CA         26.8080   45.2880   23.7000 C.3      12 GLL5        0.0000 
     28 CA         30.9280   46.3620   22.4650 C.3       8 GLP5        0.0000 
     29 Zn         27.6420   44.0045   20.7575 Zn        3 ZIC7        0.0000 
     30 Zn         27.1660   44.7160   21.4090 Zn       11 ZIL7        0.0000 
     31 Zn         28.1180   43.2930   20.1060 Zn        7 ZIP7        0.0000 
     32 N          25.8555   45.1530   20.6805 N.am      1 SEC2        0.0000 
     33 N          27.1660   44.7160   21.4090 N.am      9 SEL2        0.0000 
     34 Zn         28.6555   43.2220   21.0550 Zn        3 ZIC7        0.0000 
     35 Zn         29.1930   43.1510   22.0040 Zn       11 ZIL7        0.0000 
     36 N          29.6740   41.6800   22.3145 N.am      1 SEC2        0.0000 
     37 N          29.1930   43.1510   22.0040 N.am      9 SEL2        0.0000 
     38 N          30.1550   40.2090   22.6250 N.am      5 SEP2        0.0000 
     39 CA         30.4415   41.2680   23.7740 C.3       4 GLC5        0.0000 
     40 CA         29.3180   42.2730   24.9730 C.3      12 GLL5        0.0000 
     41 CA         31.5650   40.2630   22.5750 C.3       8 GLP5        0.0000 
     42 CA         25.8110   40.2362   27.9370 C.3       4 GLC5        0.0000 
     43 CA         25.8960   42.2450   27.3950 C.3      12 GLL5        0.0000 
     44 CA         25.4780   38.5470   27.7120 C.3       8 GLP5        0.0000 
     45 CA         25.8238   40.1890   26.6605 C.3       4 GLC5        0.0000 
     46 CA         26.3500   41.6000   26.2380 C.3      12 GLL5        0.0000 
     47 CA         23.2999   42.3602   26.0255 C.3       4 GLC5        0.0000 
     48 CA         25.1560   43.1770   24.8800 C.3      12 GLL5        0.0000 
     49 CA         21.5800   41.3260   26.2790 C.3       8 GLP5        0.0000 
     50 CA         31.6525   44.2852   26.2025 C.3       4 GLC5        0.0000 
     51 CA         30.0080   43.1950   27.1260 C.3      12 GLL5        0.0000 
     52 CA         33.4020   44.7360   25.5420 C.3       8 GLP5        0.0000 
     53 CA         29.7365   41.2332   28.1743 C.3       4 GLC5        0.0000 
     54 CA         31.2180   42.8747   24.9360 C.3       4 GLC5        0.0000 
     55 CA         29.7560   42.0960   26.2990 C.3      12 GLL5        0.0000 
     56 CA         32.8990   43.5650   24.2360 C.3       8 GLP5        0.0000 
     57 CA         31.0598   43.8320   24.5420 C.3       4 GLC5        0.0000 
     58 CA         29.0900   43.5500   24.4270 C.3      12 GLL5        0.0000 
@<TRIPOS>BOND
@<TRIPOS>SUBSTRUCTURE
     1 SEC2        7 GROUP        1 X    SEC  0     ROOT SEC X 2
     2 LYC4        4 GROUP        1 X    LYC  0     **** LYC X 4
     3 ZIC7       29 GROUP        1 X    ZIC  0     **** ZIC X 5
     4 GLC5        1 GROUP        1 X    GLC  0     **** GLC X 6
     5 SEP2        9 GROUP        1 Y    SEP  0     ROOT SEP Y 9
     6 LYP4        6 GROUP        1 Y    LYP  0     **** LYP Y 11
     7 ZIP7       31 GROUP        1 Y    ZIP  0     **** ZIP Y 12
     8 GLP5        3 GROUP        1 Y    GLP  0     **** GLP Y 13
     9 SEL2        8 GROUP        1 Z    SEL  0     ROOT SEL Z 16
    10 LYL4        5 GROUP        1 Z    LYL  0     **** LYL Z 18
    11 ZIL7       30 GROUP        1 Z    ZIL  0     **** ZIL Z 19
    12 GLL5        2 GROUP        1 Z    GLL  0     **** GLL Z 20
@<TRIPOS>SET

