#    Name: 3zhy_FM6_2_ligand
#    Modification time : Tue Mar 25 03:21:17 2014

@<TRIPOS>MOLECULE
3zhy_FM6_2_ligand
   38    39     1     0     0
SMALL
NO_CHARGES


@<TRIPOS>ATOM
      1 C7         24.7030   43.8450   26.0270 C.ar      1 FM6501      0.0000 
      2 C8         25.0640   43.3790   27.3010 C.ar      1 FM6501      0.0000 
      3 CL1        24.4740   44.2010   28.7250 Cl        1 FM6501      0.0000 
      4 C9         25.8960   42.2450   27.3950 C.ar      1 FM6501      0.0000 
      5 CL2        26.3920   41.6060   28.9290 Cl        1 FM6501      0.0000 
      6 C10        26.3500   41.6000   26.2380 C.ar      1 FM6501      0.0000 
      7 C11        25.9890   42.0620   24.9800 C.ar      1 FM6501      0.0000 
      8 C6         25.1560   43.1770   24.8800 C.ar      1 FM6501      0.0000 
      9 C4         24.8410   43.6670   23.4750 C.3       1 FM6501      0.0000 
     10 PA1        23.1160   43.3940   22.9280 P.3       1 FM6501      0.0000 
     11 OP1        22.8670   44.1440   21.6540 O.co2     1 FM6501      0.0000 
     12 OP3        22.9480   41.9120   22.6900 O.co2     1 FM6501      0.0000 
     13 OP2        22.0980   43.8470   23.9580 O.co2     1 FM6501      0.0000 
     14 C3         25.3010   45.1260   23.3960 C.3       1 FM6501      0.0000 
     15 C2         26.8080   45.2880   23.7000 C.3       1 FM6501      0.0000 
     16 N1         27.5700   44.5460   22.6890 N.am      1 FM6501      0.0000 
     17 O2         27.1660   44.7160   21.4090 O.3       1 FM6501      0.0000 
     18 C1         28.6090   43.7320   22.9320 C.2       1 FM6501      0.0000 
     19 O1         29.1930   43.1510   22.0040 O.2       1 FM6501      0.0000 
     20 C12        29.7980   44.4740   26.6000 C.ar      1 FM6501      0.0000 
     21 C17        30.0080   43.1950   27.1260 C.ar      1 FM6501      0.0000 
     22 C16        29.7560   42.0960   26.2990 C.ar      1 FM6501      0.0000 
     23 C15        29.3180   42.2730   24.9730 C.ar      1 FM6501      0.0000 
     24 C14        29.0900   43.5500   24.4270 C.ar      1 FM6501      0.0000 
     25 C13        29.3510   44.6480   25.2690 C.ar      1 FM6501      0.0000 
     26 H          24.1079   44.6740   25.9355 H         1 FM6501      0.0000 
     27 H          26.9599   40.7719   26.3274 H         1 FM6501      0.0000 
     28 H          26.3267   41.5946   24.1368 H         1 FM6501      0.0000 
     29 H          25.4160   43.0774   22.7484 H         1 FM6501      0.0000 
     30 H          24.7319   45.7234   24.1136 H         1 FM6501      0.0000 
     31 H          25.1015   45.5138   22.3932 H         1 FM6501      0.0000 
     32 H          26.9940   44.8998   24.6952 H         1 FM6501      0.0000 
     33 H          27.0449   46.3458   23.6723 H         1 FM6501      0.0000 
     34 H          29.9690   45.3044   27.1837 H         1 FM6501      0.0000 
     35 H          30.3323   43.0692   28.0758 H         1 FM6501      0.0000 
     36 H          29.8917   41.1406   26.6618 H         1 FM6501      0.0000 
     37 H          29.1585   41.4371   24.3805 H         1 FM6501      0.0000 
     38 H          29.2134   45.6065   24.9082 H         1 FM6501      0.0000 
@<TRIPOS>BOND
     1    2    1 ar   
     2    8    1 ar   
     3   26    1 1    
     4    3    2 1    
     5    4    2 ar   
     6    5    4 1    
     7    6    4 ar   
     8    7    6 ar   
     9   27    6 1    
    10    8    7 ar   
    11   28    7 1    
    12    9    8 1    
    13   10    9 1    
    14   14    9 1    
    15   29    9 1    
    16   11   10 ar   
    17   12   10 ar   
    18   13   10 ar   
    19   15   14 1    
    20   30   14 1    
    21   31   14 1    
    22   16   15 1    
    23   32   15 1    
    24   33   15 1    
    25   17   16 1    
    26   18   16 am   
    27   19   18 2    
    28   24   18 1    
    29   21   20 ar   
    30   25   20 ar   
    31   34   20 1    
    32   22   21 ar   
    33   35   21 1    
    34   23   22 ar   
    35   36   22 1    
    36   24   23 ar   
    37   37   23 1    
    38   25   24 ar   
    39   38   25 1    
@<TRIPOS>SUBSTRUCTURE
     1 FM6501      1 GROUP   
@<TRIPOS>SET

