#    Name: 4lts_LTS_1_INTS_M
#    Modification time : Tue Mar 25 11:29:25 2014

@<TRIPOS>MOLECULE
4lts_LTS_1_INTS_M
   68     0     9     0     0
SMALL
NO_CHARGES


@<TRIPOS>ATOM
      1 CA         14.7625    8.2680   -3.4640 C.3       3 GLC5        0.0000 
      2 CA         15.0270    7.7750   -1.4700 C.3       9 GLL5        0.0000 
      3 CA         14.4980    8.7610   -5.4580 C.3       6 GLP5        0.0000 
      4 CA         13.4360    9.4535    3.0990 C.3       3 GLC5        0.0000 
      5 CA         14.2670   10.5900    2.0580 C.3       9 GLL5        0.0000 
      6 CA         12.6050    8.3170    4.1400 C.3       6 GLP5        0.0000 
      7 CA         15.6520   11.5890    1.2775 C.3       3 GLC5        0.0000 
      8 CA         17.0370   12.5880    0.4970 C.3       6 GLP5        0.0000 
      9 CA         14.3100   11.1545    0.1055 C.3       3 GLC5        0.0000 
     10 CA         14.3530   11.7190   -1.8470 C.3       6 GLP5        0.0000 
     11 CA         12.5985   11.5770    2.0260 C.3       3 GLC5        0.0000 
     12 CA         10.9300   12.5640    1.9940 C.3       6 GLP5        0.0000 
     13 CA         17.3095    8.5350    7.0880 C.3       3 GLC5        0.0000 
     14 CA         15.9000    9.9830    7.3830 C.3       9 GLL5        0.0000 
     15 CA         18.7190    7.0870    6.7930 C.3       6 GLP5        0.0000 
     16 CA         17.8055   10.2715    8.1945 C.3       3 GLC5        0.0000 
     17 CA         19.7110   10.5600    9.0060 C.3       6 GLP5        0.0000 
     18 CA         17.3465    6.5675   -6.0580 C.3       3 GLC5        0.0000 
     19 CA         16.4730    4.9640   -5.1420 C.3       9 GLL5        0.0000 
     20 CA         18.2200    8.1710   -6.9740 C.3       6 GLP5        0.0000 
     21 CA         18.1390   10.5965    2.5460 C.3       3 GLC5        0.0000 
     22 CA         16.8800    9.2300    1.4650 C.3       9 GLL5        0.0000 
     23 CA         19.3980   11.9630    3.6270 C.3       6 GLP5        0.0000 
     24 O          17.6675    8.1380    3.6560 O.2       1 ALC1        0.0000 
     25 O          16.7130    9.0930    2.9050 O.2       7 ALL1        0.0000 
     26 O          18.6220    7.1830    4.4070 O.2       4 ALP1        0.0000 
     27 N          13.5345   11.3910    0.0115 N.am      2 SEC2        0.0000 
     28 N          13.7740   10.6170    1.0460 N.am      8 SEL2        0.0000 
     29 N          13.2950   12.1650   -1.0230 N.am      5 SEP2        0.0000 
     30 O          17.5480    9.5350    5.2620 O.2       1 ALC1        0.0000 
     31 O          16.2880    9.9950    5.0040 O.2       7 ALL1        0.0000 
     32 O          18.8080    9.0750    5.5200 O.2       4 ALP1        0.0000 
     33 CA         13.2670    9.3085    7.7645 C.3       3 GLC5        0.0000 
     34 CA         13.5680   11.3580    7.1840 C.3       9 GLL5        0.0000 
     35 CA         12.9660    7.2590    8.3450 C.3       6 GLP5        0.0000 
     36 CA         17.8275    2.0160    0.7505 C.3       3 GLC5        0.0000 
     37 CA         18.0070    3.4220   -0.7630 C.3       9 GLL5        0.0000 
     38 CA         17.6480    0.6100    2.2640 C.3       6 GLP5        0.0000 
     39 CA         18.3390    1.0410    0.5835 C.3       3 GLC5        0.0000 
     40 CA         19.0300    1.4720   -1.0970 C.3       9 GLL5        0.0000 
     41 CA         16.8173    6.5440   -3.2155 C.3       3 GLC5        0.0000 
     42 CA         15.1670    4.8760   -3.1130 C.3       9 GLL5        0.0000 
     43 CA         18.3530    7.9460   -2.6850 C.3       6 GLP5        0.0000 
     44 CA         15.2162    6.9735   -5.1093 C.3       3 GLC5        0.0000 
     45 CA         15.3960    5.4080   -4.3790 C.3       9 GLL5        0.0000 
     46 CA         16.5998    7.5475   -1.9655 C.3       3 GLC5        0.0000 
     47 CA         13.1438    7.0260   -0.2935 C.3       3 GLC5        0.0000 
     48 CA         11.4410    6.9030    0.6590 C.3       6 GLP5        0.0000 
     49 CA         17.1283    8.2020   -1.3493 C.3       3 GLC5        0.0000 
     50 CA         15.7250    8.6510   -0.6550 C.3       9 GLL5        0.0000 
     51 CA         14.8645    9.9660   -1.4547 C.3       3 GLC5        0.0000 
     52 CA         14.2427    8.7033    8.1400 C.3       3 GLC5        0.0000 
     53 CA         18.5568    5.2088   -3.8994 C.3       3 GLC5        0.0000 
     54 CA         17.3190    3.9880   -4.6410 C.3       9 GLL5        0.0000 
     55 CA         20.1140    6.4470   -3.6680 C.3       6 GLP5        0.0000 
     56 CA         15.3580    5.3085    1.9032 C.3       3 GLC5        0.0000 
     57 CA         15.0410    6.1170    0.2460 C.3       9 GLL5        0.0000 
     58 CA         15.3260    4.0630    3.1550 C.3       6 GLP5        0.0000 
     59 CA         13.4155    6.7285    0.6552 C.3       3 GLC5        0.0000 
     60 CA         16.7144   10.7160    0.6114 C.3       3 GLC5        0.0000 
     61 CA         19.7058    4.7268   -2.7458 C.3       3 GLC5        0.0000 
     62 CA         19.8930    3.3300   -1.9550 C.3       9 GLL5        0.0000 
     63 CA         18.0396    0.7886   -1.6206 C.3       3 GLC5        0.0000 
     64 CA         17.3870   -0.6850   -2.0790 C.3       6 GLP5        0.0000 
     65 CA         20.8703    1.9779   -1.0424 C.3       3 GLC5        0.0000 
     66 CA         22.3610    1.2520   -0.4100 C.3       6 GLP5        0.0000 
     67 CA         20.0499    4.1841   -0.4666 C.3       3 GLC5        0.0000 
     68 CA         20.9760    5.1770    0.6580 C.3       6 GLP5        0.0000 
@<TRIPOS>BOND
@<TRIPOS>SUBSTRUCTURE
     1 ALC1       24 GROUP        1 X    ALC  0     ROOT ALC X 1
     2 SEC2       27 GROUP        1 X    SEC  0     **** SEC X 2
     3 GLC5        1 GROUP        1 X    GLC  0     **** GLC X 6
     4 ALP1       26 GROUP        1 Y    ALP  0     ROOT ALP Y 8
     5 SEP2       29 GROUP        1 Y    SEP  0     **** SEP Y 9
     6 GLP5        3 GROUP        1 Y    GLP  0     **** GLP Y 13
     7 ALL1       25 GROUP        1 Z    ALL  0     ROOT ALL Z 15
     8 SEL2       28 GROUP        1 Z    SEL  0     **** SEL Z 16
     9 GLL5        2 GROUP        1 Z    GLL  0     **** GLL Z 20
@<TRIPOS>SET

