#    Name: 4lts_LTS_1_ligand
#    Modification time : Tue Mar 25 11:29:26 2014

@<TRIPOS>MOLECULE
4lts_LTS_1_ligand
   50    52     1     0     0
SMALL
NO_CHARGES


@<TRIPOS>ATOM
      1 C4         16.0160    3.9020   -2.6220 C.ar      1 LTS601      0.0000 
      2 C5         15.1670    4.8760   -3.1130 C.ar      1 LTS601      0.0000 
      3 C6         15.3960    5.4080   -4.3790 C.ar      1 LTS601      0.0000 
      4 C10        14.6660    6.5230   -1.0220 C.ar      1 LTS601      0.0000 
      5 C13        16.0820    8.2650    0.6280 C.ar      1 LTS601      0.0000 
      6 C15        15.0270    7.7750   -1.4700 C.ar      1 LTS601      0.0000 
      7 C20        14.2670   10.5900    2.0580 C.1       1 LTS601      0.0000 
      8 C24        15.9000    9.9830    7.3830 C.ar      1 LTS601      0.0000 
      9 C28        14.2640   11.0540    6.0260 C.ar      1 LTS601      0.0000 
     10 C1         16.4730    4.9640   -5.1420 C.ar      1 LTS601      0.0000 
     11 C2         17.3190    3.9880   -4.6410 C.ar      1 LTS601      0.0000 
     12 C3         17.1030    3.4650   -3.3700 C.ar      1 LTS601      0.0000 
     13 S7         13.8120    5.4220   -2.1100 S.o2      1 LTS601      0.0000 
     14 O8         12.9610    6.1870   -2.9450 O.2       1 LTS601      0.0000 
     15 O9         13.3560    4.2890   -1.4000 O.2       1 LTS601      0.0000 
     16 C11        15.0410    6.1170    0.2460 C.ar      1 LTS601      0.0000 
     17 C12        15.7390    6.9910    1.0570 C.ar      1 LTS601      0.0000 
     18 C14        15.7250    8.6510   -0.6550 C.ar      1 LTS601      0.0000 
     19 C16        16.8800    9.2300    1.4650 C.3       1 LTS601      0.0000 
     20 N17        16.7130    9.0930    2.9050 N.pl3     1 LTS601      0.0000 
     21 C18        15.9150    9.8880    3.6820 C.2       1 LTS601      0.0000 
     22 N19        14.8530   10.5750    3.2690 N.2       1 LTS601      0.0000 
     23 N21        13.7740   10.6170    1.0460 N.1       1 LTS601      0.0000 
     24 N22        16.2880    9.9950    5.0040 N.pl3     1 LTS601      0.0000 
     25 C23        15.4680   10.3350    6.0980 C.ar      1 LTS601      0.0000 
     26 C25        15.1390   10.3120    8.4870 C.ar      1 LTS601      0.0000 
     27 N26        14.0020   10.9730    8.3820 N.pl3     1 LTS601      0.0000 
     28 C27        13.5680   11.3580    7.1840 C.ar      1 LTS601      0.0000 
     29 O29        17.9200    2.4900   -2.8850 O.3       1 LTS601      0.0000 
     30 C30        18.7020    2.6830   -1.6920 C.3       1 LTS601      0.0000 
     31 F31        18.0070    3.4220   -0.7630 F         1 LTS601      0.0000 
     32 F32        19.0300    1.4720   -1.0970 F         1 LTS601      0.0000 
     33 F33        19.8930    3.3300   -1.9550 F         1 LTS601      0.0000 
     34 H          15.8434    3.4916   -1.6879 H         1 LTS601      0.0000 
     35 H          14.7670    6.1322   -4.7526 H         1 LTS601      0.0000 
     36 H          14.7734    8.0695   -2.4330 H         1 LTS601      0.0000 
     37 H          16.7900    9.4769    7.4955 H         1 LTS601      0.0000 
     38 H          13.9065   11.3507    5.1099 H         1 LTS601      0.0000 
     39 H          16.6374    5.3621   -6.0757 H         1 LTS601      0.0000 
     40 H          18.1083    3.6479   -5.2072 H         1 LTS601      0.0000 
     41 H          14.8029    5.1764    0.5801 H         1 LTS601      0.0000 
     42 H          16.0157    6.6883    2.0145 H         1 LTS601      0.0000 
     43 H          15.9784    9.5865   -1.0005 H         1 LTS601      0.0000 
     44 H          16.6139   10.2688    1.1454 H         1 LTS601      0.0000 
     45 H          17.9591    9.1162    1.1918 H         1 LTS601      0.0000 
     46 H          17.2650    8.3092    3.3523 H         1 LTS601      0.0000 
     47 H          17.3231    9.7984    5.2401 H         1 LTS601      0.0000 
     48 H          15.5008   10.0135    9.4333 H         1 LTS601      0.0000 
     49 H          13.4375   11.1972    9.2373 H         1 LTS601      0.0000 
     50 H          12.6771   11.9076    7.0900 H         1 LTS601      0.0000 
@<TRIPOS>BOND
     1    2    1 ar   
     2   12    1 ar   
     3   34    1 1    
     4    3    2 ar   
     5   13    2 1    
     6   10    3 ar   
     7   35    3 1    
     8    6    4 ar   
     9   13    4 1    
    10   16    4 ar   
    11   17    5 ar   
    12   18    5 ar   
    13   19    5 1    
    14   18    6 ar   
    15   36    6 1    
    16   22    7 1    
    17   23    7 3    
    18   25    8 ar   
    19   26    8 ar   
    20   37    8 1    
    21   25    9 ar   
    22   28    9 ar   
    23   38    9 1    
    24   11   10 ar   
    25   39   10 1    
    26   12   11 ar   
    27   40   11 1    
    28   29   12 1    
    29   14   13 2    
    30   15   13 2    
    31   17   16 ar   
    32   41   16 1    
    33   42   17 1    
    34   43   18 1    
    35   20   19 1    
    36   44   19 1    
    37   45   19 1    
    38   21   20 1    
    39   46   20 1    
    40   22   21 2    
    41   24   21 1    
    42   25   24 1    
    43   47   24 1    
    44   27   26 ar   
    45   48   26 1    
    46   28   27 ar   
    47   49   27 1    
    48   50   28 1    
    49   30   29 1    
    50   31   30 1    
    51   32   30 1    
    52   33   30 1    
@<TRIPOS>SUBSTRUCTURE
     1 LTS601      1 GROUP   
@<TRIPOS>SET

