#    Name: 1pkf_EPD_1_INTS_M
#    Modification time : Mon Mar 24 21:50:03 2014

@<TRIPOS>MOLECULE
1pkf_EPD_1_INTS_M
   75     0     6     0     0
SMALL
NO_CHARGES


@<TRIPOS>ATOM
      1 CA         10.6365   39.5480   15.1495 C.3       2 GLC5        0.0000 
      2 CA          9.8770   38.8450   17.0040 C.3       6 GLL5        0.0000 
      3 CA         11.3960   40.2510   13.2950 C.3       4 GLP5        0.0000 
      4 CA         10.0505   37.8500   15.2245 C.3       2 GLC5        0.0000 
      5 CA         10.2240   36.8550   13.4450 C.3       4 GLP5        0.0000 
      6 CA          5.2455   36.5050   18.2080 C.3       2 GLC5        0.0000 
      7 CA          5.1190   38.0610   17.1600 C.3       6 GLL5        0.0000 
      8 CA          5.3720   34.9490   19.2560 C.3       4 GLP5        0.0000 
      9 CA          0.9520   37.9655   16.0460 C.3       2 GLC5        0.0000 
     10 CA          2.5170   38.0170   16.6140 C.3       6 GLL5        0.0000 
     11 CA         -0.6130   37.9140   15.4780 C.3       4 GLP5        0.0000 
     12 CA          0.4135   41.1840   22.4770 C.3       2 GLC5        0.0000 
     13 CA          0.1960   40.3190   20.5710 C.3       6 GLL5        0.0000 
     14 CA          0.6310   42.0490   24.3830 C.3       4 GLP5        0.0000 
     15 CA          0.0805   42.3470   19.9980 C.3       2 GLC5        0.0000 
     16 CA         -0.0350   44.3750   19.4250 C.3       4 GLP5        0.0000 
     17 CA          0.1375   38.5885   21.2885 C.3       2 GLC5        0.0000 
     18 CA          0.0790   36.8580   22.0060 C.3       4 GLP5        0.0000 
     19 CA         -2.8305   38.5930   18.8515 C.3       2 GLC5        0.0000 
     20 CA         -1.2880   39.8210   18.3090 C.3       6 GLL5        0.0000 
     21 CA         -4.3730   37.3650   19.3940 C.3       4 GLP5        0.0000 
     22 CA          0.2525   41.4545   18.2780 C.3       2 GLC5        0.0000 
     23 CA          1.7930   43.0880   18.2470 C.3       4 GLP5        0.0000 
     24 CA         -0.9505   38.8675   16.8935 C.3       2 GLC5        0.0000 
     25 CA          4.3335   42.6880   16.6895 C.3       2 GLC5        0.0000 
     26 CA          5.5730   42.7620   15.2390 C.3       6 GLL5        0.0000 
     27 CA          3.0940   42.6140   18.1400 C.3       4 GLP5        0.0000 
     28 CA          7.0430   40.3130   11.8570 C.3       2 GLC5        0.0000 
     29 CA          6.4790   41.8110   13.2160 C.3       6 GLL5        0.0000 
     30 CA          7.6070   38.8150   10.4980 C.3       4 GLP5        0.0000 
     31 O           8.5825   42.9250   12.4525 O.2       1 ALC1        0.0000 
     32 O           7.7120   41.7730   12.3970 O.2       5 ALL1        0.0000 
     33 O           9.4530   44.0770   12.5080 O.2       3 ALP1        0.0000 
     34 CA          4.4085   43.7060   10.0465 C.3       2 GLC5        0.0000 
     35 CA          5.2450   43.7150   11.9170 C.3       6 GLL5        0.0000 
     36 CA          3.5720   43.6970    8.1760 C.3       4 GLP5        0.0000 
     37 CA          5.2015   45.7700   11.7555 C.3       2 GLC5        0.0000 
     38 CA          5.1580   47.8250   11.5940 C.3       4 GLP5        0.0000 
     39 CA          6.3455   45.0445   10.6255 C.3       2 GLC5        0.0000 
     40 CA          7.4460   46.3740    9.3340 C.3       4 GLP5        0.0000 
     41 CA          0.7255   39.8825   12.5405 C.3       2 GLC5        0.0000 
     42 CA          2.3030   41.0550   11.9450 C.3       6 GLL5        0.0000 
     43 CA         -0.8520   38.7100   13.1360 C.3       4 GLP5        0.0000 
     44 CA          3.3545   40.5240    8.6520 C.3       2 GLC5        0.0000 
     45 CA          3.4590   39.3370   10.4970 C.3       6 GLL5        0.0000 
     46 CA          3.2500   41.7110    6.8070 C.3       4 GLP5        0.0000 
     47 CA          4.0980   38.4645    8.5985 C.3       2 GLC5        0.0000 
     48 CA          4.7370   37.5920    6.7000 C.3       4 GLP5        0.0000 
     49 O           2.3515   37.7155   12.5250 O.2       1 ALC1        0.0000 
     50 O           2.8010   38.7970   13.4340 O.2       5 ALL1        0.0000 
     51 O           1.9020   36.6340   11.6160 O.2       3 ALP1        0.0000 
     52 CA          4.2615   36.4680   13.1980 C.3       2 GLC5        0.0000 
     53 CA          4.9930   38.5220   12.8860 C.3       6 GLL5        0.0000 
     54 CA          3.5300   34.4140   13.5100 C.3       4 GLP5        0.0000 
     55 CA          6.3000   38.6685   11.6920 C.3       2 GLC5        0.0000 
     56 CA          6.0860   37.3330   19.0605 C.3       2 GLC5        0.0000 
     57 CA          7.5840   38.4710   17.5620 C.3       6 GLL5        0.0000 
     58 CA          5.2830   36.0090   20.3480 C.3       4 GLP5        0.0000 
     59 CA          9.1552   37.0738   17.1259 C.3       2 GLC5        0.0000 
     60 CA          9.9330   35.3590   16.9290 C.3       4 GLP5        0.0000 
     61 CA          3.3205   40.6672   18.1613 C.3       2 GLC5        0.0000 
     62 CA          3.6170   38.3950   17.5970 C.3       6 GLL5        0.0000 
     63 CA          4.4150   37.3648   19.2653 C.3       2 GLC5        0.0000 
     64 CA          3.4770   39.0460   18.7680 C.3       6 GLL5        0.0000 
     65 CA          1.0710   38.2795   20.9443 C.3       2 GLC5        0.0000 
     66 CA          2.2310   39.4570   19.3070 C.3       6 GLL5        0.0000 
     67 CA          9.8793   40.9772   14.4855 C.3       2 GLC5        0.0000 
     68 CA          7.9280   41.6370   15.0440 C.3       6 GLL5        0.0000 
     69 CA          8.5278   43.7628   15.6310 C.3       2 GLC5        0.0000 
     70 CA          8.6930   45.8220   15.5860 C.3       4 GLP5        0.0000 
     71 CA          7.4588   44.2525   15.2432 C.3       2 GLC5        0.0000 
     72 CA          6.8760   42.6040   14.5620 C.3       6 GLL5        0.0000 
     73 CA          5.5708   39.3367   10.7747 C.3       2 GLC5        0.0000 
     74 CA          1.7884   40.0606   10.0056 C.3       2 GLC5        0.0000 
     75 CA          0.3690   40.0940    8.8750 C.3       4 GLP5        0.0000 
@<TRIPOS>BOND
@<TRIPOS>SUBSTRUCTURE
     1 ALC1       31 GROUP        1 X    ALC  0     ROOT ALC X 1
     2 GLC5        1 GROUP        1 X    GLC  0     **** GLC X 6
     3 ALP1       33 GROUP        1 Y    ALP  0     ROOT ALP Y 8
     4 GLP5        3 GROUP        1 Y    GLP  0     **** GLP Y 13
     5 ALL1       32 GROUP        1 Z    ALL  0     ROOT ALL Z 15
     6 GLL5        2 GROUP        1 Z    GLL  0     **** GLL Z 20
@<TRIPOS>SET

