#    Name: 1pkf_EPD_1_ligand
#    Modification time : Mon Mar 24 21:50:04 2014

@<TRIPOS>MOLECULE
1pkf_EPD_1_ligand
   75    76     1     0     0
SMALL
NO_CHARGES


@<TRIPOS>ATOM
      1 C51         9.8770   38.8450   17.0040 C.3       1 EPD450      0.0000 
      2 C5          8.4650   39.3670   17.1630 C.2       1 EPD450      0.0000 
      3 C4          7.5840   38.4710   17.5620 C.2       1 EPD450      0.0000 
      4 C3          6.1940   38.8430   17.9840 C.3       1 EPD450      0.0000 
      5 C2          5.1190   38.0610   17.1600 C.3       1 EPD450      0.0000 
      6 C20         3.6170   38.3950   17.5970 C.2       1 EPD450      0.0000 
      7 C21         2.5170   38.0170   16.6140 C.3       1 EPD450      0.0000 
      8 C22         3.4770   39.0460   18.7680 C.2       1 EPD450      0.0000 
      9 C23         2.2310   39.4570   19.3070 C.2       1 EPD450      0.0000 
     10 C24         1.8950   39.9450   20.4580 C.2       1 EPD450      0.0000 
     11 S1          0.1960   40.3190   20.5710 S.3       1 EPD450      0.0000 
     12 C25         0.0760   39.7760   18.9370 C.2       1 EPD450      0.0000 
     13 C27        -1.2880   39.8210   18.3090 C.3       1 EPD450      0.0000 
     14 N26         1.1340   39.3860   18.3930 N.2       1 EPD450      0.0000 
     15 C6          8.2070   40.8740   17.3890 C.3       1 EPD450      0.0000 
     16 C7          8.7970   41.7700   16.3080 C.3       1 EPD450      0.0000 
     17 C8          7.9280   41.6370   15.0440 C.3       1 EPD450      0.0000 
     18 C9          6.8760   42.6040   14.5620 C.3       1 EPD450      0.0000 
     19 C91         5.5730   42.7620   15.2390 C.3       1 EPD450      0.0000 
     20 C10         6.4790   41.8110   13.2160 C.3       1 EPD450      0.0000 
     21 O10         7.7120   41.7730   12.3970 O.3       1 EPD450      0.0000 
     22 C11         5.1660   42.3050   12.4820 C.3       1 EPD450      0.0000 
     23 C28         5.2450   43.7150   11.9170 C.3       1 EPD450      0.0000 
     24 C12         4.7770   41.3620   11.3450 C.2       1 EPD450      0.0000 
     25 O12         5.4670   41.4750   10.3210 O.2       1 EPD450      0.0000 
     26 C13         3.6100   40.3800   11.6060 C.3       1 EPD450      0.0000 
     27 C30         2.3030   41.0550   11.9450 C.3       1 EPD450      0.0000 
     28 C29         3.4590   39.3370   10.4970 C.3       1 EPD450      0.0000 
     29 C14         3.9140   39.5660   12.9630 C.3       1 EPD450      0.0000 
     30 O14         2.8010   38.7970   13.4340 O.3       1 EPD450      0.0000 
     31 C15         4.9930   38.5220   12.8860 C.3       1 EPD450      0.0000 
     32 C16         5.2650   37.9150   14.3070 C.2       1 EPD450      0.0000 
     33 O16         5.8750   36.8730   14.4020 O.2       1 EPD450      0.0000 
     34 O1          4.7990   38.6050   15.5110 O.3       1 EPD450      0.0000 
     35 H           7.7867   37.4497   17.6128 H         1 EPD450      0.0000 
     36 H           6.0220   39.9092   17.8322 H         1 EPD450      0.0000 
     37 H           6.0411   38.6117   19.0388 H         1 EPD450      0.0000 
     38 H           5.2001   37.0547   17.0768 H         1 EPD450      0.0000 
     39 H           4.3357   39.2795   19.3452 H         1 EPD450      0.0000 
     40 H           2.3380   40.1587   21.2769 H         1 EPD450      0.0000 
     41 H           8.6279   41.1565   18.3661 H         1 EPD450      0.0000 
     42 H           7.1197   41.0367   17.4436 H         1 EPD450      0.0000 
     43 H           9.8016   41.4545   16.0806 H         1 EPD450      0.0000 
     44 H           8.7860   42.7955   16.6377 H         1 EPD450      0.0000 
     45 H           7.4357   40.5819   15.0952 H         1 EPD450      0.0000 
     46 H           8.6637   41.4515   14.1594 H         1 EPD450      0.0000 
     47 H           7.2973   43.4904   14.2059 H         1 EPD450      0.0000 
     48 H           6.2851   40.7631   13.5734 H         1 EPD450      0.0000 
     49 H           4.3512   42.2757   13.2179 H         1 EPD450      0.0000 
     50 H           4.2011   40.2886   13.7265 H         1 EPD450      0.0000 
     51 H           5.9193   38.9572   12.5258 H         1 EPD450      0.0000 
     52 H           4.6936   37.7124   12.2287 H         1 EPD450      0.0000 
     53 H          10.5051   39.5602   16.6974 H         1 EPD450      0.0000 
     54 H          10.2392   38.4858   17.8641 H         1 EPD450      0.0000 
     55 H           9.9260   38.1048   16.3334 H         1 EPD450      0.0000 
     56 H           2.6270   38.4833   15.7362 H         1 EPD450      0.0000 
     57 H           2.5089   37.0350   16.4253 H         1 EPD450      0.0000 
     58 H           1.6103   38.2562   16.9613 H         1 EPD450      0.0000 
     59 H          -1.2730   39.4929   17.3645 H         1 EPD450      0.0000 
     60 H          -1.9446   39.2537   18.8060 H         1 EPD450      0.0000 
     61 H          -1.6580   40.7499   18.2908 H         1 EPD450      0.0000 
     62 H           5.6813   43.0500   16.1905 H         1 EPD450      0.0000 
     63 H           5.0012   43.4476   14.7885 H         1 EPD450      0.0000 
     64 H           5.0535   41.9076   15.2487 H         1 EPD450      0.0000 
     65 H           5.4212   44.3921   12.6315 H         1 EPD450      0.0000 
     66 H           5.9773   43.8041   11.2418 H         1 EPD450      0.0000 
     67 H           4.3944   43.9817   11.4638 H         1 EPD450      0.0000 
     68 H           2.3773   41.6151   12.7701 H         1 EPD450      0.0000 
     69 H           1.9941   41.6571   11.2088 H         1 EPD450      0.0000 
     70 H           1.5729   40.3909   12.1063 H         1 EPD450      0.0000 
     71 H           4.2840   38.7812   10.3951 H         1 EPD450      0.0000 
     72 H           2.7027   38.7085   10.6788 H         1 EPD450      0.0000 
     73 H           3.2803   39.7618    9.6095 H         1 EPD450      0.0000 
     74 H           8.1838   42.6310   12.5998 H         1 EPD450      0.0000 
     75 H           2.5000   38.2657   12.6421 H         1 EPD450      0.0000 
@<TRIPOS>BOND
     1    2    1 1    
     2   53    1 1    
     3   54    1 1    
     4   55    1 1    
     5    3    2 2    
     6   15    2 1    
     7    4    3 1    
     8   35    3 1    
     9    5    4 1    
    10   36    4 1    
    11   37    4 1    
    12    6    5 1    
    13   34    5 1    
    14   38    5 1    
    15    7    6 1    
    16    8    6 2    
    17   56    7 1    
    18   57    7 1    
    19   58    7 1    
    20    9    8 1    
    21   39    8 1    
    22   10    9 2    
    23   14    9 1    
    24   11   10 1    
    25   40   10 1    
    26   12   11 1    
    27   13   12 1    
    28   14   12 2    
    29   59   13 1    
    30   60   13 1    
    31   61   13 1    
    32   16   15 1    
    33   41   15 1    
    34   42   15 1    
    35   17   16 1    
    36   43   16 1    
    37   44   16 1    
    38   18   17 1    
    39   45   17 1    
    40   46   17 1    
    41   19   18 1    
    42   20   18 1    
    43   47   18 1    
    44   62   19 1    
    45   63   19 1    
    46   64   19 1    
    47   21   20 1    
    48   22   20 1    
    49   48   20 1    
    50   74   21 1    
    51   23   22 1    
    52   24   22 1    
    53   49   22 1    
    54   65   23 1    
    55   66   23 1    
    56   67   23 1    
    57   25   24 2    
    58   26   24 1    
    59   27   26 1    
    60   28   26 1    
    61   29   26 1    
    62   68   27 1    
    63   69   27 1    
    64   70   27 1    
    65   71   28 1    
    66   72   28 1    
    67   73   28 1    
    68   30   29 1    
    69   31   29 1    
    70   50   29 1    
    71   75   30 1    
    72   32   31 1    
    73   51   31 1    
    74   52   31 1    
    75   33   32 2    
    76   34   32 1    
@<TRIPOS>SUBSTRUCTURE
     1 EPD450      1 GROUP   
@<TRIPOS>SET

