#    Name: 3bk2_U5P_1_INTS_M
#    Modification time : Mon Mar 24 19:48:53 2014

@<TRIPOS>MOLECULE
3bk2_U5P_1_INTS_M
   41     0     9     0     0
SMALL
NO_CHARGES


@<TRIPOS>ATOM
      1 CA         11.1630   40.0085   35.0790 C.3       3 GLC5        0.0000 
      2 CA         10.0840   38.4040   35.5760 C.3       9 GLL5        0.0000 
      3 CA         12.2420   41.6130   34.5820 C.3       6 GLP5        0.0000 
      4 CA         12.4905   38.6550   35.3845 C.3       3 GLC5        0.0000 
      5 CA         11.0990   37.4500   35.8640 C.3       9 GLL5        0.0000 
      6 CA         13.8820   39.8600   34.9050 C.3       6 GLP5        0.0000 
      7 O          15.8025   36.8340   35.1145 O.2       1 ALC1        0.0000 
      8 O          14.6550   36.1300   34.6120 O.2       7 ALL1        0.0000 
      9 O          16.9500   37.5380   35.6170 O.2       4 ALP1        0.0000 
     10 CA         15.9025   35.1740   37.3190 C.3       3 GLC5        0.0000 
     11 CA         14.2360   34.3000   36.1760 C.3       9 GLL5        0.0000 
     12 CA         17.5690   36.0480   38.4620 C.3       6 GLP5        0.0000 
     13 CA         14.4325   33.2910   34.1815 C.3       3 GLC5        0.0000 
     14 CA         14.6290   32.2820   32.1870 C.3       6 GLP5        0.0000 
     15 CA         11.6880   32.4715   35.7675 C.3       3 GLC5        0.0000 
     16 CA         12.9360   33.6860   36.7170 C.3       9 GLL5        0.0000 
     17 CA         10.4400   31.2570   34.8180 C.3       6 GLP5        0.0000 
     18 O          16.0595   33.9710   34.7650 O.2       1 ALC1        0.0000 
     19 O          14.8180   33.4490   35.1790 O.2       7 ALL1        0.0000 
     20 O          17.3010   34.4930   34.3510 O.2       4 ALP1        0.0000 
     21 CA         12.1720   31.9785   39.1715 C.3       3 GLC5        0.0000 
     22 CA         12.7750   33.8480   38.2550 C.3       9 GLL5        0.0000 
     23 CA         11.5690   30.1090   40.0880 C.3       6 GLP5        0.0000 
     24 CA         11.3345   33.5175   39.6125 C.3       3 GLC5        0.0000 
     25 CA          9.8940   33.1870   40.9700 C.3       6 GLP5        0.0000 
     26 N          11.7520   36.3020   42.1325 N.am      2 SEC2        0.0000 
     27 N          12.2080   36.4610   40.7090 N.am      8 SEL2        0.0000 
     28 N          11.2960   36.1430   43.5560 N.am      5 SEP2        0.0000 
     29 N          13.1445   33.8695   42.1645 N.am      2 SEC2        0.0000 
     30 N          13.4150   34.1280   40.9720 N.am      8 SEL2        0.0000 
     31 N          12.8740   33.6110   43.3570 N.am      5 SEP2        0.0000 
     32 N          15.3650   36.0230   39.1925 N.am      2 SEC2        0.0000 
     33 N          14.5340   36.2030   40.1920 N.am      8 SEL2        0.0000 
     34 N          16.1960   35.8430   38.1930 N.am      5 SEP2        0.0000 
     35 N          15.2095   37.2520   40.7750 N.am      2 SEC2        0.0000 
     36 N          15.8850   38.3010   41.3580 N.am      5 SEP2        0.0000 
     37 CA         13.3487   37.4380   34.5170 C.3       3 GLC5        0.0000 
     38 CA         13.7830   35.6690   35.6550 C.3       9 GLL5        0.0000 
     39 CA         13.6110   39.3630   33.6320 C.3       6 GLP5        0.0000 
     40 CA         13.5218   36.1165   33.3740 C.3       3 GLC5        0.0000 
     41 CA         13.9570   36.7200   31.3460 C.3       6 GLP5        0.0000 
@<TRIPOS>BOND
@<TRIPOS>SUBSTRUCTURE
     1 ALC1        7 GROUP        1 X    ALC  0     ROOT ALC X 1
     2 SEC2       26 GROUP        1 X    SEC  0     **** SEC X 2
     3 GLC5        1 GROUP        1 X    GLC  0     **** GLC X 6
     4 ALP1        9 GROUP        1 Y    ALP  0     ROOT ALP Y 8
     5 SEP2       28 GROUP        1 Y    SEP  0     **** SEP Y 9
     6 GLP5        3 GROUP        1 Y    GLP  0     **** GLP Y 13
     7 ALL1        8 GROUP        1 Z    ALL  0     ROOT ALL Z 15
     8 SEL2       27 GROUP        1 Z    SEL  0     **** SEL Z 16
     9 GLL5        2 GROUP        1 Z    GLL  0     **** GLL Z 20
@<TRIPOS>SET

