#    Name: 3bk2_U5P_1_ligand
#    Modification time : Mon Mar 24 19:48:53 2014

@<TRIPOS>MOLECULE
3bk2_U5P_1_ligand
   32    33     1     0     0
SMALL
NO_CHARGES


@<TRIPOS>ATOM
      1 N1         11.3690   36.4260   34.9820 N.am      1 U5P950      0.0000 
      2 C2         10.6230   36.3320   33.7480 C.2       1 U5P950      0.0000 
      3 N3          9.6560   37.2460   33.4840 N.am      1 U5P950      0.0000 
      4 C4          9.3780   38.2670   34.3580 C.2       1 U5P950      0.0000 
      5 C5         10.0840   38.4040   35.5760 C.2       1 U5P950      0.0000 
      6 C6         11.0990   37.4500   35.8640 C.2       1 U5P950      0.0000 
      7 O2         10.8380   35.4000   32.9010 O.2       1 U5P950      0.0000 
      8 O4          8.4570   39.0670   34.0240 O.2       1 U5P950      0.0000 
      9 C1'        12.3900   35.3570   35.1490 C.3       1 U5P950      0.0000 
     10 C2'        13.7830   35.6690   35.6550 C.3       1 U5P950      0.0000 
     11 O2'        14.6550   36.1300   34.6120 O.3       1 U5P950      0.0000 
     12 C3'        14.2360   34.3000   36.1760 C.3       1 U5P950      0.0000 
     13 C4'        12.9360   33.6860   36.7170 C.3       1 U5P950      0.0000 
     14 O3'        14.8180   33.4490   35.1790 O.3       1 U5P950      0.0000 
     15 O4'        11.8550   34.3790   36.0610 O.3       1 U5P950      0.0000 
     16 C5'        12.7750   33.8480   38.2550 C.3       1 U5P950      0.0000 
     17 O5'        12.8560   35.2150   38.7120 O.3       1 U5P950      0.0000 
     18 P          13.1920   35.5130   40.1450 P.3       1 U5P950      0.0000 
     19 O1P        12.2080   36.4610   40.7090 O.co2     1 U5P950      0.0000 
     20 O2P        13.4150   34.1280   40.9720 O.co2     1 U5P950      0.0000 
     21 O3P        14.5340   36.2030   40.1920 O.co2     1 U5P950      0.0000 
     22 H           9.1058   37.1770   32.5959 H         1 U5P950      0.0000 
     23 H           9.8787   39.1473   36.2173 H         1 U5P950      0.0000 
     24 H          11.6254   37.5420   36.7436 H         1 U5P950      0.0000 
     25 H          12.5085   34.8265   34.1701 H         1 U5P950      0.0000 
     26 H          13.7082   36.3209   36.4810 H         1 U5P950      0.0000 
     27 H          14.8757   34.4652   37.0211 H         1 U5P950      0.0000 
     28 H          12.9183   32.6449   36.4743 H         1 U5P950      0.0000 
     29 H          13.5549   33.2174   38.7294 H         1 U5P950      0.0000 
     30 H          11.8027   33.3886   38.5280 H         1 U5P950      0.0000 
     31 H          15.0942   36.9476   34.9845 H         1 U5P950      0.0000 
     32 H          15.8049   33.5843   35.2674 H         1 U5P950      0.0000 
@<TRIPOS>BOND
     1    2    1 1    
     2    6    1 1    
     3    9    1 1    
     4    3    2 1    
     5    7    2 2    
     6    4    3 1    
     7   22    3 1    
     8    5    4 1    
     9    8    4 2    
    10    6    5 2    
    11   23    5 1    
    12   24    6 1    
    13   10    9 1    
    14   15    9 1    
    15   25    9 1    
    16   11   10 1    
    17   12   10 1    
    18   26   10 1    
    19   31   11 1    
    20   13   12 1    
    21   14   12 1    
    22   27   12 1    
    23   15   13 1    
    24   16   13 1    
    25   28   13 1    
    26   32   14 1    
    27   17   16 1    
    28   29   16 1    
    29   30   16 1    
    30   18   17 1    
    31   19   18 ar   
    32   20   18 ar   
    33   21   18 ar   
@<TRIPOS>SUBSTRUCTURE
     1 U5P950      1 GROUP   
@<TRIPOS>SET

