#    Name: 2AMV_1_CAVITY_N1_6.mol2
#    Modification time : Tue Mar 11 02:11:33 2014

@<TRIPOS>MOLECULE
2AMV_1_CAVITY_N1_6.mol2
   81     0     5     0     0
SMALL
NO_CHARGES


@<TRIPOS>ATOM
      1 O          24.8308    3.6898   53.9397 O.2       1 ALA2        0.0000 
      2 DU         25.9111    2.9334   53.2251 H         5 CUB7        0.0000 
      3 DU         28.0718    1.4204   51.7960 H         5 CUB7        0.0000 
      4 DU         29.1521    0.6640   51.0814 H         5 CUB7        0.0000 
      5 DU         30.2324   -0.0925   50.3668 H         5 CUB7        0.0000 
      6 CA         31.3127   -0.8490   49.6522 C.3       4 GLY6        0.0000 
      7 CZ         32.3931   -1.6054   48.9376 C.ar      3 PHE5        0.0000 
      8 DU         24.8707    2.1706   52.4598 H         5 CUB7        0.0000 
      9 CA         25.9510    1.4141   51.7452 C.3       4 GLY6        0.0000 
     10 CA         27.0314    0.6576   51.0306 C.3       4 GLY6        0.0000 
     11 CA         28.1117   -0.0988   50.3160 C.3       4 GLY6        0.0000 
     12 N          29.1920   -0.8553   49.6014 N.2       1 ALA2        0.0000 
     13 CA         30.2724   -1.6118   48.8868 C.3       4 GLY6        0.0000 
     14 CA         22.7500    2.1643   52.4090 C.3       4 GLY6        0.0000 
     15 CA         23.8303    1.4078   51.6944 C.3       4 GLY6        0.0000 
     16 CA         24.9107    0.6513   50.9798 C.3       4 GLY6        0.0000 
     17 O          26.9741    4.7430   52.9165 O.2       1 ALA2        0.0000 
     18 CZ         28.0544    3.9865   52.2019 C.ar      3 PHE5        0.0000 
     19 CZ         29.1347    3.2301   51.4873 C.ar      3 PHE5        0.0000 
     20 O          30.2151    2.4736   50.7727 O.2       1 ALA2        0.0000 
     21 O          31.2954    1.7171   50.0581 O.2       1 ALA2        0.0000 
     22 O          25.9337    3.9802   52.1511 O.2       1 ALA2        0.0000 
     23 DU         27.0140    3.2238   51.4365 H         5 CUB7        0.0000 
     24 DU         28.0944    2.4673   50.7219 H         5 CUB7        0.0000 
     25 O          29.1747    1.7108   50.0073 O.2       1 ALA2        0.0000 
     26 CA         30.2550    0.9544   49.2927 C.3       4 GLY6        0.0000 
     27 CA         31.3354    0.1979   48.5782 C.3       4 GLY6        0.0000 
     28 O          24.8933    3.2174   51.3857 O.2       1 ALA2        0.0000 
     29 CA         25.9737    2.4610   50.6711 C.3       4 GLY6        0.0000 
     30 CA         27.0540    1.7045   49.9565 C.3       4 GLY6        0.0000 
     31 CA         28.1343    0.9480   49.2420 C.3       4 GLY6        0.0000 
     32 O          29.2147    0.1916   48.5274 O.2       1 ALA2        0.0000 
     33 N          30.2950   -0.5649   47.8128 N.2       1 ALA2        0.0000 
     34 CA         22.7726    3.2111   51.3349 C.3       4 GLY6        0.0000 
     35 CA         23.8529    2.4547   50.6204 C.3       4 GLY6        0.0000 
     36 CA         24.9333    1.6982   49.9058 C.3       4 GLY6        0.0000 
     37 O          29.1573    4.2769   50.4133 O.2       1 ALA2        0.0000 
     38 O          30.2377    3.5205   49.6987 O.2       1 ALA2        0.0000 
     39 NZ         25.9563    5.0271   51.0771 N.2       2 LYS4        0.0000 
     40 O          27.0366    4.2706   50.3625 O.2       1 ALA2        0.0000 
     41 O          28.1170    3.5142   49.6479 O.2       1 ALA2        0.0000 
     42 O          29.1973    2.7577   48.9333 O.2       1 ALA2        0.0000 
     43 O          30.2776    2.0012   48.2187 O.2       1 ALA2        0.0000 
     44 O          24.9159    4.2643   50.3117 O.2       1 ALA2        0.0000 
     45 CA         25.9963    3.5078   49.5971 C.3       4 GLY6        0.0000 
     46 O          22.7952    4.2580   50.2609 O.2       1 ALA2        0.0000 
     47 CA         23.8756    3.5015   49.5463 C.3       4 GLY6        0.0000 
     48 NZ         27.0592    5.3175   49.2884 N.2       2 LYS4        0.0000 
     49 O          28.1396    4.5610   48.5738 O.2       1 ALA2        0.0000 
     50 O          24.9385    5.3112   49.2376 O.2       1 ALA2        0.0000 
     51 CA         26.0189    4.5547   48.5231 C.3       4 GLY6        0.0000 
     52 CZ         32.3079   -2.1799   52.5657 C.ar      3 PHE5        0.0000 
     53 CZ         33.3882   -2.9364   51.8511 C.ar      3 PHE5        0.0000 
     54 CZ         29.1468   -2.9490   51.7495 C.ar      3 PHE5        0.0000 
     55 O          34.4113    0.3925   53.0224 O.2       1 ALA2        0.0000 
     56 O          33.3709   -0.3703   52.2570 O.2       1 ALA2        0.0000 
     57 CA         34.4512   -1.1267   51.5424 C.3       4 GLY6        0.0000 
     58 DU         31.2502   -0.3766   52.2062 H         5 CUB7        0.0000 
     59 CZ         32.3305   -1.1331   51.4916 C.ar      3 PHE5        0.0000 
     60 CZ         33.4108   -1.8895   50.7770 C.ar      3 PHE5        0.0000 
     61 CA         34.4912   -2.6460   50.0624 C.3       4 GLY6        0.0000 
     62 DU         30.2098   -1.1394   51.4408 H         5 CUB7        0.0000 
     63 CZ         31.2901   -1.8958   50.7262 C.ar      3 PHE5        0.0000 
     64 DU         25.9284    0.3673   52.8192 H         5 CUB7        0.0000 
     65 DU         27.0088   -0.3892   52.1046 H         5 CUB7        0.0000 
     66 DU         28.0891   -1.1457   51.3900 H         5 CUB7        0.0000 
     67 CA         29.1694   -1.9022   50.6755 C.3       4 GLY6        0.0000 
     68 CA         23.8077    0.3609   52.7684 C.3       4 GLY6        0.0000 
     69 CA         24.8881   -0.3955   52.0538 C.3       4 GLY6        0.0000 
     70 CA         25.9684   -1.1520   51.3393 C.3       4 GLY6        0.0000 
     71 N          27.0487   -1.9085   50.6247 N.2       1 ALA2        0.0000 
     72 CZ         31.2328    2.1895   52.6121 C.ar      3 PHE5        0.0000 
     73 CA         34.4738   -0.0799   50.4684 C.3       4 GLY6        0.0000 
     74 O          25.8711    4.4526   54.7051 O.2       1 ALA2        0.0000 
     75 DU         26.9515    3.6961   53.9905 H         5 CUB7        0.0000 
     76 CZ         28.0318    2.9397   53.2759 C.ar      3 PHE5        0.0000 
     77 CZ         29.1121    2.1832   52.5613 C.ar      3 PHE5        0.0000 
     78 O          30.1925    1.4267   51.8468 O.2       1 ALA2        0.0000 
     79 O          31.2728    0.6703   51.1322 O.2       1 ALA2        0.0000 
     80 CA         32.3531   -0.0862   50.4176 C.3       4 GLY6        0.0000 
     81 CA         33.4335   -0.8427   49.7030 C.3       4 GLY6        0.0000 
@<TRIPOS>BOND
@<TRIPOS>SUBSTRUCTURE
     1 ALA2        1 GROUP   
     2 LYS4       39 GROUP   
     3 PHE5        7 GROUP   
     4 GLY6        6 GROUP   
     5 CUB7        2 GROUP   
@<TRIPOS>SET

