#    Name: 2amv_BIN_1_INTS_M
#    Modification time : Mon Mar 24 19:26:38 2014

@<TRIPOS>MOLECULE
2amv_BIN_1_INTS_M
   46     0     9     0     0
SMALL
NO_CHARGES


@<TRIPOS>ATOM
      1 CA         26.7465    6.1990   54.4505 C.3       3 GLC5        0.0000 
      2 CA         27.6440    4.3340   54.6160 C.3       9 GLL5        0.0000 
      3 CA         25.8490    8.0640   54.2850 C.3       6 GLP5        0.0000 
      4 CA         29.2185    4.9415   56.9395 C.3       3 GLC5        0.0000 
      5 CA         28.4830    3.5460   55.5770 C.3       9 GLL5        0.0000 
      6 CA         29.9540    6.3370   58.3020 C.3       6 GLP5        0.0000 
      7 CA         25.4730   -3.0845   50.7510 C.3       3 GLC5        0.0000 
      8 CA         26.9570   -2.2800   51.0880 C.3       9 GLL5        0.0000 
      9 CA         23.9890   -3.8890   50.4140 C.3       6 GLP5        0.0000 
     10 CA         28.2975   -3.4165   49.9215 C.3       3 GLC5        0.0000 
     11 CA         29.6380   -4.5530   48.7550 C.3       6 GLP5        0.0000 
     12 CA         22.7215    3.9115   48.7585 C.3       3 GLC5        0.0000 
     13 CA         23.2690    3.2190   50.3990 C.3       9 GLL5        0.0000 
     14 CA         22.1740    4.6040   47.1180 C.3       6 GLP5        0.0000 
     15 CA         24.4440    2.5370   48.9110 C.3       3 GLC5        0.0000 
     16 CA         25.6190    1.8550   47.4230 C.3       6 GLP5        0.0000 
     17 NZ         29.2900    5.6450   50.4595 N.4       2 LYC4        0.0000 
     18 NZ         29.3430    4.1010   50.2600 N.4       8 LYL4        0.0000 
     19 NZ         30.3780    7.7300   50.2510 N.4       5 LYP4        0.0000 
     20 N          29.2900    5.6450   50.4595 N.am      1 SEC2        0.0000 
     21 N          29.3430    4.1010   50.2600 N.am      7 SEL2        0.0000 
     22 N          29.2370    7.1890   50.6590 N.am      4 SEP2        0.0000 
     23 NZ         32.9995    3.3310   51.1775 N.4       2 LYC4        0.0000 
     24 NZ         31.2440    3.1440   50.3610 N.4       8 LYL4        0.0000 
     25 NZ         34.7550    3.5180   51.9940 N.4       5 LYP4        0.0000 
     26 NZ         31.7575    3.5655   49.2190 N.4       2 LYC4        0.0000 
     27 NZ         33.2880    3.9050   47.2450 N.4       5 LYP4        0.0000 
     28 N          31.7575    3.5655   49.2190 N.am      1 SEC2        0.0000 
     29 N          31.2440    3.1440   50.3610 N.am      7 SEL2        0.0000 
     30 N          32.2710    3.9870   48.0770 N.am      4 SEP2        0.0000 
     31 N          32.9865    1.8030   51.1345 N.am      1 SEC2        0.0000 
     32 N          32.2790    0.5670   50.9110 N.am      7 SEL2        0.0000 
     33 N          33.6940    3.0390   51.3580 N.am      4 SEP2        0.0000 
     34 CA         26.2270    6.4450   53.2640 C.3       3 GLC5        0.0000 
     35 CA         26.6050    4.8260   52.2430 C.3       9 GLL5        0.0000 
     36 CA         26.6242    0.7412   49.6532 C.3       3 GLC5        0.0000 
     37 CA         27.9610    1.7570   51.3900 C.3       9 GLL5        0.0000 
     38 CA         25.7450    0.4160   47.9040 C.3       6 GLP5        0.0000 
     39 CA         26.5220   -0.5890   49.5183 C.3       3 GLC5        0.0000 
     40 CA         27.6410   -0.9080   51.1770 C.3       9 GLL5        0.0000 
     41 CA         30.9815   -3.4240   51.1472 C.3       3 GLC5        0.0000 
     42 CA         29.9660   -2.1000   51.5030 C.3       9 GLL5        0.0000 
     43 CA         31.7900   -4.6670   50.0740 C.3       6 GLP5        0.0000 
     44 CA         21.7815    1.9639   51.3937 C.3       3 GLC5        0.0000 
     45 CA         23.5260    2.1670   51.4330 C.3       9 GLL5        0.0000 
     46 CA         20.2240    1.1270   51.5030 C.3       6 GLP5        0.0000 
@<TRIPOS>BOND
@<TRIPOS>SUBSTRUCTURE
     1 SEC2       20 GROUP        1 X    SEC  0     ROOT SEC X 2
     2 LYC4       17 GROUP        1 X    LYC  0     **** LYC X 4
     3 GLC5        1 GROUP        1 X    GLC  0     **** GLC X 6
     4 SEP2       22 GROUP        1 Y    SEP  0     ROOT SEP Y 9
     5 LYP4       19 GROUP        1 Y    LYP  0     **** LYP Y 11
     6 GLP5        3 GROUP        1 Y    GLP  0     **** GLP Y 13
     7 SEL2       21 GROUP        1 Z    SEL  0     ROOT SEL Z 16
     8 LYL4       18 GROUP        1 Z    LYL  0     **** LYL Z 18
     9 GLL5        2 GROUP        1 Z    GLL  0     **** GLL Z 20
@<TRIPOS>SET

