#    Name: 2amv_BIN_1_ligand
#    Modification time : Mon Mar 24 19:26:38 2014

@<TRIPOS>MOLECULE
2amv_BIN_1_ligand
   47    48     1     0     0
SMALL
NO_CHARGES


@<TRIPOS>ATOM
      1 C1         28.1030    2.4370   52.8170 C.ar      1 BIN930      0.0000 
      2 C2         27.4550    3.8220   53.2110 C.ar      1 BIN930      0.0000 
      3 C3         27.6440    4.3340   54.6160 C.ar      1 BIN930      0.0000 
      4 C4         28.4830    3.5460   55.5770 C.ar      1 BIN930      0.0000 
      5 C5         29.0730    2.3630   55.2320 C.ar      1 BIN930      0.0000 
      6 C6         28.9040    1.7820   53.8950 C.ar      1 BIN930      0.0000 
      7 C7         27.9610    1.7570   51.3900 C.ar      1 BIN930      0.0000 
      8 C8         27.0460    0.3760   51.4150 C.ar      1 BIN930      0.0000 
      9 C9         29.9990    0.3290   50.5870 C.ar      1 BIN930      0.0000 
     10 C11        27.6410   -0.9080   51.1770 C.ar      1 BIN930      0.0000 
     11 C12        29.3400    1.6580   50.7470 C.ar      1 BIN930      0.0000 
     12 C13        30.0280    3.0170   50.3770 C.2       1 BIN930      0.0000 
     13 C14        31.3790    0.2200   50.1020 C.2       1 BIN930      0.0000 
     14 C15        26.9570   -2.2800   51.0880 C.3       1 BIN930      0.0000 
     15 C16        30.3800   -2.2620   52.9380 C.3       1 BIN930      0.0000 
     16 C17        29.9660   -2.1000   51.5030 C.3       1 BIN930      0.0000 
     17 C18        25.4960    0.5740   51.6760 C.2       1 BIN930      0.0000 
     18 C19        23.5260    2.1670   51.4330 C.3       1 BIN930      0.0000 
     19 C20        23.2920    2.5980   52.9070 C.3       1 BIN930      0.0000 
     20 C21        23.2690    3.2190   50.3990 C.3       1 BIN930      0.0000 
     21 N10        29.1850   -0.9100   51.0350 N.pl3     1 BIN930      0.0000 
     22 O3A        29.3430    4.1010   50.2600 O.co2     1 BIN930      0.0000 
     23 O3B        31.2440    3.1440   50.3610 O.co2     1 BIN930      0.0000 
     24 O4A        32.2790    0.5670   50.9110 O.co2     1 BIN930      0.0000 
     25 O4B        31.5460   -0.1460   48.9130 O.co2     1 BIN930      0.0000 
     26 O8A        24.7800   -0.2850   52.1400 O.2       1 BIN930      0.0000 
     27 O8         25.0850    1.8260   51.3370 O.3       1 BIN930      0.0000 
     28 CL2        26.6050    4.8260   52.2430 Cl        1 BIN930      0.0000 
     29 H          27.2195    5.1776   54.8966 H         1 BIN930      0.0000 
     30 H          28.5848    3.9585   56.5183 H         1 BIN930      0.0000 
     31 H          29.6587    1.8330   55.8954 H         1 BIN930      0.0000 
     32 H          29.3503    0.8888   53.6808 H         1 BIN930      0.0000 
     33 H          29.3938   -3.0422   51.1944 H         1 BIN930      0.0000 
     34 H          30.9060   -2.1831   50.8551 H         1 BIN930      0.0000 
     35 H          23.0152    1.2679   51.2293 H         1 BIN930      0.0000 
     36 H          27.6146   -3.0120   50.9099 H         1 BIN930      0.0000 
     37 H          26.4811   -2.5134   51.9359 H         1 BIN930      0.0000 
     38 H          26.2790   -2.3100   50.3535 H         1 BIN930      0.0000 
     39 H          30.8945   -3.1072   53.0830 H         1 BIN930      0.0000 
     40 H          30.9619   -1.5085   53.2440 H         1 BIN930      0.0000 
     41 H          29.5907   -2.2905   53.5513 H         1 BIN930      0.0000 
     42 H          23.4809    1.8526   53.5463 H         1 BIN930      0.0000 
     43 H          23.8798    3.3639   53.1678 H         1 BIN930      0.0000 
     44 H          22.3475    2.8866   53.0641 H         1 BIN930      0.0000 
     45 H          23.8550    4.0188   50.5292 H         1 BIN930      0.0000 
     46 H          23.4379    2.8794   49.4737 H         1 BIN930      0.0000 
     47 H          22.3228    3.5416   50.4246 H         1 BIN930      0.0000 
@<TRIPOS>BOND
     1    2    1 ar   
     2    6    1 ar   
     3    7    1 1    
     4    3    2 ar   
     5   28    2 1    
     6    4    3 ar   
     7   29    3 1    
     8    5    4 ar   
     9   30    4 1    
    10    6    5 ar   
    11   31    5 1    
    12   32    6 1    
    13    8    7 ar   
    14   11    7 ar   
    15   10    8 ar   
    16   17    8 1    
    17   11    9 ar   
    18   13    9 1    
    19   21    9 ar   
    20   14   10 1    
    21   21   10 ar   
    22   12   11 1    
    23   22   12 ar   
    24   23   12 ar   
    25   24   13 ar   
    26   25   13 ar   
    27   36   14 1    
    28   37   14 1    
    29   38   14 1    
    30   16   15 1    
    31   39   15 1    
    32   40   15 1    
    33   41   15 1    
    34   21   16 1    
    35   33   16 1    
    36   34   16 1    
    37   26   17 2    
    38   27   17 1    
    39   19   18 1    
    40   20   18 1    
    41   27   18 1    
    42   35   18 1    
    43   42   19 1    
    44   43   19 1    
    45   44   19 1    
    46   45   20 1    
    47   46   20 1    
    48   47   20 1    
@<TRIPOS>SUBSTRUCTURE
     1 BIN930      1 GROUP   
@<TRIPOS>SET

