#    Name: 1hnv_TBO_1_INTS_M
#    Modification time : Tue Mar 25 05:37:42 2014

@<TRIPOS>MOLECULE
1hnv_TBO_1_INTS_M
   65     0     6     0     0
SMALL
NO_CHARGES


@<TRIPOS>ATOM
      1 O         142.8805  -26.5345   71.7575 O.2       1 ALC1        0.0000 
      2 O         143.7970  -25.8260   72.3850 O.2       5 ALL1        0.0000 
      3 O         141.9640  -27.2430   71.1300 O.2       3 ALP1        0.0000 
      4 CA        142.9620  -24.4185   72.7145 C.3       2 GLC5        0.0000 
      5 CA        144.7150  -24.8490   71.8780 C.3       6 GLL5        0.0000 
      6 CA        141.2090  -23.9880   73.5510 C.3       4 GLP5        0.0000 
      7 CA        145.1060  -26.6410   70.6980 C.3       2 GLC5        0.0000 
      8 CA        145.4970  -28.4330   69.5180 C.3       4 GLP5        0.0000 
      9 CA        144.7815  -25.3380   69.0615 C.3       2 GLC5        0.0000 
     10 CA        144.5790  -23.9750   70.4470 C.3       6 GLL5        0.0000 
     11 CA        144.9840  -26.7010   67.6760 C.3       4 GLP5        0.0000 
     12 CA        146.2865  -23.3200   69.9320 C.3       2 GLC5        0.0000 
     13 CA        147.9940  -22.6650   69.4170 C.3       4 GLP5        0.0000 
     14 CA        148.6245  -26.8840   75.2485 C.3       2 GLC5        0.0000 
     15 CA        147.6000  -24.9190   74.9620 C.3       6 GLL5        0.0000 
     16 CA        149.6490  -28.8490   75.5350 C.3       4 GLP5        0.0000 
     17 CA        148.6385  -24.6900   76.5860 C.3       2 GLC5        0.0000 
     18 CA        149.6770  -24.4610   78.2100 C.3       4 GLP5        0.0000 
     19 CA        148.2055  -27.6040   76.5570 C.3       2 GLC5        0.0000 
     20 CA        146.7620  -26.3590   77.5790 C.3       6 GLL5        0.0000 
     21 CA        148.2195  -25.4100   77.8945 C.3       2 GLC5        0.0000 
     22 CA        147.3990  -27.7450   78.6685 C.3       2 GLC5        0.0000 
     23 CA        148.0360  -29.1310   79.7580 C.3       4 GLP5        0.0000 
     24 CA        145.1700  -26.8835   78.7570 C.3       2 GLC5        0.0000 
     25 CA        143.5780  -27.4080   79.9350 C.3       4 GLP5        0.0000 
     26 CA        144.1135  -27.2695   77.9500 C.3       2 GLC5        0.0000 
     27 CA        144.6490  -27.1310   75.9650 C.3       6 GLL5        0.0000 
     28 CA        150.4295  -22.3935   71.8735 C.3       2 GLC5        0.0000 
     29 CA        148.8760  -23.0930   73.0470 C.3       6 GLL5        0.0000 
     30 CA        151.9830  -21.6940   70.7000 C.3       4 GLP5        0.0000 
     31 CA        149.9625  -23.3750   74.6405 C.3       2 GLC5        0.0000 
     32 CA        151.0490  -23.6570   76.2340 C.3       4 GLP5        0.0000 
     33 CA        148.6585  -21.2890   75.0900 C.3       2 GLC5        0.0000 
     34 CA        147.7900  -22.5870   75.8780 C.3       6 GLL5        0.0000 
     35 CA        149.5270  -19.9910   74.3020 C.3       4 GLP5        0.0000 
     36 CA        149.4195  -23.1220   76.0560 C.3       2 GLC5        0.0000 
     37 CA        144.5860  -22.9440   76.1060 C.3       2 GLC5        0.0000 
     38 CA        146.5600  -22.2010   76.6830 C.3       6 GLL5        0.0000 
     39 CA        142.6120  -23.6870   75.5290 C.3       4 GLP5        0.0000 
     40 CA        146.0155  -21.3610   79.8745 C.3       2 GLC5        0.0000 
     41 CA        146.4350  -21.8280   77.9440 C.3       6 GLL5        0.0000 
     42 CA        145.5960  -20.8940   81.8050 C.3       4 GLP5        0.0000 
     43 CA        143.8070  -22.5940   76.8485 C.3       2 GLC5        0.0000 
     44 CA        145.0020  -21.5010   78.1680 C.3       6 GLL5        0.0000 
     45 CA        144.2330  -21.0205   79.4960 C.3       2 GLC5        0.0000 
     46 CA        143.4640  -20.5400   80.8240 C.3       4 GLP5        0.0000 
     47 CA        144.3840  -23.2390   79.3480 C.3       2 GLC5        0.0000 
     48 CA        143.7660  -24.9770   80.5280 C.3       4 GLP5        0.0000 
     49 CA        148.5160  -23.1325   79.2175 C.3       2 GLC5        0.0000 
     50 CA        147.6270  -21.7450   78.8640 C.3       6 GLL5        0.0000 
     51 CA        149.4050  -24.5200   79.5710 C.3       4 GLP5        0.0000 
     52 CA        146.7995  -20.6830   80.1100 C.3       2 GLC5        0.0000 
     53 CA        145.9720  -19.6210   81.3560 C.3       4 GLP5        0.0000 
     54 CA        143.7713  -24.8347   74.6208 C.3       2 GLC5        0.0000 
     55 CA        145.5010  -25.6500   73.7930 C.3       6 GLL5        0.0000 
     56 CA        148.8427  -21.5557   73.7460 C.3       2 GLC5        0.0000 
     57 CA        147.4410  -23.1480   73.3330 C.3       6 GLL5        0.0000 
     58 CA        144.3433  -24.8507   75.5178 C.3       2 GLC5        0.0000 
     59 CA        146.2920  -25.6340   74.9460 C.3       6 GLL5        0.0000 
     60 CA        143.4392  -25.3998   75.4380 C.3       2 GLC5        0.0000 
     61 CA        148.0222  -23.0232   71.1826 C.3       2 GLC5        0.0000 
     62 CA        147.0090  -24.1920   72.3660 C.3       6 GLL5        0.0000 
     63 CA        148.0872  -23.2377   77.7618 C.3       2 GLC5        0.0000 
     64 CA        148.0616  -20.4034   77.3344 C.3       2 GLC5        0.0000 
     65 CA        149.0610  -18.9270   76.5800 C.3       4 GLP5        0.0000 
@<TRIPOS>BOND
@<TRIPOS>SUBSTRUCTURE
     1 ALC1        1 GROUP        1 X    ALC  0     ROOT ALC X 1
     2 GLC5        4 GROUP        1 X    GLC  0     **** GLC X 6
     3 ALP1        3 GROUP        1 Y    ALP  0     ROOT ALP Y 8
     4 GLP5        6 GROUP        1 Y    GLP  0     **** GLP Y 13
     5 ALL1        2 GROUP        1 Z    ALL  0     ROOT ALL Z 15
     6 GLL5        5 GROUP        1 Z    GLL  0     **** GLL Z 20
@<TRIPOS>SET

