#    Name: 1hnv_TBO_1_ligand
#    Modification time : Tue Mar 25 05:37:42 2014

@<TRIPOS>MOLECULE
1hnv_TBO_1_ligand
   42    44     1     0     0
SMALL
NO_CHARGES


@<TRIPOS>ATOM
      1 N1        143.7970  -25.8260   72.3850 N.am      1 TBO559      0.0000 
      2 C1A       144.3600  -26.3150   73.6320 C.ar      1 TBO559      0.0000 
      3 C2        144.7150  -24.8490   71.8780 C.2       1 TBO559      0.0000 
      4 S2        144.5790  -23.9750   70.4470 S.2       1 TBO559      0.0000 
      5 N3        145.7650  -24.7530   72.7710 N.am      1 TBO559      0.0000 
      6 C3A       145.5010  -25.6500   73.7930 C.ar      1 TBO559      0.0000 
      7 C4        147.0090  -24.1920   72.3660 C.3       1 TBO559      0.0000 
      8 C5        147.4410  -23.1480   73.3330 C.3       1 TBO559      0.0000 
      9 N6        147.3860  -23.5170   74.7490 N.4       1 TBO559      0.0000 
     10 C7        147.6000  -24.9190   74.9620 C.3       1 TBO559      0.0000 
     11 C7A       146.2920  -25.6340   74.9460 C.ar      1 TBO559      0.0000 
     12 C8        145.8570  -26.3950   76.0670 C.ar      1 TBO559      0.0000 
     13 CL8       146.7620  -26.3590   77.5790 Cl        1 TBO559      0.0000 
     14 C9        144.6490  -27.1310   75.9650 C.ar      1 TBO559      0.0000 
     15 C10       143.8840  -27.0940   74.7290 C.ar      1 TBO559      0.0000 
     16 C11       148.8760  -23.0930   73.0470 C.3       1 TBO559      0.0000 
     17 C12       147.7900  -22.5870   75.8780 C.3       1 TBO559      0.0000 
     18 C13       146.5600  -22.2010   76.6830 C.2       1 TBO559      0.0000 
     19 C14       146.4350  -21.8280   77.9440 C.2       1 TBO559      0.0000 
     20 C15       145.0020  -21.5010   78.1680 C.3       1 TBO559      0.0000 
     21 C16       147.6270  -21.7450   78.8640 C.3       1 TBO559      0.0000 
     22 H         143.0077  -26.0969   72.0061 H         1 TBO559      0.0000 
     23 H         146.9331  -23.7350   71.3653 H         1 TBO559      0.0000 
     24 H         147.7941  -24.9641   72.3076 H         1 TBO559      0.0000 
     25 H         147.0145  -22.2266   73.1250 H         1 TBO559      0.0000 
     26 H         146.1207  -23.4950   74.9167 H         1 TBO559      0.0000 
     27 H         148.0904  -25.1010   75.9282 H         1 TBO559      0.0000 
     28 H         148.2442  -25.3432   74.1796 H         1 TBO559      0.0000 
     29 H         144.3076  -27.6841   76.7398 H         1 TBO559      0.0000 
     30 H         143.0262  -27.6183   74.6595 H         1 TBO559      0.0000 
     31 H         148.2463  -21.6929   75.4654 H         1 TBO559      0.0000 
     32 H         148.5014  -23.0901   76.5251 H         1 TBO559      0.0000 
     33 H         145.6597  -22.2637   76.0524 H         1 TBO559      0.0000 
     34 H         149.3712  -22.5594   73.7326 H         1 TBO559      0.0000 
     35 H         149.2869  -24.0045   73.0322 H         1 TBO559      0.0000 
     36 H         149.0618  -22.6732   72.1586 H         1 TBO559      0.0000 
     37 H         144.8300  -21.2110   79.1094 H         1 TBO559      0.0000 
     38 H         144.6925  -20.7601   77.5719 H         1 TBO559      0.0000 
     39 H         144.4096  -22.2869   77.9905 H         1 TBO559      0.0000 
     40 H         148.0832  -22.6295   78.9615 H         1 TBO559      0.0000 
     41 H         148.3112  -21.0978   78.5279 H         1 TBO559      0.0000 
     42 H         147.3673  -21.4464   79.7823 H         1 TBO559      0.0000 
@<TRIPOS>BOND
     1    2    1 1    
     2    3    1 am   
     3   22    1 1    
     4    6    2 ar   
     5   15    2 ar   
     6    4    3 2    
     7    5    3 am   
     8    6    5 1    
     9    7    5 1    
    10   11    6 ar   
    11    8    7 1    
    12   23    7 1    
    13   24    7 1    
    14    9    8 1    
    15   16    8 1    
    16   25    8 1    
    17   10    9 1    
    18   17    9 1    
    19   26    9 1    
    20   11   10 1    
    21   27   10 1    
    22   28   10 1    
    23   12   11 ar   
    24   13   12 1    
    25   14   12 ar   
    26   15   14 ar   
    27   29   14 1    
    28   30   15 1    
    29   34   16 1    
    30   35   16 1    
    31   36   16 1    
    32   18   17 1    
    33   31   17 1    
    34   32   17 1    
    35   19   18 2    
    36   33   18 1    
    37   20   19 1    
    38   21   19 1    
    39   37   20 1    
    40   38   20 1    
    41   39   20 1    
    42   40   21 1    
    43   41   21 1    
    44   42   21 1    
@<TRIPOS>SUBSTRUCTURE
     1 TBO559      1 GROUP   
@<TRIPOS>SET

