#    Name: 3zsq_O4N_1_INTS_M
#    Modification time : Tue Mar 25 03:55:39 2014

@<TRIPOS>MOLECULE
3zsq_O4N_1_INTS_M
   87     0     9     0     0
SMALL
NO_CHARGES


@<TRIPOS>ATOM
      1 CA        -13.1310   32.8645    6.0950 C.3       3 GLC5        0.0000 
      2 CA        -12.7850   34.8420    6.2940 C.3       9 GLL5        0.0000 
      3 CA        -13.4770   30.8870    5.8960 C.3       6 GLP5        0.0000 
      4 CA        -13.6785   33.1920    4.8870 C.3       3 GLC5        0.0000 
      5 CA        -12.8650   35.0840    4.9420 C.3       9 GLL5        0.0000 
      6 CA        -14.4920   31.3000    4.8320 C.3       6 GLP5        0.0000 
      7 CA        -10.7740   33.8295   -2.1060 C.3       3 GLC5        0.0000 
      8 CA         -9.4130   33.3640   -0.4800 C.3       9 GLL5        0.0000 
      9 CA        -12.1350   34.2950   -3.7320 C.3       6 GLP5        0.0000 
     10 CA         -7.7530   33.2520   -2.7645 C.3       3 GLC5        0.0000 
     11 CA         -9.3250   32.3810   -1.4400 C.3       9 GLL5        0.0000 
     12 CA         -6.1810   34.1230   -4.0890 C.3       6 GLP5        0.0000 
     13 CA         -7.5815   36.0865   -1.2630 C.3       3 GLC5        0.0000 
     14 CA         -6.4370   35.7430    0.3690 C.3       9 GLL5        0.0000 
     15 CA         -8.7260   36.4300   -2.8950 C.3       6 GLP5        0.0000 
     16 CA         -4.5145   35.8465   -0.3765 C.3       3 GLC5        0.0000 
     17 CA         -2.5920   35.9500   -1.1220 C.3       6 GLP5        0.0000 
     18 CA         -6.7980   31.9245    2.1915 C.3       3 GLC5        0.0000 
     19 CA         -6.3720   33.7720    1.7240 C.3       9 GLL5        0.0000 
     20 CA         -7.2240   30.0770    2.6590 C.3       6 GLP5        0.0000 
     21 CA         -8.9160   30.9550    1.8270 C.3       3 GLC5        0.0000 
     22 CA        -10.6080   31.8330    0.9950 C.3       9 GLL5        0.0000 
     23 CA         -8.5190   30.0530   -2.3910 C.3       3 GLC5        0.0000 
     24 CA         -9.8790   31.1520   -1.1970 C.3       9 GLL5        0.0000 
     25 CA         -7.1590   28.9540   -3.5850 C.3       6 GLP5        0.0000 
     26 CA         -9.2970   29.8395    1.4555 C.3       3 GLC5        0.0000 
     27 CA        -10.4860   30.8660    0.0210 C.3       9 GLL5        0.0000 
     28 CA         -8.1080   28.8130    2.8900 C.3       6 GLP5        0.0000 
     29 CA         -4.7145   34.6810   -0.8510 C.3       3 GLC5        0.0000 
     30 CA         -6.2510   34.3710    0.5040 C.3       9 GLL5        0.0000 
     31 CA         -3.1780   34.9910   -2.2060 C.3       6 GLP5        0.0000 
     32 CA        -10.3060   36.2400   -1.6255 C.3       3 GLC5        0.0000 
     33 CA        -11.8860   36.0500   -0.3560 C.3       9 GLL5        0.0000 
     34 CA        -10.5860   27.2095   -1.3480 C.3       3 GLC5        0.0000 
     35 CA        -10.4760   29.0410   -1.1770 C.3       9 GLL5        0.0000 
     36 CA        -10.6960   25.3780   -1.5190 C.3       6 GLP5        0.0000 
     37 CA         -8.6765   28.2890   -1.3285 C.3       3 GLC5        0.0000 
     38 CA         -6.8770   27.5370   -1.4800 C.3       6 GLP5        0.0000 
     39 CA         -5.2130   36.2825    8.1675 C.3       3 GLC5        0.0000 
     40 CA         -5.0400   37.8170    6.8400 C.3       9 GLL5        0.0000 
     41 CA         -5.3860   34.7480    9.4950 C.3       6 GLP5        0.0000 
     42 CA         -3.2900   38.3485    6.0475 C.3       3 GLC5        0.0000 
     43 CA         -1.5400   38.8800    5.2550 C.3       6 GLP5        0.0000 
     44 CA         -3.4455   36.4795    6.0075 C.3       3 GLC5        0.0000 
     45 CA         -1.8510   35.1420    5.1750 C.3       6 GLP5        0.0000 
     46 CA         -6.4495   31.1895    1.0650 C.3       3 GLC5        0.0000 
     47 CA         -5.6750   32.3020   -0.5290 C.3       9 GLL5        0.0000 
     48 CA         -5.9280   33.2125   -2.3090 C.3       3 GLC5        0.0000 
     49 CA         -5.7445   31.0050   -2.0555 C.3       3 GLC5        0.0000 
     50 CA         -5.8140   29.7080   -3.5820 C.3       6 GLP5        0.0000 
     51 CA         -4.5630   30.8860    0.2810 C.3       3 GLC5        0.0000 
     52 CA         -3.4510   29.4700    1.0910 C.3       6 GLP5        0.0000 
     53 CA         -4.4265   33.6465   -1.3675 C.3       3 GLC5        0.0000 
     54 O          -8.1525   35.1920    5.3655 O.2       1 ALC1        0.0000 
     55 O          -8.3840   36.3970    4.6270 O.2       7 ALL1        0.0000 
     56 O          -7.9210   33.9870    6.1040 O.2       4 ALP1        0.0000 
     57 N         -11.8800   29.5980    3.7270 N.am      2 SEC2        0.0000 
     58 N         -11.0620   30.2890    2.7380 N.am      8 SEL2        0.0000 
     59 N         -12.6980   28.9070    4.7160 N.am      5 SEP2        0.0000 
     60 N         -12.4620   29.6165    2.0765 N.am      2 SEC2        0.0000 
     61 N         -13.8620   28.9440    1.4150 N.am      5 SEP2        0.0000 
     62 N         -10.0545   29.4785    2.2725 N.am      2 SEC2        0.0000 
     63 N          -9.0470   28.6680    1.8070 N.am      5 SEP2        0.0000 
     64 N         -11.9935   31.9620    4.3115 N.am      2 SEC2        0.0000 
     65 N         -11.8040   32.4040    3.0000 N.am      8 SEL2        0.0000 
     66 N         -12.1830   31.5200    5.6230 N.am      5 SEP2        0.0000 
     67 N         -12.4350   29.2505    0.7455 N.am      2 SEC2        0.0000 
     68 N         -11.0080   29.5570    0.0760 N.am      8 SEL2        0.0000 
     69 CA         -9.3970   34.8307    7.5818 C.3       3 GLC5        0.0000 
     70 CA        -11.6750   35.2310    7.0140 C.3       9 GLL5        0.0000 
     71 CA         -7.6460   34.0950    8.4860 C.3       6 GLP5        0.0000 
     72 CA        -10.2940   34.0708    5.8943 C.3       3 GLC5        0.0000 
     73 CA        -10.6210   35.9020    6.3410 C.3       9 GLL5        0.0000 
     74 CA         -9.9140   32.1160    6.1280 C.3       6 GLP5        0.0000 
     75 CA        -11.2308   33.5881    5.9630 C.3       3 GLC5        0.0000 
     76 CA         -9.0475   34.6513   -1.9275 C.3       3 GLC5        0.0000 
     77 CA         -5.8773   37.7820    0.5045 C.3       3 GLC5        0.0000 
     78 CA         -5.1510   39.4230    0.0890 C.3       6 GLP5        0.0000 
     79 CA         -5.5328   33.2533    3.6135 C.3       3 GLC5        0.0000 
     80 CA         -6.6790   34.5590    2.8120 C.3       9 GLL5        0.0000 
     81 CA         -4.5400   32.3410    4.9590 C.3       6 GLP5        0.0000 
     82 CA        -10.6050   32.4372   -2.9418 C.3       3 GLC5        0.0000 
     83 CA        -11.6080   33.1080   -4.5650 C.3       6 GLP5        0.0000 
     84 CA        -12.2104   35.0379   -1.8546 C.3       3 GLC5        0.0000 
     85 CA         -6.1705   35.6348    6.9025 C.3       3 GLC5        0.0000 
     86 CA         -6.0880   36.8300    4.8890 C.3       9 GLL5        0.0000 
     87 CA         -6.1170   33.9570    8.3440 C.3       6 GLP5        0.0000 
@<TRIPOS>BOND
@<TRIPOS>SUBSTRUCTURE
     1 ALC1       54 GROUP        1 X    ALC  0     ROOT ALC X 1
     2 SEC2       57 GROUP        1 X    SEC  0     **** SEC X 2
     3 GLC5        1 GROUP        1 X    GLC  0     **** GLC X 6
     4 ALP1       56 GROUP        1 Y    ALP  0     ROOT ALP Y 8
     5 SEP2       59 GROUP        1 Y    SEP  0     **** SEP Y 9
     6 GLP5        3 GROUP        1 Y    GLP  0     **** GLP Y 13
     7 ALL1       55 GROUP        1 Z    ALL  0     ROOT ALL Z 15
     8 SEL2       58 GROUP        1 Z    SEL  0     **** SEL Z 16
     9 GLL5        2 GROUP        1 Z    GLL  0     **** GLL Z 20
@<TRIPOS>SET

