#    Name: 3zsq_O4N_1_ligand
#    Modification time : Tue Mar 25 03:55:39 2014

@<TRIPOS>MOLECULE
3zsq_O4N_1_ligand
   71    74     1     0     0
SMALL
NO_CHARGES


@<TRIPOS>ATOM
      1 C1        -11.6750   35.2310    7.0140 C.ar      1 O4N1215     0.0000 
      2 C2        -12.7850   34.8420    6.2940 C.ar      1 O4N1215     0.0000 
      3 C3        -10.6210   35.9020    6.3410 C.ar      1 O4N1215     0.0000 
      4 C4        -12.8650   35.0840    4.9420 C.ar      1 O4N1215     0.0000 
      5 C5         -9.4130   33.3640   -0.4800 C.ar      1 O4N1215     0.0000 
      6 C6         -6.7700   36.5390    1.4710 C.ar      1 O4N1215     0.0000 
      7 C7         -6.6790   34.5590    2.8120 C.ar      1 O4N1215     0.0000 
      8 C8         -9.3250   32.3810   -1.4400 C.ar      1 O4N1215     0.0000 
      9 C9         -6.4370   35.7430    0.3690 C.ar      1 O4N1215     0.0000 
     10 C10        -6.3720   33.7720    1.7240 C.ar      1 O4N1215     0.0000 
     11 C11       -10.7270   36.1490    4.9800 C.ar      1 O4N1215     0.0000 
     12 C12       -10.6080   31.8330    0.9950 C.ar      1 O4N1215     0.0000 
     13 C13        -6.8820   35.9370    2.7030 C.ar      1 O4N1215     0.0000 
     14 C14       -11.8620   35.7320    4.2620 C.ar      1 O4N1215     0.0000 
     15 C15       -10.0740   33.1070    0.7410 C.ar      1 O4N1215     0.0000 
     16 C16        -9.8790   31.1520   -1.1970 C.ar      1 O4N1215     0.0000 
     17 C17       -10.4860   30.8660    0.0210 C.ar      1 O4N1215     0.0000 
     18 C18        -6.2510   34.3710    0.5040 C.ar      1 O4N1215     0.0000 
     19 C19       -12.4730   37.2430   -0.5130 C.2       1 O4N1215     0.0000 
     20 C20       -11.8860   36.0500   -0.3560 C.2       1 O4N1215     0.0000 
     21 C21        -9.6200   36.8400    4.3240 C.2       1 O4N1215     0.0000 
     22 C22       -11.2720   31.4800    2.3300 C.2       1 O4N1215     0.0000 
     23 C23       -10.4760   29.0410   -1.1770 C.3       1 O4N1215     0.0000 
     24 C24        -5.0400   37.8170    6.8400 C.3       1 O4N1215     0.0000 
     25 C25        -5.6750   32.3020   -0.5290 C.3       1 O4N1215     0.0000 
     26 C26       -12.0270   35.9400    2.7360 C.3       1 O4N1215     0.0000 
     27 C27       -10.1660   34.2720    1.7290 C.3       1 O4N1215     0.0000 
     28 C28       -12.3920   34.9150    0.4800 C.3       1 O4N1215     0.0000 
     29 C29        -6.3600   37.7950    6.0330 C.3       1 O4N1215     0.0000 
     30 C30        -6.0880   36.8300    4.8890 C.3       1 O4N1215     0.0000 
     31 C31        -7.2060   36.8340    3.8980 C.3       1 O4N1215     0.0000 
     32 N32        -8.3840   36.3970    4.6270 N.am      1 O4N1215     0.0000 
     33 N33       -11.6810   34.7400    1.8270 N.4       1 O4N1215     0.0000 
     34 O34       -11.0620   30.2890    2.7380 O.co2     1 O4N1215     0.0000 
     35 O35        -9.8010   37.7530    3.5090 O.2       1 O4N1215     0.0000 
     36 O36       -11.8040   32.4040    3.0000 O.co2     1 O4N1215     0.0000 
     37 O37        -9.9260   30.0620   -2.0030 O.3       1 O4N1215     0.0000 
     38 O38       -11.0080   29.5570    0.0760 O.3       1 O4N1215     0.0000 
     39 O39        -5.9890   33.7080   -0.6660 O.3       1 O4N1215     0.0000 
     40 H         -11.5955   35.0484    8.0123 H         1 O4N1215     0.0000 
     41 H         -13.5670   34.3621    6.7781 H         1 O4N1215     0.0000 
     42 H          -9.7969   36.1950    6.8673 H         1 O4N1215     0.0000 
     43 H         -13.7125   34.7658    4.4182 H         1 O4N1215     0.0000 
     44 H          -9.0012   34.2932   -0.6377 H         1 O4N1215     0.0000 
     45 H          -6.9235   37.5385    1.3523 H         1 O4N1215     0.0000 
     46 H          -6.7650   34.1177    3.7559 H         1 O4N1215     0.0000 
     47 H          -8.8462   32.5712   -2.3319 H         1 O4N1215     0.0000 
     48 H          -6.3282   36.1856   -0.5595 H         1 O4N1215     0.0000 
     49 H          -6.2391   32.7631    1.8343 H         1 O4N1215     0.0000 
     50 H         -10.9662   35.8271   -0.8492 H         1 O4N1215     0.0000 
     51 H          -9.7048   28.2653   -0.9536 H         1 O4N1215     0.0000 
     52 H         -11.2855   28.4967   -1.7201 H         1 O4N1215     0.0000 
     53 H         -11.4004   36.8058    2.4312 H         1 O4N1215     0.0000 
     54 H         -13.0774   36.2430    2.5358 H         1 O4N1215     0.0000 
     55 H          -9.5837   35.1037    1.3808 H         1 O4N1215     0.0000 
     56 H          -9.8517   33.9585    2.7062 H         1 O4N1215     0.0000 
     57 H         -12.2995   33.9659   -0.0863 H         1 O4N1215     0.0000 
     58 H         -13.4752   35.0511    0.6753 H         1 O4N1215     0.0000 
     59 H          -6.5538   38.7675    5.6549 H         1 O4N1215     0.0000 
     60 H          -7.1395   37.4231    6.6497 H         1 O4N1215     0.0000 
     61 H          -5.9570   35.8230    5.2995 H         1 O4N1215     0.0000 
     62 H          -5.1528   37.1190    4.3975 H         1 O4N1215     0.0000 
     63 H          -7.3433   37.8483    3.5482 H         1 O4N1215     0.0000 
     64 H          -8.2214   35.7192    5.4007 H         1 O4N1215     0.0000 
     65 H         -12.2341   33.8438    2.3138 H         1 O4N1215     0.0000 
     66 H          -4.2697   38.1283    6.2836 H         1 O4N1215     0.0000 
     67 H          -5.0974   38.4283    7.6293 H         1 O4N1215     0.0000 
     68 H          -4.8024   36.9102    7.1882 H         1 O4N1215     0.0000 
     69 H          -5.4949   31.8737   -1.4145 H         1 O4N1215     0.0000 
     70 H          -4.8640   32.1561    0.0375 H         1 O4N1215     0.0000 
     71 H          -6.4243   31.7938   -0.1045 H         1 O4N1215     0.0000 
@<TRIPOS>BOND
     1    2    1 ar   
     2    3    1 ar   
     3   40    1 1    
     4    4    2 ar   
     5   41    2 1    
     6   11    3 ar   
     7   42    3 1    
     8   14    4 ar   
     9   43    4 1    
    10    8    5 ar   
    11   15    5 ar   
    12   44    5 1    
    13    9    6 ar   
    14   13    6 ar   
    15   45    6 1    
    16   10    7 ar   
    17   13    7 ar   
    18   46    7 1    
    19   16    8 ar   
    20   47    8 1    
    21   18    9 ar   
    22   48    9 1    
    23   18   10 ar   
    24   49   10 1    
    25   14   11 ar   
    26   21   11 1    
    27   15   12 ar   
    28   17   12 ar   
    29   22   12 1    
    30   31   13 1    
    31   26   14 1    
    32   27   15 1    
    33   17   16 ar   
    34   37   16 1    
    35   38   17 1    
    36   39   18 1    
    37   20   19 2    
    38   28   20 1    
    39   50   20 1    
    40   32   21 am   
    41   35   21 2    
    42   34   22 ar   
    43   36   22 ar   
    44   37   23 1    
    45   38   23 1    
    46   51   23 1    
    47   52   23 1    
    48   29   24 1    
    49   66   24 1    
    50   67   24 1    
    51   68   24 1    
    52   39   25 1    
    53   69   25 1    
    54   70   25 1    
    55   71   25 1    
    56   33   26 1    
    57   53   26 1    
    58   54   26 1    
    59   33   27 1    
    60   55   27 1    
    61   56   27 1    
    62   33   28 1    
    63   57   28 1    
    64   58   28 1    
    65   30   29 1    
    66   59   29 1    
    67   60   29 1    
    68   31   30 1    
    69   61   30 1    
    70   62   30 1    
    71   32   31 1    
    72   63   31 1    
    73   64   32 1    
    74   65   33 1    
@<TRIPOS>SUBSTRUCTURE
     1 O4N1215     1 GROUP   
@<TRIPOS>SET

