#    Name: 4ft0_HK9_1_INTS_M
#    Modification time : Mon Mar 24 20:43:00 2014

@<TRIPOS>MOLECULE
4ft0_HK9_1_INTS_M
   65     0    12     0     0
SMALL
NO_CHARGES


@<TRIPOS>ATOM
      1 N          16.7295   -0.5705    8.4870 N.am      2 SEC2        0.0000 
      2 N          16.5680   -1.8520    9.0780 N.am     10 SEL2        0.0000 
      3 N          16.8910    0.7110    7.8960 N.am      6 SEP2        0.0000 
      4 O          19.0715   -1.6075    8.7435 O.2       1 ALC1        0.0000 
      5 O          18.5380   -2.8700    8.9280 O.2       9 ALL1        0.0000 
      6 O          19.6050   -0.3450    8.5590 O.2       5 ALP1        0.0000 
      7 CA         18.4875   -6.0545    8.8110 C.3       4 GLC5        0.0000 
      8 CA         19.6540   -4.7650   10.1160 C.3      12 GLL5        0.0000 
      9 CA         17.3210   -7.3440    7.5060 C.3       8 GLP5        0.0000 
     10 CA         15.8435   -9.4485   11.5625 C.3       4 GLC5        0.0000 
     11 CA         14.7180   -8.1290   12.6730 C.3      12 GLL5        0.0000 
     12 CA         16.9690  -10.7680   10.4520 C.3       8 GLP5        0.0000 
     13 NZ          9.4295   -9.0360   14.3795 N.4       3 LYC4        0.0000 
     14 NZ         10.6540   -9.6070   14.6230 N.4      11 LYL4        0.0000 
     15 NZ          8.2050   -8.4650   14.1360 N.4       7 LYP4        0.0000 
     16 N           9.4295   -9.0360   14.3795 N.am      2 SEC2        0.0000 
     17 N          10.6540   -9.6070   14.6230 N.am     10 SEL2        0.0000 
     18 N           8.2050   -8.4650   14.1360 N.am      6 SEP2        0.0000 
     19 CA         10.2410   -7.7190   12.5990 C.3       4 GLC5        0.0000 
     20 CA         12.1610   -7.2860   13.5130 C.3      12 GLL5        0.0000 
     21 CA          8.3210   -8.1520   11.6850 C.3       8 GLP5        0.0000 
     22 CA         11.6250   -6.4360   15.3510 C.3       4 GLC5        0.0000 
     23 CA         11.0890   -5.5860   17.1890 C.3       8 GLP5        0.0000 
     24 N           9.5375   -7.6785   14.0160 N.am      2 SEC2        0.0000 
     25 N          10.8700   -6.8920   13.8960 N.am     10 SEL2        0.0000 
     26 CA          9.3090   -6.9460   12.4905 C.3       4 GLC5        0.0000 
     27 CA         10.2970   -5.7400   13.2960 C.3      12 GLL5        0.0000 
     28 CA          9.6155   -4.7920   11.7540 C.3       4 GLC5        0.0000 
     29 CA          8.9340   -3.8440   10.2120 C.3       8 GLP5        0.0000 
     30 CA         10.2030   -5.0925   15.0675 C.3       4 GLC5        0.0000 
     31 CA         10.1090   -4.4450   16.8390 C.3       8 GLP5        0.0000 
     32 CA         21.2425   -2.7530    9.9550 C.3       4 GLC5        0.0000 
     33 CA         20.7650   -3.5050    8.3400 C.3      12 GLL5        0.0000 
     34 CA         22.2910   -1.8980   11.1480 C.3       8 GLP5        0.0000 
     35 CA         19.9310   -4.9802    7.2815 C.3       4 GLC5        0.0000 
     36 CA         19.6230   -3.7110    9.1840 C.3      12 GLL5        0.0000 
     37 CA         18.8240   -5.9950    5.9800 C.3       8 GLP5        0.0000 
     38 CA         22.0938   -3.3747   10.0027 C.3       4 GLC5        0.0000 
     39 CA         21.8820   -4.3230    8.4040 C.3      12 GLL5        0.0000 
     40 CA         21.2658   -3.5397   10.6420 C.3       4 GLC5        0.0000 
     41 CA         20.8270   -5.5980   10.1560 C.3      12 GLL5        0.0000 
     42 CA         20.4633   -5.0317   12.3090 C.3       4 GLC5        0.0000 
     43 CA         20.6860   -4.8820   14.4820 C.3       8 GLP5        0.0000 
     44 CA         16.1552   -4.7298    8.1187 C.3       4 GLC5        0.0000 
     45 CA         16.6030   -4.0270   10.0300 C.3      12 GLL5        0.0000 
     46 CA         16.4090   -5.3770    6.2940 C.3       8 GLP5        0.0000 
     47 CA         16.4145   -3.1540   11.5503 C.3       4 GLC5        0.0000 
     48 CA         15.9090   -1.8290   12.6440 C.3       8 GLP5        0.0000 
     49 CA         17.0830   -6.3660    9.3813 C.3       4 GLC5        0.0000 
     50 CA         17.2370   -4.9310   10.8830 C.3      12 GLL5        0.0000 
     51 CA         15.8350   -3.8550   12.1005 C.3       4 GLC5        0.0000 
     52 CA         16.4530   -5.8450   11.6300 C.3      12 GLL5        0.0000 
     53 CA         13.9102   -4.0912    8.4220 C.3       4 GLC5        0.0000 
     54 CA         14.4550   -5.0510   10.5430 C.3      12 GLL5        0.0000 
     55 CA         12.9930   -3.5880    6.6440 C.3       8 GLP5        0.0000 
     56 CA         15.3682   -3.2117   11.4220 C.3       4 GLC5        0.0000 
     57 CA         15.2000   -4.1380    9.8570 C.3      12 GLL5        0.0000 
     58 CA         14.1441   -6.3969    9.5885 C.3       4 GLC5        0.0000 
     59 CA         13.3400   -7.5380    8.3350 C.3       8 GLP5        0.0000 
     60 CA         12.9870   -7.8720   11.2692 C.3       4 GLC5        0.0000 
     61 CA         14.2520   -6.8290   12.3080 C.3      12 GLL5        0.0000 
     62 CA         12.3590   -9.1210   10.0140 C.3       8 GLP5        0.0000 
     63 CA         13.3387   -8.8365   11.5365 C.3       4 GLC5        0.0000 
     64 CA         12.3788   -8.5233   11.8570 C.3       4 GLC5        0.0000 
     65 CA         12.6360   -8.5650   13.8870 C.3      12 GLL5        0.0000 
@<TRIPOS>BOND
@<TRIPOS>SUBSTRUCTURE
     1 ALC1        4 GROUP        1 X    ALC  0     ROOT ALC X 1
     2 SEC2        1 GROUP        1 X    SEC  0     **** SEC X 2
     3 LYC4       13 GROUP        1 X    LYC  0     **** LYC X 4
     4 GLC5        7 GROUP        1 X    GLC  0     **** GLC X 6
     5 ALP1        6 GROUP        1 Y    ALP  0     ROOT ALP Y 8
     6 SEP2        3 GROUP        1 Y    SEP  0     **** SEP Y 9
     7 LYP4       15 GROUP        1 Y    LYP  0     **** LYP Y 11
     8 GLP5        9 GROUP        1 Y    GLP  0     **** GLP Y 13
     9 ALL1        5 GROUP        1 Z    ALL  0     ROOT ALL Z 15
    10 SEL2        2 GROUP        1 Z    SEL  0     **** SEL Z 16
    11 LYL4       14 GROUP        1 Z    LYL  0     **** LYL Z 18
    12 GLL5        8 GROUP        1 Z    GLL  0     **** GLL Z 20
@<TRIPOS>SET

