#    Name: 4ft0_HK9_1_ligand
#    Modification time : Mon Mar 24 20:43:00 2014

@<TRIPOS>MOLECULE
4ft0_HK9_1_ligand
   42    45     1     0     0
SMALL
NO_CHARGES


@<TRIPOS>ATOM
      1 O4         16.5680   -1.8520    9.0780 O.2       1 HK9301      0.0000 
      2 C14        17.2080   -2.8960    9.3490 C.2       1 HK9301      0.0000 
      3 N2         18.5380   -2.8700    8.9280 N.am      1 HK9301      0.0000 
      4 C13        19.6230   -3.7110    9.1840 C.ar      1 HK9301      0.0000 
      5 C18        20.7650   -3.5050    8.3400 C.ar      1 HK9301      0.0000 
      6 C19        21.8820   -4.3230    8.4040 C.ar      1 HK9301      0.0000 
      7 C20        21.9110   -5.3800    9.3110 C.ar      1 HK9301      0.0000 
      8 C21        20.8270   -5.5980   10.1560 C.ar      1 HK9301      0.0000 
      9 C12        19.6540   -4.7650   10.1160 C.ar      1 HK9301      0.0000 
     10 N1         18.6050   -5.1890   10.9320 N.pl3     1 HK9301      0.0000 
     11 C15        16.6030   -4.0270   10.0300 C.ar      1 HK9301      0.0000 
     12 C11        17.2370   -4.9310   10.8830 C.ar      1 HK9301      0.0000 
     13 C10        16.4530   -5.8450   11.6300 C.ar      1 HK9301      0.0000 
     14 C16        15.2000   -4.1380    9.8570 C.ar      1 HK9301      0.0000 
     15 C17        14.4550   -5.0510   10.5430 C.ar      1 HK9301      0.0000 
     16 C9         15.0690   -5.9170   11.4840 C.ar      1 HK9301      0.0000 
     17 C4         14.2520   -6.8290   12.3080 C.ar      1 HK9301      0.0000 
     18 C3         12.9780   -6.4170   12.7410 C.ar      1 HK9301      0.0000 
     19 C5         14.7180   -8.1290   12.6730 C.ar      1 HK9301      0.0000 
     20 C6         13.9190   -8.9750   13.4450 C.ar      1 HK9301      0.0000 
     21 C7         12.6360   -8.5650   13.8870 C.ar      1 HK9301      0.0000 
     22 C8         11.8740   -9.5030   14.8080 C.2       1 HK9301      0.0000 
     23 O3         12.5500  -10.0790   15.6850 O.co2     1 HK9301      0.0000 
     24 O2         10.6540   -9.6070   14.6230 O.co2     1 HK9301      0.0000 
     25 C2         12.1610   -7.2860   13.5130 C.ar      1 HK9301      0.0000 
     26 O1         10.8700   -6.8920   13.8960 O.3       1 HK9301      0.0000 
     27 C1         10.2970   -5.7400   13.2960 C.3       1 HK9301      0.0000 
     28 H          18.7821   -2.0118    8.2574 H         1 HK9301      0.0000 
     29 H          20.7335   -2.7157    7.6697 H         1 HK9301      0.0000 
     30 H          22.6850   -4.1536    7.7880 H         1 HK9301      0.0000 
     31 H          22.7308   -5.9966    9.3554 H         1 HK9301      0.0000 
     32 H          20.8451   -6.3740   10.8380 H         1 HK9301      0.0000 
     33 H          18.9161   -5.8487   11.7681 H         1 HK9301      0.0000 
     34 H          16.9317   -6.4733   12.3012 H         1 HK9301      0.0000 
     35 H          14.7448   -3.4899    9.1778 H         1 HK9301      0.0000 
     36 H          13.4378   -5.1316   10.3944 H         1 HK9301      0.0000 
     37 H          12.6312   -5.4834   12.5005 H         1 HK9301      0.0000 
     38 H          15.6454   -8.4293   12.3598 H         1 HK9301      0.0000 
     39 H          14.2587   -9.9127   13.7020 H         1 HK9301      0.0000 
     40 H          10.8430   -4.9204   13.4695 H         1 HK9301      0.0000 
     41 H          10.2211   -5.8370   12.3036 H         1 HK9301      0.0000 
     42 H           9.3772   -5.5586   13.6440 H         1 HK9301      0.0000 
@<TRIPOS>BOND
     1    2    1 2    
     2    3    2 am   
     3   11    2 1    
     4    4    3 1    
     5   28    3 1    
     6    5    4 ar   
     7    9    4 ar   
     8    6    5 ar   
     9   29    5 1    
    10    7    6 ar   
    11   30    6 1    
    12    8    7 ar   
    13   31    7 1    
    14    9    8 ar   
    15   32    8 1    
    16   10    9 1    
    17   12   10 1    
    18   33   10 1    
    19   12   11 ar   
    20   14   11 ar   
    21   13   12 ar   
    22   16   13 ar   
    23   34   13 1    
    24   15   14 ar   
    25   35   14 1    
    26   16   15 ar   
    27   36   15 1    
    28   17   16 1    
    29   18   17 ar   
    30   19   17 ar   
    31   25   18 ar   
    32   37   18 1    
    33   20   19 ar   
    34   38   19 1    
    35   21   20 ar   
    36   39   20 1    
    37   22   21 1    
    38   25   21 ar   
    39   23   22 ar   
    40   24   22 ar   
    41   26   25 1    
    42   27   26 1    
    43   40   27 1    
    44   41   27 1    
    45   42   27 1    
@<TRIPOS>SUBSTRUCTURE
     1 HK9301      1 GROUP   
@<TRIPOS>SET

