#    Name: 2gdz_NAD_1_INTS_M
#    Modification time : Tue Mar 25 14:02:49 2014

@<TRIPOS>MOLECULE
2gdz_NAD_1_INTS_M
  104     0     9     0     0
SMALL
NO_CHARGES


@<TRIPOS>ATOM
      1 N          33.4010   16.9745   79.3210 N.am      2 SEC2        0.0000 
      2 N          32.0390   16.3240   79.8340 N.am      8 SEL2        0.0000 
      3 N          34.7630   17.6250   78.8080 N.am      5 SEP2        0.0000 
      4 CA         30.1955   22.4280   79.9740 C.3       3 GLC5        0.0000 
      5 CA         31.2960   21.0050   80.5060 C.3       9 GLL5        0.0000 
      6 CA         29.0950   23.8510   79.4420 C.3       6 GLP5        0.0000 
      7 O          33.2580   23.1835   78.6275 O.2       1 ALC1        0.0000 
      8 O          32.7190   21.5910   78.6250 O.2       7 ALL1        0.0000 
      9 O          33.7970   24.7760   78.6300 O.2       4 ALP1        0.0000 
     10 O          32.2620   22.7980   78.3375 O.2       1 ALC1        0.0000 
     11 O          31.8050   24.0050   78.0500 O.2       4 ALP1        0.0000 
     12 O          34.1095   23.8650   79.5005 O.2       1 ALC1        0.0000 
     13 O          34.4220   22.9540   80.3710 O.2       7 ALL1        0.0000 
     14 CA         30.6125   23.4250   80.3910 C.3       3 GLC5        0.0000 
     15 CA         32.1300   22.9990   81.3400 C.3       9 GLL5        0.0000 
     16 CA         30.3920   23.7700   82.3550 C.3       3 GLC5        0.0000 
     17 CA         28.6540   24.5410   83.3700 C.3       6 GLP5        0.0000 
     18 CA         33.8025   27.4445   83.1170 C.3       3 GLC5        0.0000 
     19 CA         32.4270   26.6520   84.5040 C.3       9 GLL5        0.0000 
     20 CA         35.1780   28.2370   81.7300 C.3       6 GLP5        0.0000 
     21 CA         32.8575   28.8175   84.1820 C.3       3 GLC5        0.0000 
     22 CA         33.2880   30.9830   83.8600 C.3       6 GLP5        0.0000 
     23 CA         30.8395   27.3700   85.0785 C.3       3 GLC5        0.0000 
     24 CA         29.2520   28.0880   85.6530 C.3       6 GLP5        0.0000 
     25 O          33.1040   28.4015   86.0955 O.2       1 ALC1        0.0000 
     26 O          32.7350   26.9780   85.7620 O.2       7 ALL1        0.0000 
     27 O          33.4730   29.8250   86.4290 O.2       4 ALP1        0.0000 
     28 N          31.5845   28.9295   84.0950 N.am      2 SEC2        0.0000 
     29 N          32.0770   27.6200   83.5900 N.am      8 SEL2        0.0000 
     30 N          31.0920   30.2390   84.6000 N.am      5 SEP2        0.0000 
     31 CA         31.8430   27.3430   80.2780 C.3       3 GLC5        0.0000 
     32 CA         31.7740   27.3360   82.2640 C.3       9 GLL5        0.0000 
     33 CA         31.9120   27.3500   78.2920 C.3       6 GLP5        0.0000 
     34 CA         33.4760   27.7865   81.9970 C.3       3 GLC5        0.0000 
     35 CA         32.5310   29.1595   83.0620 C.3       3 GLC5        0.0000 
     36 CA         30.1815   28.2000   82.8130 C.3       3 GLC5        0.0000 
     37 CA         28.5890   29.0640   83.3620 C.3       6 GLP5        0.0000 
     38 CA         30.2140   25.9385   82.8170 C.3       3 GLC5        0.0000 
     39 N          32.8250   26.8055   80.8230 N.am      2 SEC2        0.0000 
     40 N          31.8510   26.0320   81.8510 N.am      8 SEL2        0.0000 
     41 N          33.7990   27.5790   79.7950 N.am      5 SEP2        0.0000 
     42 N          28.1660   16.4510   78.9110 N.am      2 SEC2        0.0000 
     43 N          28.7700   16.5510   80.1520 N.am      8 SEL2        0.0000 
     44 N          27.5620   16.3510   77.6700 N.am      5 SEP2        0.0000 
     45 N          29.8000   13.9985   81.6745 N.am      2 SEC2        0.0000 
     46 N          28.9420   14.9120   82.0160 N.am      8 SEL2        0.0000 
     47 N          30.6580   13.0850   81.3330 N.am      5 SEP2        0.0000 
     48 CA         26.3555   17.2280   80.5395 C.3       3 GLC5        0.0000 
     49 CA         27.3350   18.2110   82.1960 C.3       9 GLL5        0.0000 
     50 CA         25.3760   16.2450   78.8830 C.3       6 GLP5        0.0000 
     51 CA         24.3185   18.8645   83.7880 C.3       3 GLC5        0.0000 
     52 CA         26.2630   18.1090   83.3260 C.3       9 GLL5        0.0000 
     53 CA         22.3740   19.6200   84.2500 C.3       6 GLP5        0.0000 
     54 CA         28.0045   19.7600   85.4635 C.3       3 GLC5        0.0000 
     55 CA         26.8860   18.4080   84.7060 C.3       9 GLL5        0.0000 
     56 CA         29.1230   21.1120   86.2210 C.3       6 GLP5        0.0000 
     57 N          25.4935   19.0360   86.7670 N.am      2 SEC2        0.0000 
     58 N          26.0700   19.3060   85.4390 N.am      8 SEL2        0.0000 
     59 N          24.9170   18.7660   88.0950 N.am      5 SEP2        0.0000 
     60 CA         26.0030   17.3870   87.2840 C.3       3 GLC5        0.0000 
     61 CA         26.8940   17.0250   85.3590 C.3       9 GLL5        0.0000 
     62 CA         25.1120   17.7490   89.2090 C.3       6 GLP5        0.0000 
     63 N          25.9160   17.9385   87.4385 N.am      2 SEC2        0.0000 
     64 N          26.9150   17.1110   86.7820 N.am      8 SEL2        0.0000 
     65 O          26.9195   16.0080   87.5125 O.2       1 ALC1        0.0000 
     66 O          26.9150   17.1110   86.7820 O.2       7 ALL1        0.0000 
     67 O          26.9240   14.9050   88.2430 O.2       4 ALP1        0.0000 
     68 CA         25.3510   15.4695   82.7820 C.3       3 GLC5        0.0000 
     69 CA         25.6040   16.4370   84.7880 C.3       9 GLL5        0.0000 
     70 CA         25.0980   14.5020   80.7760 C.3       6 GLP5        0.0000 
     71 CA         23.7880   16.6375   83.8175 C.3       3 GLC5        0.0000 
     72 CA         21.9720   16.8380   82.8470 C.3       6 GLP5        0.0000 
     73 N          26.9065    9.6400   83.3165 N.am      2 SEC2        0.0000 
     74 N          27.3770   10.5790   84.2130 N.am      8 SEL2        0.0000 
     75 N          26.4360    8.7010   82.4200 N.am      5 SEP2        0.0000 
     76 O          28.5770   10.9870   82.1705 O.2       1 ALC1        0.0000 
     77 O          28.2360   12.3510   82.9380 O.2       7 ALL1        0.0000 
     78 O          28.9180    9.6230   81.4030 O.2       4 ALP1        0.0000 
     79 CA         23.3055   11.9310   84.2705 C.3       3 GLC5        0.0000 
     80 CA         25.2190   12.1840   85.1320 C.3       9 GLL5        0.0000 
     81 CA         21.3920   11.6780   83.4090 C.3       6 GLP5        0.0000 
     82 CA         23.1800   15.6390   84.2060 C.3       3 GLC5        0.0000 
     83 CA         24.3880   14.4400   85.5650 C.3       9 GLL5        0.0000 
     84 CA         32.5945   19.9125   78.7775 C.3       3 GLC5        0.0000 
     85 CA         33.1720   18.7540   77.3180 C.3       6 GLP5        0.0000 
     86 CA         34.0240   24.1142   81.4903 C.3       3 GLC5        0.0000 
     87 CA         33.3660   22.1620   80.9130 C.3       9 GLL5        0.0000 
     88 CA         35.3000   25.6480   81.8540 C.3       6 GLP5        0.0000 
     89 CA         31.5020   25.3330   86.0033 C.3       3 GLC5        0.0000 
     90 CA         32.4850   25.3240   84.0990 C.3       9 GLL5        0.0000 
     91 CA         30.5480   24.6780   87.7050 C.3       6 GLP5        0.0000 
     92 CA         30.4870   25.0275   83.4514 C.3       3 GLC5        0.0000 
     93 CA         28.7190   17.1803   85.2343 C.3       3 GLC5        0.0000 
     94 CA         30.5480   16.6440   85.4360 C.3       6 GLP5        0.0000 
     95 CA         25.7320   13.9742   82.5900 C.3       3 GLC5        0.0000 
     96 CA         26.4220   14.1390   84.3380 C.3       9 GLL5        0.0000 
     97 CA         25.0918   11.5115   83.0690 C.3       3 GLC5        0.0000 
     98 CA         26.3100   12.7540   84.4700 C.3       9 GLL5        0.0000 
     99 CA         24.4190   10.5540   81.3370 C.3       6 GLP5        0.0000 
    100 CA         23.6638   13.7727   87.3012 C.3       3 GLC5        0.0000 
    101 CA         24.2610   13.0530   85.6980 C.3       9 GLL5        0.0000 
    102 CA         23.0030   13.7990   88.9710 C.3       6 GLP5        0.0000 
    103 CA         22.4992   13.6988   85.1658 C.3       3 GLC5        0.0000 
    104 CA         20.6740   13.6510   84.7000 C.3       6 GLP5        0.0000 
@<TRIPOS>BOND
@<TRIPOS>SUBSTRUCTURE
     1 ALC1        7 GROUP        1 X    ALC  0     ROOT ALC X 1
     2 SEC2        1 GROUP        1 X    SEC  0     **** SEC X 2
     3 GLC5        4 GROUP        1 X    GLC  0     **** GLC X 6
     4 ALP1        9 GROUP        1 Y    ALP  0     ROOT ALP Y 8
     5 SEP2        3 GROUP        1 Y    SEP  0     **** SEP Y 9
     6 GLP5        6 GROUP        1 Y    GLP  0     **** GLP Y 13
     7 ALL1        8 GROUP        1 Z    ALL  0     ROOT ALL Z 15
     8 SEL2        2 GROUP        1 Z    SEL  0     **** SEL Z 16
     9 GLL5        5 GROUP        1 Z    GLL  0     **** GLL Z 20
@<TRIPOS>SET

