#    Name: 2gdz_NAD_1_ligand
#    Modification time : Tue Mar 25 14:02:49 2014

@<TRIPOS>MOLECULE
2gdz_NAD_1_ligand
   70    74     1     0     0
SMALL
NO_CHARGES


@<TRIPOS>ATOM
      1 PA         31.8000   17.2480   80.9670 P.3       1 NAD300      0.0000 
      2 O1A        32.9820   17.3770   81.8820 O.co2     1 NAD300      0.0000 
      3 O2A        32.0390   16.3240   79.8340 O.co2     1 NAD300      0.0000 
      4 O5B        31.2120   18.6250   80.4110 O.3       1 NAD300      0.0000 
      5 C5B        31.0550   19.7110   81.2970 C.3       1 NAD300      0.0000 
      6 C4B        31.2960   21.0050   80.5060 C.3       1 NAD300      0.0000 
      7 O4B        31.0650   22.0800   81.4250 O.3       1 NAD300      0.0000 
      8 C3B        32.7380   21.1370   79.9680 C.3       1 NAD300      0.0000 
      9 O3B        32.7190   21.5910   78.6250 O.3       1 NAD300      0.0000 
     10 C2B        33.3660   22.1620   80.9130 C.3       1 NAD300      0.0000 
     11 O2B        34.4220   22.9540   80.3710 O.3       1 NAD300      0.0000 
     12 C1B        32.1300   22.9990   81.3400 C.3       1 NAD300      0.0000 
     13 N9A        32.3420   23.7080   82.6180 N.pl3     1 NAD300      0.0000 
     14 C8A        32.7100   23.1600   83.8300 C.2       1 NAD300      0.0000 
     15 N7A        32.8260   24.1670   84.7270 N.2       1 NAD300      0.0000 
     16 C5A        32.4850   25.3240   84.0990 C.ar      1 NAD300      0.0000 
     17 C6A        32.4270   26.6520   84.5040 C.ar      1 NAD300      0.0000 
     18 N6A        32.7350   26.9780   85.7620 N.pl3     1 NAD300      0.0000 
     19 N1A        32.0770   27.6200   83.5900 N.ar      1 NAD300      0.0000 
     20 C2A        31.7740   27.3360   82.2640 C.ar      1 NAD300      0.0000 
     21 N3A        31.8510   26.0320   81.8510 N.ar      1 NAD300      0.0000 
     22 C4A        32.1840   25.0400   82.7640 C.ar      1 NAD300      0.0000 
     23 O3         30.6580   16.6340   81.9100 O.3       1 NAD300      0.0000 
     24 PN         29.1460   16.2940   81.5530 P.3       1 NAD300      0.0000 
     25 O1N        28.7700   16.5510   80.1520 O.co2     1 NAD300      0.0000 
     26 O2N        28.9420   14.9120   82.0160 O.co2     1 NAD300      0.0000 
     27 O5D        28.4160   17.3330   82.5620 O.3       1 NAD300      0.0000 
     28 C5D        27.3350   18.2110   82.1960 C.3       1 NAD300      0.0000 
     29 C4D        26.2630   18.1090   83.3260 C.3       1 NAD300      0.0000 
     30 O4D        25.6690   16.7660   83.4130 O.3       1 NAD300      0.0000 
     31 C3D        26.8860   18.4080   84.7060 C.3       1 NAD300      0.0000 
     32 O3D        26.0700   19.3060   85.4390 O.3       1 NAD300      0.0000 
     33 C2D        26.8940   17.0250   85.3590 C.3       1 NAD300      0.0000 
     34 O2D        26.9150   17.1110   86.7820 O.3       1 NAD300      0.0000 
     35 C1D        25.6040   16.4370   84.7880 C.3       1 NAD300      0.0000 
     36 N1N        25.4880   14.9580   84.9350 N.pl3     1 NAD300      0.0000 
     37 C2N        26.4220   14.1390   84.3380 C.ar      1 NAD300      0.0000 
     38 C3N        26.3100   12.7540   84.4700 C.ar      1 NAD300      0.0000 
     39 C7N        27.3680   11.8790   83.8430 C.2       1 NAD300      0.0000 
     40 O7N        27.3770   10.5790   84.2130 O.2       1 NAD300      0.0000 
     41 N7N        28.2360   12.3510   82.9380 N.am      1 NAD300      0.0000 
     42 C4N        25.2190   12.1840   85.1320 C.ar      1 NAD300      0.0000 
     43 C5N        24.2610   13.0530   85.6980 C.ar      1 NAD300      0.0000 
     44 C6N        24.3880   14.4400   85.5650 C.ar      1 NAD300      0.0000 
     45 H          31.7746   19.6896   82.1159 H         1 NAD300      0.0000 
     46 H          30.0500   19.7664   81.7161 H         1 NAD300      0.0000 
     47 H          30.6105   21.0480   79.6915 H         1 NAD300      0.0000 
     48 H          33.2192   20.2069   80.1120 H         1 NAD300      0.0000 
     49 H          33.6610   21.6129   81.8120 H         1 NAD300      0.0000 
     50 H          31.9538   23.7111   80.5398 H         1 NAD300      0.0000 
     51 H          32.8542   22.2285   83.9921 H         1 NAD300      0.0000 
     52 H          33.0527   26.2303   86.3451 H         1 NAD300      0.0000 
     53 H          32.6203   27.9405   86.0078 H         1 NAD300      0.0000 
     54 H          31.5036   28.0815   81.6252 H         1 NAD300      0.0000 
     55 H          26.8599   17.9133   81.2727 H         1 NAD300      0.0000 
     56 H          27.6469   19.2436   82.1394 H         1 NAD300      0.0000 
     57 H          25.4999   18.8448   83.1449 H         1 NAD300      0.0000 
     58 H          27.8754   18.7174   84.5599 H         1 NAD300      0.0000 
     59 H          27.7105   16.4845   84.9362 H         1 NAD300      0.0000 
     60 H          24.7773   16.9335   85.2521 H         1 NAD300      0.0000 
     61 H          27.1988   14.5377   83.7975 H         1 NAD300      0.0000 
     62 H          28.1734   13.3284   82.7362 H         1 NAD300      0.0000 
     63 H          28.8688   11.6836   82.5453 H         1 NAD300      0.0000 
     64 H          25.1133   11.1833   85.2067 H         1 NAD300      0.0000 
     65 H          23.4636   12.6570   86.2123 H         1 NAD300      0.0000 
     66 H          23.6553   15.0528   85.9412 H         1 NAD300      0.0000 
     67 H          32.3544   22.5210   78.6715 H         1 NAD300      0.0000 
     68 H          33.9784   23.5593   79.7101 H         1 NAD300      0.0000 
     69 H          25.1319   19.0649   85.1904 H         1 NAD300      0.0000 
     70 H          26.9188   16.1624   87.0985 H         1 NAD300      0.0000 
@<TRIPOS>BOND
     1    2    1 ar   
     2    3    1 ar   
     3    4    1 1    
     4   23    1 1    
     5    5    4 1    
     6    6    5 1    
     7   45    5 1    
     8   46    5 1    
     9    7    6 1    
    10    8    6 1    
    11   47    6 1    
    12   12    7 1    
    13    9    8 1    
    14   10    8 1    
    15   48    8 1    
    16   67    9 1    
    17   11   10 1    
    18   12   10 1    
    19   49   10 1    
    20   68   11 1    
    21   13   12 1    
    22   50   12 1    
    23   14   13 1    
    24   22   13 1    
    25   15   14 2    
    26   51   14 1    
    27   16   15 1    
    28   17   16 ar   
    29   22   16 ar   
    30   18   17 1    
    31   19   17 ar   
    32   52   18 1    
    33   53   18 1    
    34   20   19 ar   
    35   21   20 ar   
    36   54   20 1    
    37   22   21 ar   
    38   24   23 1    
    39   25   24 ar   
    40   26   24 ar   
    41   27   24 1    
    42   28   27 1    
    43   29   28 1    
    44   55   28 1    
    45   56   28 1    
    46   30   29 1    
    47   31   29 1    
    48   57   29 1    
    49   35   30 1    
    50   32   31 1    
    51   33   31 1    
    52   58   31 1    
    53   69   32 1    
    54   34   33 1    
    55   35   33 1    
    56   59   33 1    
    57   70   34 1    
    58   36   35 1    
    59   60   35 1    
    60   37   36 ar   
    61   44   36 ar   
    62   38   37 ar   
    63   61   37 1    
    64   39   38 1    
    65   42   38 ar   
    66   40   39 2    
    67   41   39 am   
    68   62   41 1    
    69   63   41 1    
    70   43   42 ar   
    71   64   42 1    
    72   44   43 ar   
    73   65   43 1    
    74   66   44 1    
@<TRIPOS>SUBSTRUCTURE
     1 NAD300      1 GROUP   
@<TRIPOS>SET

