#    Name: 4asd_BAX_1_INTS_M
#    Modification time : Tue Mar 25 06:04:57 2014

@<TRIPOS>MOLECULE
4asd_BAX_1_INTS_M
  103     0     9     0     0
SMALL
NO_CHARGES


@<TRIPOS>ATOM
      1 CA        -27.4265    0.0405   -8.5755 C.3       3 GLC5        0.0000 
      2 CA        -28.0550   -1.7890   -7.5940 C.3       9 GLL5        0.0000 
      3 CA        -26.7980    1.8700   -9.5570 C.3       6 GLP5        0.0000 
      4 CA        -26.1555   -0.9290   -7.3150 C.3       3 GLC5        0.0000 
      5 CA        -24.2560   -0.0690   -7.0360 C.3       6 GLP5        0.0000 
      6 CA        -31.5565   -4.3790   -6.8320 C.3       3 GLC5        0.0000 
      7 CA        -29.4670   -4.0490   -6.7420 C.3       9 GLL5        0.0000 
      8 CA        -33.6460   -4.7090   -6.9220 C.3       6 GLP5        0.0000 
      9 CA        -24.0145    0.5500  -15.7720 C.3       3 GLC5        0.0000 
     10 CA        -24.3430   -0.8720  -14.2610 C.3       9 GLL5        0.0000 
     11 CA        -23.6860    1.9720  -17.2830 C.3       6 GLP5        0.0000 
     12 CA        -22.3840   -0.7625  -10.3660 C.3       3 GLC5        0.0000 
     13 CA        -22.9590   -1.2340  -12.2870 C.3       9 GLL5        0.0000 
     14 CA        -21.8090   -0.2910   -8.4450 C.3       6 GLP5        0.0000 
     15 CA        -23.8150   -0.7165   -9.9895 C.3       3 GLC5        0.0000 
     16 CA        -24.0840   -1.7010  -11.6170 C.3       9 GLL5        0.0000 
     17 CA        -23.5460    0.2680   -8.3620 C.3       6 GLP5        0.0000 
     18 CA        -24.5570    1.9575  -14.2310 C.3       3 GLC5        0.0000 
     19 CA        -22.5430    2.0480  -13.9900 C.3       9 GLL5        0.0000 
     20 CA        -26.5710    1.8670  -14.4720 C.3       6 GLP5        0.0000 
     21 CA        -22.4925    4.8390  -15.2065 C.3       3 GLC5        0.0000 
     22 CA        -21.9920    3.3280  -14.1160 C.3       9 GLL5        0.0000 
     23 CA        -22.9930    6.3500  -16.2970 C.3       6 GLP5        0.0000 
     24 CA        -21.2965    4.9065  -13.1740 C.3       3 GLC5        0.0000 
     25 CA        -20.6010    6.4850  -12.2320 C.3       6 GLP5        0.0000 
     26 O         -18.1790    5.2375  -14.7025 O.2       1 ALC1        0.0000 
     27 O         -18.0330    3.9880  -15.4040 O.2       7 ALL1        0.0000 
     28 O         -18.3250    6.4870  -14.0010 O.2       4 ALP1        0.0000 
     29 CA        -17.0970    2.9795  -17.6775 C.3       3 GLC5        0.0000 
     30 CA        -16.6770    4.2420  -15.8730 C.3       9 GLL5        0.0000 
     31 CA        -17.5170    1.7170  -19.4820 C.3       6 GLP5        0.0000 
     32 CA        -17.9030    4.7995  -17.1465 C.3       3 GLC5        0.0000 
     33 CA        -19.1290    5.3570  -18.4200 C.3       6 GLP5        0.0000 
     34 CA        -16.2255    4.1915  -14.0770 C.3       3 GLC5        0.0000 
     35 CA        -15.7740    4.1410  -12.2810 C.3       6 GLP5        0.0000 
     36 CA        -26.3565   -1.7475   -3.2415 C.3       3 GLC5        0.0000 
     37 CA        -27.4630   -1.0490   -4.3100 C.3       9 GLL5        0.0000 
     38 CA        -25.2500   -2.4460   -2.1730 C.3       6 GLP5        0.0000 
     39 CA        -30.3390   -0.4685   -6.8040 C.3       3 GLC5        0.0000 
     40 CA        -29.3580   -0.1020   -4.8300 C.3       9 GLL5        0.0000 
     41 CA        -31.3200   -0.8350   -8.7780 C.3       6 GLP5        0.0000 
     42 CA        -31.2915   -0.6645   -4.7150 C.3       3 GLC5        0.0000 
     43 CA        -33.2250   -1.2270   -4.6000 C.3       6 GLP5        0.0000 
     44 CA        -30.1210    0.2760   -3.4195 C.3       3 GLC5        0.0000 
     45 CA        -30.8840    0.6540   -2.0090 C.3       6 GLP5        0.0000 
     46 CA        -28.2575    2.4005   -5.4095 C.3       3 GLC5        0.0000 
     47 CA        -27.5590    0.3410   -5.9330 C.3       9 GLL5        0.0000 
     48 CA        -28.9560    4.4600   -4.8860 C.3       6 GLP5        0.0000 
     49 CA        -27.1785    1.1055   -7.7450 C.3       3 GLC5        0.0000 
     50 CA        -31.5330   -2.1650   -4.4275 C.3       3 GLC5        0.0000 
     51 CA        -29.8410   -3.1030   -4.2550 C.3       9 GLL5        0.0000 
     52 CA        -30.3625   -1.2245   -3.1320 C.3       3 GLC5        0.0000 
     53 O         -28.2595   -3.7790  -10.5755 O.2       1 ALC1        0.0000 
     54 O         -27.8280   -2.8300   -9.8150 O.2       7 ALL1        0.0000 
     55 O         -28.6910   -4.7280  -11.3360 O.2       4 ALP1        0.0000 
     56 O         -27.5985   -3.4755  -11.4735 O.2       1 ALC1        0.0000 
     57 O         -26.5060   -2.2230  -11.6110 O.2       7 ALL1        0.0000 
     58 N         -25.2290   -1.8970   -8.5345 N.am      2 SEC2        0.0000 
     59 N         -26.0690   -1.3750   -9.5210 N.am      8 SEL2        0.0000 
     60 N         -24.3890   -2.4190   -7.5480 N.am      5 SEP2        0.0000 
     61 N         -20.9975    5.0870  -14.5805 N.am      2 SEC2        0.0000 
     62 N         -20.7260    3.5610  -14.5500 N.am      8 SEL2        0.0000 
     63 N         -21.2690    6.6130  -14.6110 N.am      5 SEP2        0.0000 
     64 CA        -29.7450   -1.5775   -8.4095 C.3       3 GLC5        0.0000 
     65 CA        -29.7275   -4.5345   -9.5755 C.3       3 GLC5        0.0000 
     66 CA        -28.2850   -2.8510   -8.4880 C.3       9 GLL5        0.0000 
     67 CA        -30.8170   -5.6550  -10.8790 C.3       6 GLP5        0.0000 
     68 CA        -30.2745   -2.4240   -8.0885 C.3       3 GLC5        0.0000 
     69 CA        -28.9910   -3.9770   -8.0560 C.3       9 GLL5        0.0000 
     70 CA        -27.1650   -4.3100   -7.0505 C.3       3 GLC5        0.0000 
     71 CA        -25.1010   -4.6070   -6.7020 C.3       6 GLP5        0.0000 
     72 CA        -25.9870    0.1588  -13.6940 C.3       3 GLC5        0.0000 
     73 CA        -25.3410   -1.7590  -12.2560 C.3       9 GLL5        0.0000 
     74 CA        -23.8220   -2.3435  -14.9703 C.3       3 GLC5        0.0000 
     75 CA        -25.4650   -1.3400  -13.5760 C.3       9 GLL5        0.0000 
     76 CA        -22.7400   -3.5810  -16.0220 C.3       6 GLP5        0.0000 
     77 CA        -25.1493    0.5100  -14.2022 C.3       3 GLC5        0.0000 
     78 CA        -22.8877   -2.3045  -14.4837 C.3       3 GLC5        0.0000 
     79 CA        -23.1120   -0.8220  -13.6040 C.3       9 GLL5        0.0000 
     80 CA        -22.8283   -3.2997  -11.2180 C.3       3 GLC5        0.0000 
     81 CA        -22.1350   -5.1320  -10.4840 C.3       6 GLP5        0.0000 
     82 CA        -25.2153   -3.4316  -12.7103 C.3       3 GLC5        0.0000 
     83 CA        -25.6870   -5.2380  -13.1540 C.3       6 GLP5        0.0000 
     84 CA        -20.0463    1.6747  -16.7883 C.3       3 GLC5        0.0000 
     85 CA        -19.9370    2.4950  -14.8610 C.3       9 GLL5        0.0000 
     86 CA        -19.9250    1.5100  -18.7570 C.3       6 GLP5        0.0000 
     87 CA        -19.7387    2.0812  -12.8178 C.3       3 GLC5        0.0000 
     88 CA        -20.3980    1.1840  -14.7780 C.3       9 GLL5        0.0000 
     89 CA        -19.3100    2.3230  -10.8160 C.3       6 GLP5        0.0000 
     90 CA        -21.6270   -0.2105  -15.9633 C.3       3 GLC5        0.0000 
     91 CA        -22.2020   -1.4990  -17.3700 C.3       6 GLP5        0.0000 
     92 CA        -30.0988   -1.6208   -7.4242 C.3       3 GLC5        0.0000 
     93 CA        -28.5180   -1.8380   -6.2740 C.3       9 GLL5        0.0000 
     94 CA        -26.7225   -3.3430   -6.9297 C.3       3 GLC5        0.0000 
     95 CA        -28.1848   -0.2787   -3.0242 C.3       3 GLC5        0.0000 
     96 CA        -28.2400   -0.6760   -5.3510 C.3       9 GLL5        0.0000 
     97 CA        -28.5180    0.3050   -1.2180 C.3       6 GLP5        0.0000 
     98 CA        -26.3186    0.2716   -4.1819 C.3       3 GLC5        0.0000 
     99 CA        -24.9320    0.8040   -2.9820 C.3       6 GLP5        0.0000 
    100 CA        -25.9806   -0.1649   -6.2089 C.3       3 GLC5        0.0000 
    101 CA        -21.8784    2.3140  -12.4140 C.3       3 GLC5        0.0000 
    102 CA        -21.7700    2.7980  -10.6340 C.3       6 GLP5        0.0000 
    103 CA        -22.3816    1.9034  -15.8949 C.3       3 GLC5        0.0000 
@<TRIPOS>BOND
@<TRIPOS>SUBSTRUCTURE
     1 ALC1       26 GROUP        1 X    ALC  0     ROOT ALC X 1
     2 SEC2       58 GROUP        1 X    SEC  0     **** SEC X 2
     3 GLC5        1 GROUP        1 X    GLC  0     **** GLC X 6
     4 ALP1       28 GROUP        1 Y    ALP  0     ROOT ALP Y 8
     5 SEP2       60 GROUP        1 Y    SEP  0     **** SEP Y 9
     6 GLP5        3 GROUP        1 Y    GLP  0     **** GLP Y 13
     7 ALL1       27 GROUP        1 Z    ALL  0     ROOT ALL Z 15
     8 SEL2       59 GROUP        1 Z    SEL  0     **** SEL Z 16
     9 GLL5        2 GROUP        1 Z    GLL  0     **** GLL Z 20
@<TRIPOS>SET

