#    Name: 4asd_BAX_1_ligand
#    Modification time : Tue Mar 25 06:04:57 2014

@<TRIPOS>MOLECULE
4asd_BAX_1_ligand
   48    50     1     0     0
SMALL
NO_CHARGES


@<TRIPOS>ATOM
      1 C1        -28.0550   -1.7890   -7.5940 C.ar      1 BAX1500     0.0000 
      2 C2        -28.2850   -2.8510   -8.4880 C.ar      1 BAX1500     0.0000 
      3 C3        -28.9910   -3.9770   -8.0560 C.ar      1 BAX1500     0.0000 
      4 C4        -29.4670   -4.0490   -6.7420 C.ar      1 BAX1500     0.0000 
      5 C13       -26.7470   -2.0750  -10.2510 C.2       1 BAX1500     0.0000 
      6 C16       -25.3410   -1.7590  -12.2560 C.ar      1 BAX1500     0.0000 
      7 C17       -25.4650   -1.3400  -13.5760 C.ar      1 BAX1500     0.0000 
      8 C18       -24.3430   -0.8720  -14.2610 C.ar      1 BAX1500     0.0000 
      9 C19       -23.1120   -0.8220  -13.6040 C.ar      1 BAX1500     0.0000 
     10 C20       -22.9590   -1.2340  -12.2870 C.ar      1 BAX1500     0.0000 
     11 C21       -24.0840   -1.7010  -11.6170 C.ar      1 BAX1500     0.0000 
     12 O22       -22.0130   -0.3720  -14.2990 O.3       1 BAX1500     0.0000 
     13 C24       -22.5430    2.0480  -13.9900 C.ar      1 BAX1500     0.0000 
     14 C25       -21.9920    3.3280  -14.1160 C.ar      1 BAX1500     0.0000 
     15 C27       -19.9370    2.4950  -14.8610 C.ar      1 BAX1500     0.0000 
     16 C28       -20.3980    1.1840  -14.7780 C.ar      1 BAX1500     0.0000 
     17 N30       -18.0330    3.9880  -15.4040 N.am      1 BAX1500     0.0000 
     18 C31       -16.6770    4.2420  -15.8730 C.3       1 BAX1500     0.0000 
     19 C5        -29.2370   -2.9750   -5.8670 C.ar      1 BAX1500     0.0000 
     20 C6        -28.5180   -1.8380   -6.2740 C.ar      1 BAX1500     0.0000 
     21 C7        -28.2400   -0.6760   -5.3510 C.3       1 BAX1500     0.0000 
     22 F8        -27.4630   -1.0490   -4.3100 F         1 BAX1500     0.0000 
     23 F9        -29.3580   -0.1020   -4.8300 F         1 BAX1500     0.0000 
     24 F10       -27.5590    0.3410   -5.9330 F         1 BAX1500     0.0000 
     25 CL11      -29.8410   -3.1030   -4.2550 Cl        1 BAX1500     0.0000 
     26 N12       -27.8280   -2.8300   -9.8150 N.am      1 BAX1500     0.0000 
     27 N14       -26.5060   -2.2230  -11.6110 N.am      1 BAX1500     0.0000 
     28 O15       -26.0690   -1.3750   -9.5210 O.2       1 BAX1500     0.0000 
     29 C23       -21.7060    0.9720  -14.3350 C.ar      1 BAX1500     0.0000 
     30 N26       -20.7260    3.5610  -14.5500 N.ar      1 BAX1500     0.0000 
     31 C29       -18.5340    2.7020  -15.3410 C.2       1 BAX1500     0.0000 
     32 O32       -17.8770    1.7200  -15.6900 O.2       1 BAX1500     0.0000 
     33 H         -27.5344   -0.9591   -7.9210 H         1 BAX1500     0.0000 
     34 H         -29.1616   -4.7551   -8.7047 H         1 BAX1500     0.0000 
     35 H         -29.9761   -4.8723   -6.4209 H         1 BAX1500     0.0000 
     36 H         -26.3757   -1.3739  -14.0459 H         1 BAX1500     0.0000 
     37 H         -24.4211   -0.5688  -15.2337 H         1 BAX1500     0.0000 
     38 H         -22.0558   -1.1958  -11.8277 H         1 BAX1500     0.0000 
     39 H         -24.0081   -2.0127  -10.6355 H         1 BAX1500     0.0000 
     40 H         -23.4787    1.9030  -13.6729 H         1 BAX1500     0.0000 
     41 H         -22.6076    4.1470  -13.8552 H         1 BAX1500     0.0000 
     42 H         -19.8029    0.4031  -15.0315 H         1 BAX1500     0.0000 
     43 H         -18.5978    4.7976  -15.1240 H         1 BAX1500     0.0000 
     44 H         -28.3403   -3.4253  -10.5186 H         1 BAX1500     0.0000 
     45 H         -27.2293   -2.7082  -12.2014 H         1 BAX1500     0.0000 
     46 H         -15.9953    3.7785  -15.3069 H         1 BAX1500     0.0000 
     47 H         -16.5432    3.9246  -16.8118 H         1 BAX1500     0.0000 
     48 H         -16.4557    5.2171  -15.8589 H         1 BAX1500     0.0000 
@<TRIPOS>BOND
     1    2    1 ar   
     2   20    1 ar   
     3   33    1 1    
     4    3    2 ar   
     5   26    2 1    
     6    4    3 ar   
     7   34    3 1    
     8   19    4 ar   
     9   35    4 1    
    10   26    5 am   
    11   27    5 am   
    12   28    5 2    
    13    7    6 ar   
    14   11    6 ar   
    15   27    6 1    
    16    8    7 ar   
    17   36    7 1    
    18    9    8 ar   
    19   37    8 1    
    20   10    9 ar   
    21   12    9 1    
    22   11   10 ar   
    23   38   10 1    
    24   39   11 1    
    25   29   12 1    
    26   14   13 ar   
    27   29   13 ar   
    28   40   13 1    
    29   30   14 ar   
    30   41   14 1    
    31   16   15 ar   
    32   30   15 ar   
    33   31   15 1    
    34   29   16 ar   
    35   42   16 1    
    36   18   17 1    
    37   31   17 am   
    38   43   17 1    
    39   46   18 1    
    40   47   18 1    
    41   48   18 1    
    42   20   19 ar   
    43   25   19 1    
    44   21   20 1    
    45   22   21 1    
    46   23   21 1    
    47   24   21 1    
    48   44   26 1    
    49   45   27 1    
    50   32   31 2    
@<TRIPOS>SUBSTRUCTURE
     1 BAX1500     1 GROUP   
@<TRIPOS>SET

