#    Name: 1vcf_FMN_1_INTS_M
#    Modification time : Tue Mar 25 07:40:37 2014

@<TRIPOS>MOLECULE
1vcf_FMN_1_INTS_M
   59     0     9     0     0
SMALL
NO_CHARGES


@<TRIPOS>ATOM
      1 N         109.2710   -8.1085   23.5305 N.am      2 SEC2        0.0000 
      2 N         110.7160   -8.4620   23.9200 N.am      8 SEL2        0.0000 
      3 N         107.8260   -7.7550   23.1410 N.am      5 SEP2        0.0000 
      4 N         111.6725   -7.5735   23.5210 N.am      2 SEC2        0.0000 
      5 N         112.6290   -6.6850   23.1220 N.am      5 SEP2        0.0000 
      6 O         108.5995   -9.1240   25.3010 O.2       1 ALC1        0.0000 
      7 O         109.8150   -8.9020   25.9480 O.2       7 ALL1        0.0000 
      8 O         107.3840   -9.3460   24.6540 O.2       4 ALP1        0.0000 
      9 N         107.4160   -9.3365   27.8450 N.am      2 SEC2        0.0000 
     10 N         108.8350   -9.3730   27.9180 N.am      8 SEL2        0.0000 
     11 N         105.9970   -9.3000   27.7720 N.am      5 SEP2        0.0000 
     12 CA        110.3065   -7.9605   32.0240 C.3       3 GLC5        0.0000 
     13 CA        112.3580   -7.8000   31.3270 C.3       9 GLL5        0.0000 
     14 CA        108.2550   -8.1210   32.7210 C.3       6 GLP5        0.0000 
     15 CA        115.1660   -8.2570   34.2200 C.3       3 GLC5        0.0000 
     16 CA        113.4200   -7.3080   33.4560 C.3       9 GLL5        0.0000 
     17 CA        116.9120   -9.2060   34.9840 C.3       6 GLP5        0.0000 
     18 CA        117.2905   -7.2040   32.6515 C.3       3 GLC5        0.0000 
     19 CA        115.8530   -6.1620   31.7250 C.3       9 GLL5        0.0000 
     20 CA        118.7280   -8.2460   33.5780 C.3       6 GLP5        0.0000 
     21 CA        116.8145   -4.7070   33.0760 C.3       3 GLC5        0.0000 
     22 CA        117.7760   -3.2520   34.4270 C.3       6 GLP5        0.0000 
     23 CA        115.3075   -7.8595   25.2325 C.3       3 GLC5        0.0000 
     24 CA        114.3100   -6.8590   26.7250 C.3       9 GLL5        0.0000 
     25 CA        116.3050   -8.8600   23.7400 C.3       6 GLP5        0.0000 
     26 CA        115.0745   -8.5995   27.6235 C.3       3 GLC5        0.0000 
     27 CA        115.8390  -10.3400   28.5220 C.3       6 GLP5        0.0000 
     28 CA        114.3030   -3.6160   27.6210 C.3       3 GLC5        0.0000 
     29 CA        114.2730   -5.3690   26.4400 C.3       9 GLL5        0.0000 
     30 CA        114.3330   -1.8630   28.8020 C.3       6 GLP5        0.0000 
     31 N         112.8330   -5.8560   24.4955 N.am      2 SEC2        0.0000 
     32 N         113.0370   -5.0270   25.8690 N.am      8 SEL2        0.0000 
     33 O         112.1835   -4.9515   27.1660 O.2       1 ALC1        0.0000 
     34 O         113.0370   -5.0270   25.8690 O.2       7 ALL1        0.0000 
     35 O         111.3300   -4.8760   28.4630 O.2       4 ALP1        0.0000 
     36 CA        115.8540   -6.9530   24.6155 C.3       3 GLC5        0.0000 
     37 CA        115.4030   -5.0460   25.4910 C.3       9 GLL5        0.0000 
     38 N         116.4100    0.0080   28.2375 N.am      2 SEC2        0.0000 
     39 N         117.7510   -0.4110   28.0910 N.am      8 SEL2        0.0000 
     40 N         115.0690    0.4270   28.3840 N.am      5 SEP2        0.0000 
     41 N         120.2235   -1.3875   26.3315 N.am      2 SEC2        0.0000 
     42 N         119.1510   -2.1610   26.7700 N.am      8 SEL2        0.0000 
     43 N         121.2960   -0.6140   25.8930 N.am      5 SEP2        0.0000 
     44 N         120.0065   -1.5995   28.1690 N.am      2 SEC2        0.0000 
     45 N         120.8620   -1.0380   29.5680 N.am      5 SEP2        0.0000 
     46 N         118.9030   -3.3585   29.4965 N.am      2 SEC2        0.0000 
     47 N         118.6160   -2.0850   28.7900 N.am      8 SEL2        0.0000 
     48 N         119.1900   -4.6320   30.2030 N.am      5 SEP2        0.0000 
     49 N         119.7390   -1.5615   29.1790 N.am      2 SEC2        0.0000 
     50 CA        112.8652   -5.2692   31.3017 C.3       3 GLC5        0.0000 
     51 CA        113.5620   -7.2390   31.9350 C.3       9 GLL5        0.0000 
     52 CA        111.6240   -3.5560   31.0900 C.3       6 GLP5        0.0000 
     53 CA        114.8840   -8.6982   28.9507 C.3       3 GLC5        0.0000 
     54 CA        114.5350   -6.7760   29.7180 C.3       9 GLL5        0.0000 
     55 CA        111.3019   -6.4364   30.2707 C.3       3 GLC5        0.0000 
     56 CA        113.3230   -7.3370   29.0410 C.3       9 GLL5        0.0000 
     57 CA        109.7960   -5.2910   30.7110 C.3       6 GLP5        0.0000 
     58 CA        115.5770   -3.0133   27.7320 C.3       3 GLC5        0.0000 
     59 CA        117.1740   -4.2970   27.3490 C.3       9 GLL5        0.0000 
@<TRIPOS>BOND
@<TRIPOS>SUBSTRUCTURE
     1 ALC1        6 GROUP        1 X    ALC  0     ROOT ALC X 1
     2 SEC2        1 GROUP        1 X    SEC  0     **** SEC X 2
     3 GLC5       12 GROUP        1 X    GLC  0     **** GLC X 6
     4 ALP1        8 GROUP        1 Y    ALP  0     ROOT ALP Y 8
     5 SEP2        3 GROUP        1 Y    SEP  0     **** SEP Y 9
     6 GLP5       14 GROUP        1 Y    GLP  0     **** GLP Y 13
     7 ALL1        7 GROUP        1 Z    ALL  0     ROOT ALL Z 15
     8 SEL2        2 GROUP        1 Z    SEL  0     **** SEL Z 16
     9 GLL5       13 GROUP        1 Z    GLL  0     **** GLL Z 20
@<TRIPOS>SET

