#    Name: 1vcf_FMN_1_ligand
#    Modification time : Tue Mar 25 07:40:37 2014

@<TRIPOS>MOLECULE
1vcf_FMN_1_ligand
   50    52     1     0     0
SMALL
NO_CHARGES


@<TRIPOS>ATOM
      1 N1        112.0010   -7.9060   25.7560 N.2       1 FMN501      0.0000 
      2 C2        110.9220   -8.3880   25.1270 C.2       1 FMN501      0.0000 
      3 O2        110.7160   -8.4620   23.9200 O.2       1 FMN501      0.0000 
      4 N3        109.8150   -8.9020   25.9480 N.am      1 FMN501      0.0000 
      5 C4        109.8530   -8.9060   27.3790 C.2       1 FMN501      0.0000 
      6 O4        108.8350   -9.3730   27.9180 O.2       1 FMN501      0.0000 
      7 C4A       110.9980   -8.3950   27.9610 C.2       1 FMN501      0.0000 
      8 N5        111.0720   -8.3780   29.2620 N.2       1 FMN501      0.0000 
      9 C5A       112.2270   -7.8530   29.9130 C.ar      1 FMN501      0.0000 
     10 C6        112.3580   -7.8000   31.3270 C.ar      1 FMN501      0.0000 
     11 C7        113.5620   -7.2390   31.9350 C.ar      1 FMN501      0.0000 
     12 C7M       113.4200   -7.3080   33.4560 C.3       1 FMN501      0.0000 
     13 C8        114.6510   -6.7260   31.0920 C.ar      1 FMN501      0.0000 
     14 C8M       115.8530   -6.1620   31.7250 C.3       1 FMN501      0.0000 
     15 C9        114.5350   -6.7760   29.7180 C.ar      1 FMN501      0.0000 
     16 C9A       113.3230   -7.3370   29.0410 C.ar      1 FMN501      0.0000 
     17 N10       113.2870   -7.3420   27.6490 N.pl3     1 FMN501      0.0000 
     18 C10       112.1460   -7.8590   27.0890 C.2       1 FMN501      0.0000 
     19 C1'       114.3100   -6.8590   26.7250 C.3       1 FMN501      0.0000 
     20 C2'       114.2730   -5.3690   26.4400 C.3       1 FMN501      0.0000 
     21 O2'       113.0370   -5.0270   25.8690 O.3       1 FMN501      0.0000 
     22 C3'       115.4030   -5.0460   25.4910 C.3       1 FMN501      0.0000 
     23 O3'       116.1930   -6.2180   25.1520 O.3       1 FMN501      0.0000 
     24 C4'       116.4680   -4.0300   25.9750 C.3       1 FMN501      0.0000 
     25 O4'       117.4570   -3.8270   25.0080 O.3       1 FMN501      0.0000 
     26 C5'       117.1740   -4.2970   27.3490 C.3       1 FMN501      0.0000 
     27 O5'       117.0230   -3.0140   28.0210 O.3       1 FMN501      0.0000 
     28 P         117.8800   -1.8170   27.4840 P.3       1 FMN501      0.0000 
     29 O1P       117.7510   -0.4110   28.0910 O.co2     1 FMN501      0.0000 
     30 O2P       119.1510   -2.1610   26.7700 O.co2     1 FMN501      0.0000 
     31 O3P       118.6160   -2.0850   28.7900 O.co2     1 FMN501      0.0000 
     32 H         108.9890   -9.2692   25.4597 H         1 FMN501      0.0000 
     33 H         111.6225   -8.1485   31.9315 H         1 FMN501      0.0000 
     34 H         115.2778   -6.4293   29.0958 H         1 FMN501      0.0000 
     35 H         114.2318   -7.3970   25.7496 H         1 FMN501      0.0000 
     36 H         115.3270   -7.1091   27.1126 H         1 FMN501      0.0000 
     37 H         114.4520   -4.8507   27.3676 H         1 FMN501      0.0000 
     38 H         114.9957   -4.6372   24.5536 H         1 FMN501      0.0000 
     39 H         115.9205   -3.0476   26.1187 H         1 FMN501      0.0000 
     40 H         118.1869   -4.5312   27.1515 H         1 FMN501      0.0000 
     41 H         116.6456   -5.0723   27.8383 H         1 FMN501      0.0000 
     42 H         114.2222   -6.9339   33.9213 H         1 FMN501      0.0000 
     43 H         112.6267   -6.7917   33.7787 H         1 FMN501      0.0000 
     44 H         113.3076   -8.2487   33.7762 H         1 FMN501      0.0000 
     45 H         116.3197   -6.8338   32.3002 H         1 FMN501      0.0000 
     46 H         116.5162   -5.8457   31.0467 H         1 FMN501      0.0000 
     47 H         115.6335   -5.3794   32.3075 H         1 FMN501      0.0000 
     48 H         112.4046   -4.9618   26.6409 H         1 FMN501      0.0000 
     49 H         117.1149   -5.8688   24.9840 H         1 FMN501      0.0000 
     50 H         118.1298   -3.2315   25.4471 H         1 FMN501      0.0000 
@<TRIPOS>BOND
     1    2    1 1    
     2   18    1 2    
     3    3    2 2    
     4    4    2 am   
     5    5    4 am   
     6   32    4 1    
     7    6    5 2    
     8    7    5 1    
     9    8    7 2    
    10   18    7 1    
    11    9    8 1    
    12   10    9 ar   
    13   16    9 ar   
    14   11   10 ar   
    15   33   10 1    
    16   12   11 1    
    17   13   11 ar   
    18   42   12 1    
    19   43   12 1    
    20   44   12 1    
    21   14   13 1    
    22   15   13 ar   
    23   45   14 1    
    24   46   14 1    
    25   47   14 1    
    26   16   15 ar   
    27   34   15 1    
    28   17   16 1    
    29   18   17 1    
    30   19   17 1    
    31   20   19 1    
    32   35   19 1    
    33   36   19 1    
    34   21   20 1    
    35   22   20 1    
    36   37   20 1    
    37   48   21 1    
    38   23   22 1    
    39   24   22 1    
    40   38   22 1    
    41   49   23 1    
    42   25   24 1    
    43   26   24 1    
    44   39   24 1    
    45   50   25 1    
    46   27   26 1    
    47   40   26 1    
    48   41   26 1    
    49   28   27 1    
    50   29   28 ar   
    51   30   28 ar   
    52   31   28 ar   
@<TRIPOS>SUBSTRUCTURE
     1 FMN501      1 GROUP   
@<TRIPOS>SET

