#    Name: 3gt8_ANP_4_INTS_M
#    Modification time : Tue Mar 25 12:56:53 2014

@<TRIPOS>MOLECULE
3gt8_ANP_4_INTS_M
   66     0    15     0     0
SMALL
NO_CHARGES


@<TRIPOS>ATOM
      1 N          27.1465  -29.7115  -24.4765 N.am      2 SEC2        0.0000 
      2 N          26.1610  -28.4630  -24.2170 N.am     12 SEL2        0.0000 
      3 N          28.1320  -30.9600  -24.7360 N.am      7 SEP2        0.0000 
      4 NZ         24.8370  -26.1610  -23.5910 N.4       3 LYC4        0.0000 
      5 NZ         26.3800  -26.1360  -23.1480 N.4      13 LYL4        0.0000 
      6 NZ         23.0010  -25.1790  -24.8390 N.4       8 LYP4        0.0000 
      7 N          26.9505  -25.1280  -23.9640 N.am      2 SEC2        0.0000 
      8 N          26.3800  -26.1360  -23.1480 N.am     12 SEL2        0.0000 
      9 N          27.5210  -24.1200  -24.7800 N.am      7 SEP2        0.0000 
     10 N          24.8370  -26.1610  -23.5910 N.am      2 SEC2        0.0000 
     11 N          23.2940  -26.1860  -24.0340 N.am      7 SEP2        0.0000 
     12 N          26.0555  -24.8935  -22.5160 N.am      2 SEC2        0.0000 
     13 N          25.7310  -23.6510  -21.8840 N.am      7 SEP2        0.0000 
     14 Zn         26.1280  -26.8215  -19.4175 Zn        4 ZIC7        0.0000 
     15 Zn         25.5570  -27.4040  -19.5460 Zn       14 ZIL7        0.0000 
     16 Zn         26.6990  -26.2390  -19.2890 Zn        9 ZIP7        0.0000 
     17 NZ         29.7930  -28.8670  -19.6260 N.4       3 LYC4        0.0000 
     18 NZ         28.9480  -30.0170  -20.3240 N.4      13 LYL4        0.0000 
     19 NZ         30.6380  -27.7170  -18.9280 N.4       8 LYP4        0.0000 
     20 NZ         29.2410  -27.8405  -19.0815 N.4       3 LYC4        0.0000 
     21 NZ         27.8440  -27.9640  -19.2350 N.4      13 LYL4        0.0000 
     22 Zn         27.2715  -27.1015  -19.2620 Zn        4 ZIC7        0.0000 
     23 Zn         27.8440  -27.9640  -19.2350 Zn       14 ZIL7        0.0000 
     24 N          29.2410  -27.8405  -19.0815 N.am      2 SEC2        0.0000 
     25 N          27.8440  -27.9640  -19.2350 N.am     12 SEL2        0.0000 
     26 N          30.6380  -27.7170  -18.9280 N.am      7 SEP2        0.0000 
     27 CA         23.3430  -27.5395  -15.2095 C.3       5 GLC5        0.0000 
     28 CA         24.8600  -29.1030  -15.1130 C.3      15 GLL5        0.0000 
     29 CA         21.8260  -25.9760  -15.3060 C.3      10 GLP5        0.0000 
     30 CA         25.0080  -27.1255  -14.2360 C.3       5 GLC5        0.0000 
     31 CA         25.1560  -25.1480  -13.3590 C.3      10 GLP5        0.0000 
     32 CA         26.4340  -31.6825  -13.6315 C.3       5 GLC5        0.0000 
     33 CA         26.0820  -29.9030  -14.6590 C.3      15 GLL5        0.0000 
     34 CA         26.7860  -33.4620  -12.6040 C.3      10 GLP5        0.0000 
     35 CA         28.0955  -30.5135  -14.5155 C.3       5 GLC5        0.0000 
     36 CA         30.1090  -31.1240  -14.3720 C.3      10 GLP5        0.0000 
     37 CA         30.0625  -28.2105  -10.7680 C.3       5 GLC5        0.0000 
     38 CA         28.1700  -27.3600  -11.0940 C.3      15 GLL5        0.0000 
     39 CA         31.9550  -29.0610  -10.4420 C.3      10 GLP5        0.0000 
     40 CA         29.1755  -27.3160   -9.1770 C.3       5 GLC5        0.0000 
     41 CA         30.1810  -27.2720   -7.2600 C.3      10 GLP5        0.0000 
     42 CA         27.1770  -26.3670   -9.9705 C.3       5 GLC5        0.0000 
     43 CA         26.1840  -25.3740   -8.8470 C.3      10 GLP5        0.0000 
     44 O          29.9670  -25.8415   -9.8760 O.2       1 ALC1        0.0000 
     45 O          29.1730  -26.5360  -10.8000 O.2      11 ALL1        0.0000 
     46 O          30.7610  -25.1470   -8.9520 O.2       6 ALP1        0.0000 
     47 N          27.5755  -27.2610   -8.9400 N.am      2 SEC2        0.0000 
     48 N          27.2990  -27.7370  -10.1470 N.am     12 SEL2        0.0000 
     49 N          27.8520  -26.7850   -7.7330 N.am      7 SEP2        0.0000 
     50 CA         27.7645  -29.4290   -9.0005 C.3       5 GLC5        0.0000 
     51 CA         26.3000  -28.5570  -10.4350 C.3      15 GLL5        0.0000 
     52 CA         29.2290  -30.3010   -7.5660 C.3      10 GLP5        0.0000 
     53 CA         26.2420  -26.9655   -9.6410 C.3       5 GLC5        0.0000 
     54 CA         24.3305  -28.0950  -10.6125 C.3       5 GLC5        0.0000 
     55 CA         22.3610  -27.6330  -10.7900 C.3      10 GLP5        0.0000 
     56 CA         26.0550  -26.9210  -13.0030 C.3       5 GLC5        0.0000 
     57 CA         26.9540  -28.6940  -12.6470 C.3      15 GLL5        0.0000 
     58 CA         25.7500  -32.9115  -17.0948 C.3       5 GLC5        0.0000 
     59 CA         25.5790  -30.7840  -16.6820 C.3      15 GLL5        0.0000 
     60 CA         25.7150  -35.0190  -16.7710 C.3      10 GLP5        0.0000 
     61 CA         27.8730  -31.0340  -17.1382 C.3       5 GLC5        0.0000 
     62 CA         29.9610  -31.2640  -16.8580 C.3      10 GLP5        0.0000 
     63 CA         28.7953  -29.6958  -13.4437 C.3       5 GLC5        0.0000 
     64 CA         27.7598  -25.9207  -12.2950 C.3       5 GLC5        0.0000 
     65 CA         28.0090  -27.8410  -12.3840 C.3      15 GLL5        0.0000 
     66 CA         27.4300  -24.2410  -12.8510 C.3      10 GLP5        0.0000 
@<TRIPOS>BOND
@<TRIPOS>SUBSTRUCTURE
     1 ALC1       44 GROUP        1 X    ALC  0     ROOT ALC X 1
     2 SEC2        1 GROUP        1 X    SEC  0     **** SEC X 2
     3 LYC4        4 GROUP        1 X    LYC  0     **** LYC X 4
     4 ZIC7       14 GROUP        1 X    ZIC  0     **** ZIC X 5
     5 GLC5       27 GROUP        1 X    GLC  0     **** GLC X 6
     6 ALP1       46 GROUP        1 Y    ALP  0     ROOT ALP Y 8
     7 SEP2        3 GROUP        1 Y    SEP  0     **** SEP Y 9
     8 LYP4        6 GROUP        1 Y    LYP  0     **** LYP Y 11
     9 ZIP7       16 GROUP        1 Y    ZIP  0     **** ZIP Y 12
    10 GLP5       29 GROUP        1 Y    GLP  0     **** GLP Y 13
    11 ALL1       45 GROUP        1 Z    ALL  0     ROOT ALL Z 15
    12 SEL2        2 GROUP        1 Z    SEL  0     **** SEL Z 16
    13 LYL4        5 GROUP        1 Z    LYL  0     **** LYL Z 18
    14 ZIL7       15 GROUP        1 Z    ZIL  0     **** ZIL Z 19
    15 GLL5       28 GROUP        1 Z    GLL  0     **** GLL Z 20
@<TRIPOS>SET

