#    Name: 3gt8_ANP_4_ligand
#    Modification time : Tue Mar 25 12:56:53 2014

@<TRIPOS>MOLECULE
3gt8_ANP_4_ligand
   43    45     1     0     0
SMALL
NO_CHARGES


@<TRIPOS>ATOM
      1 PG         26.3120  -27.7130  -22.7900 P.3       1 ANP4        0.0000 
      2 O1G        27.5160  -28.1660  -22.0500 O.co2     1 ANP4        0.0000 
      3 O2G        26.1610  -28.4630  -24.2170 O.co2     1 ANP4        0.0000 
      4 O3G        26.3800  -26.1360  -23.1480 O.co2     1 ANP4        0.0000 
      5 PB         25.2470  -28.5060  -20.4910 P.3       1 ANP4        0.0000 
      6 O1B        25.5570  -27.4040  -19.5460 O.co2     1 ANP4        0.0000 
      7 O2B        23.9210  -29.3250  -20.0500 O.co2     1 ANP4        0.0000 
      8 N3B        24.9220  -27.9510  -21.9870 N.4       1 ANP4        0.0000 
      9 PA         27.7170  -29.5210  -19.6600 P.3       1 ANP4        0.0000 
     10 O1A        28.9480  -30.0170  -20.3240 O.co2     1 ANP4        0.0000 
     11 O2A        27.8440  -27.9640  -19.2350 O.co2     1 ANP4        0.0000 
     12 O3A        26.4320  -29.5860  -20.6430 O.3       1 ANP4        0.0000 
     13 O5'        27.3240  -30.3350  -18.3270 O.3       1 ANP4        0.0000 
     14 C5'        25.9910  -30.8240  -18.1550 C.3       1 ANP4        0.0000 
     15 C4'        25.5790  -30.7840  -16.6820 C.3       1 ANP4        0.0000 
     16 O4'        26.6870  -30.3380  -15.8860 O.3       1 ANP4        0.0000 
     17 C3'        24.5170  -29.7020  -16.4780 C.3       1 ANP4        0.0000 
     18 O3'        23.2220  -30.3070  -16.4220 O.3       1 ANP4        0.0000 
     19 C2'        24.8600  -29.1030  -15.1130 C.3       1 ANP4        0.0000 
     20 O2'        23.7770  -29.3300  -14.2060 O.3       1 ANP4        0.0000 
     21 C1'        26.0820  -29.9030  -14.6590 C.3       1 ANP4        0.0000 
     22 N9         27.0160  -29.0100  -13.9370 N.pl3     1 ANP4        0.0000 
     23 C8         28.0670  -28.3820  -14.4660 C.2       1 ANP4        0.0000 
     24 N7         28.6760  -27.6670  -13.5200 N.2       1 ANP4        0.0000 
     25 C5         28.0090  -27.8410  -12.3840 C.ar      1 ANP4        0.0000 
     26 C6         28.1700  -27.3600  -11.0940 C.ar      1 ANP4        0.0000 
     27 N6         29.1730  -26.5360  -10.8000 N.pl3     1 ANP4        0.0000 
     28 N1         27.2990  -27.7370  -10.1470 N.ar      1 ANP4        0.0000 
     29 C2         26.3000  -28.5570  -10.4350 C.ar      1 ANP4        0.0000 
     30 N3         26.1190  -29.0330  -11.6560 N.ar      1 ANP4        0.0000 
     31 C4         26.9540  -28.6940  -12.6470 C.ar      1 ANP4        0.0000 
     32 H          25.8932  -31.8646  -18.5000 H         1 ANP4        0.0000 
     33 H          25.2626  -30.2234  -18.7210 H         1 ANP4        0.0000 
     34 H          25.2038  -31.7040  -16.3724 H         1 ANP4        0.0000 
     35 H          24.6229  -28.9708  -17.2127 H         1 ANP4        0.0000 
     36 H          25.1254  -28.1030  -15.2308 H         1 ANP4        0.0000 
     37 H          25.7645  -30.7047  -14.0689 H         1 ANP4        0.0000 
     38 H          28.3467  -28.4376  -15.4012 H         1 ANP4        0.0000 
     39 H          29.2046  -26.1995   -9.8588 H         1 ANP4        0.0000 
     40 H          29.8046  -26.3277  -11.5468 H         1 ANP4        0.0000 
     41 H          25.6257  -28.8401   -9.6641 H         1 ANP4        0.0000 
     42 H          22.8852  -30.1124  -15.5007 H         1 ANP4        0.0000 
     43 H          23.7643  -28.5258  -13.6118 H         1 ANP4        0.0000 
@<TRIPOS>BOND
     1    2    1 ar   
     2    3    1 ar   
     3    4    1 ar   
     4    8    1 1    
     5    6    5 ar   
     6    7    5 ar   
     7    8    5 1    
     8   12    5 1    
     9   10    9 ar   
    10   11    9 ar   
    11   12    9 1    
    12   13    9 1    
    13   14   13 1    
    14   15   14 1    
    15   32   14 1    
    16   33   14 1    
    17   16   15 1    
    18   17   15 1    
    19   34   15 1    
    20   21   16 1    
    21   18   17 1    
    22   19   17 1    
    23   35   17 1    
    24   42   18 1    
    25   20   19 1    
    26   21   19 1    
    27   36   19 1    
    28   43   20 1    
    29   22   21 1    
    30   37   21 1    
    31   23   22 1    
    32   31   22 1    
    33   24   23 2    
    34   38   23 1    
    35   25   24 1    
    36   26   25 ar   
    37   31   25 ar   
    38   27   26 1    
    39   28   26 ar   
    40   39   27 1    
    41   40   27 1    
    42   29   28 ar   
    43   30   29 ar   
    44   41   29 1    
    45   31   30 ar   
@<TRIPOS>SUBSTRUCTURE
     1 ANP4        1 GROUP   
@<TRIPOS>SET

