#    Name: 2vag_V25_1_INTS_M
#    Modification time : Tue Mar 25 01:19:59 2014

@<TRIPOS>MOLECULE
2vag_V25_1_INTS_M
   76     0     6     0     0
SMALL
NO_CHARGES


@<TRIPOS>ATOM
      1 CA          6.5625   16.1585   15.1175 C.3       2 GLC5        0.0000 
      2 CA          7.9330   15.4020   16.2560 C.3       6 GLL5        0.0000 
      3 CA          5.1920   16.9150   13.9790 C.3       4 GLP5        0.0000 
      4 CA          6.0490   14.5320   16.4110 C.3       2 GLC5        0.0000 
      5 CA          4.1650   13.6620   16.5660 C.3       4 GLP5        0.0000 
      6 CA          9.8435   14.9555   16.0160 C.3       2 GLC5        0.0000 
      7 CA         11.7540   14.5090   15.7760 C.3       4 GLP5        0.0000 
      8 CA          7.5730   18.1720   18.6200 C.3       2 GLC5        0.0000 
      9 CA          7.9170   16.2490   17.5470 C.3       6 GLL5        0.0000 
     10 CA          7.2290   20.0950   19.6930 C.3       4 GLP5        0.0000 
     11 CA          5.8590   15.3900   17.5670 C.3       2 GLC5        0.0000 
     12 CA          3.8010   14.5310   17.5870 C.3       4 GLP5        0.0000 
     13 CA          7.5345   17.9395   23.5180 C.3       2 GLC5        0.0000 
     14 CA          8.0230   16.3390   22.8060 C.3       6 GLL5        0.0000 
     15 CA          7.0460   19.5400   24.2300 C.3       4 GLP5        0.0000 
     16 CA          6.1005   16.3560   23.1985 C.3       2 GLC5        0.0000 
     17 CA          4.1780   16.3730   23.5910 C.3       4 GLP5        0.0000 
     18 CA          9.1880   14.6655   23.2845 C.3       2 GLC5        0.0000 
     19 CA         10.3530   12.9920   23.7630 C.3       4 GLP5        0.0000 
     20 CA          7.0990   16.7475   25.9920 C.3       2 GLC5        0.0000 
     21 CA          7.6130   15.0660   25.5510 C.3       6 GLL5        0.0000 
     22 CA          6.5850   18.4290   26.4330 C.3       4 GLP5        0.0000 
     23 CA          5.8955   15.7195   24.5710 C.3       2 GLC5        0.0000 
     24 CA          9.0655   13.8005   26.6400 C.3       2 GLC5        0.0000 
     25 CA         10.5180   12.5350   27.7290 C.3       4 GLP5        0.0000 
     26 CA          8.9830   14.0290   24.6570 C.3       2 GLC5        0.0000 
     27 CA          8.3645   11.4585   25.8500 C.3       2 GLC5        0.0000 
     28 CA          6.7600   12.6390   24.9380 C.3       6 GLL5        0.0000 
     29 CA          9.9690   10.2780   26.7620 C.3       4 GLP5        0.0000 
     30 CA          6.8975   13.2125   28.6780 C.3       2 GLC5        0.0000 
     31 CA          6.6910   12.3730   26.6540 C.3       6 GLL5        0.0000 
     32 CA          7.1040   14.0520   30.7020 C.3       4 GLP5        0.0000 
     33 CA          8.3455   11.7535   27.3575 C.3       2 GLC5        0.0000 
     34 CA         10.0000   11.1340   28.0610 C.3       4 GLP5        0.0000 
     35 CA          7.7990   10.3415   23.7255 C.3       2 GLC5        0.0000 
     36 CA          6.3800   11.6180   24.0850 C.3       6 GLL5        0.0000 
     37 CA          9.2180    9.0650   23.3660 C.3       4 GLP5        0.0000 
     38 CA          7.5250   10.3125   22.3195 C.3       2 GLC5        0.0000 
     39 CA          6.4480   11.7810   22.7130 C.3       6 GLL5        0.0000 
     40 CA          8.6020    8.8440   21.9260 C.3       4 GLP5        0.0000 
     41 CA          5.2990   13.5535   18.6585 C.3       2 GLC5        0.0000 
     42 CA          6.7970   12.5760   19.7300 C.3       6 GLL5        0.0000 
     43 CA          5.3630   14.0885   20.4515 C.3       2 GLC5        0.0000 
     44 CA          3.9290   15.6010   21.1730 C.3       4 GLP5        0.0000 
     45 CA          4.9035   12.7165   18.0510 C.3       2 GLC5        0.0000 
     46 CA          5.6420   11.7710   19.5360 C.3       6 GLL5        0.0000 
     47 CA          3.5490   11.7560   19.8400 C.3       2 GLC5        0.0000 
     48 CA          1.4560   11.7410   20.1440 C.3       4 GLP5        0.0000 
     49 CA          6.1830   10.0905   18.5555 C.3       2 GLC5        0.0000 
     50 CA          6.7240    8.4100   17.5750 C.3       4 GLP5        0.0000 
     51 CA          7.2810   10.3595   18.1930 C.3       2 GLC5        0.0000 
     52 CA          7.8380   12.3090   18.8110 C.3       6 GLL5        0.0000 
     53 N           9.3115   11.7130   17.7105 N.am      1 SEC2        0.0000 
     54 N           9.0180   12.9120   18.7750 N.am      5 SEL2        0.0000 
     55 N           9.6050   10.5140   16.6460 N.am      3 SEP2        0.0000 
     56 CA          8.8010   13.5347   22.3295 C.3       2 GLC5        0.0000 
     57 CA          7.4990   14.7280   20.9440 C.3       6 GLL5        0.0000 
     58 CA          5.6917   15.1520   23.6580 C.3       2 GLC5        0.0000 
     59 CA          7.2280   14.0320   23.0340 C.3       6 GLL5        0.0000 
     60 CA          8.7793   13.4615   23.7440 C.3       2 GLC5        0.0000 
     61 CA          5.9025   14.7715   26.1343 C.3       2 GLC5        0.0000 
     62 CA          7.1830   13.8300   24.4160 C.3       6 GLL5        0.0000 
     63 CA          4.4070   15.0950   27.2850 C.3       4 GLP5        0.0000 
     64 CA          5.5663   13.8005   26.5405 C.3       2 GLC5        0.0000 
     65 CA          8.4615   12.5602   24.1373 C.3       2 GLC5        0.0000 
     66 CA          6.5644   10.2220   25.6062 C.3       2 GLC5        0.0000 
     67 CA          6.5760    8.3820   26.2720 C.3       4 GLP5        0.0000 
     68 CA          5.0609   11.5010   26.1702 C.3       2 GLC5        0.0000 
     69 CA          3.5690   10.9400   27.4000 C.3       4 GLP5        0.0000 
     70 CA          8.5073   12.6855   23.1000 C.3       2 GLC5        0.0000 
     71 CA          5.4955   14.5641   21.3508 C.3       2 GLC5        0.0000 
     72 CA          6.8750   12.9770   22.1610 C.3       6 GLL5        0.0000 
     73 CA          8.0655   11.4980   21.1948 C.3       2 GLC5        0.0000 
     74 CA          6.9990   13.4270   20.8480 C.3       6 GLL5        0.0000 
     75 CA          9.1940    9.7940   20.8850 C.3       4 GLP5        0.0000 
     76 CA          8.1114   11.0176   20.0535 C.3       2 GLC5        0.0000 
@<TRIPOS>BOND
@<TRIPOS>SUBSTRUCTURE
     1 SEC2       53 GROUP        1 X    SEC  0     ROOT SEC X 2
     2 GLC5        1 GROUP        1 X    GLC  0     **** GLC X 6
     3 SEP2       55 GROUP        1 Y    SEP  0     ROOT SEP Y 9
     4 GLP5        3 GROUP        1 Y    GLP  0     **** GLP Y 13
     5 SEL2       54 GROUP        1 Z    SEL  0     ROOT SEL Z 16
     6 GLL5        2 GROUP        1 Z    GLL  0     **** GLL Z 20
@<TRIPOS>SET

