#    Name: 2vag_V25_1_ligand
#    Modification time : Tue Mar 25 01:19:59 2014

@<TRIPOS>MOLECULE
2vag_V25_1_ligand
   36    37     1     0     0
SMALL
NO_CHARGES


@<TRIPOS>ATOM
      1 CAA         7.9330   15.4020   16.2560 C.3       1 V251482     0.0000 
      2 CAL         7.9170   16.2490   17.5470 C.3       1 V251482     0.0000 
      3 OAM         7.3970   15.3410   18.5310 O.3       1 V251482     0.0000 
      4 CAN         7.7080   15.6980   19.7940 C.2       1 V251482     0.0000 
      5 OAE         7.9590   16.8870   19.9750 O.2       1 V251482     0.0000 
      6 CAS         7.4990   14.7280   20.9440 C.2       1 V251482     0.0000 
      7 NAV         7.5840   15.0440   22.2820 N.pl3     1 V251482     0.0000 
      8 CAB         8.0230   16.3390   22.8060 C.3       1 V251482     0.0000 
      9 CAU         7.2280   14.0320   23.0340 C.ar      1 V251482     0.0000 
     10 CAQ         7.1830   13.8300   24.4160 C.ar      1 V251482     0.0000 
     11 CL1         7.6130   15.0660   25.5510 Cl        1 V251482     0.0000 
     12 CAP         6.7600   12.6390   24.9380 C.ar      1 V251482     0.0000 
     13 CL2         6.6910   12.3730   26.6540 Cl        1 V251482     0.0000 
     14 CAJ         6.3800   11.6180   24.0850 C.ar      1 V251482     0.0000 
     15 CAK         6.4480   11.7810   22.7130 C.ar      1 V251482     0.0000 
     16 CAT         6.8750   12.9770   22.1610 C.ar      1 V251482     0.0000 
     17 CAR         6.9990   13.4270   20.8480 C.2       1 V251482     0.0000 
     18 CAO         6.7970   12.5760   19.7300 C.2       1 V251482     0.0000 
     19 CAH         5.6420   11.7710   19.5360 C.2       1 V251482     0.0000 
     20 NAC         4.7220   11.1200   19.3820 N.4       1 V251482     0.0000 
     21 CAI         7.8380   12.3090   18.8110 C.1       1 V251482     0.0000 
     22 NAD         9.0180   12.9120   18.7750 N.1       1 V251482     0.0000 
     23 H           7.2738   17.0859   17.3846 H         1 V251482     0.0000 
     24 H           8.9203   16.5478   17.7581 H         1 V251482     0.0000 
     25 H           6.0409   10.7218   24.4782 H         1 V251482     0.0000 
     26 H           6.1762   10.9988   22.0901 H         1 V251482     0.0000 
     27 H           4.8750   13.0281   19.3105 H         1 V251482     0.0000 
     28 H           8.2812   15.9212   15.4755 H         1 V251482     0.0000 
     29 H           8.5113   14.5917   16.3506 H         1 V251482     0.0000 
     30 H           7.0180   15.0820   16.0104 H         1 V251482     0.0000 
     31 H           8.9539   16.5609   22.5157 H         1 V251482     0.0000 
     32 H           7.4335   17.0846   22.4952 H         1 V251482     0.0000 
     33 H           8.0157   16.3569   23.8058 H         1 V251482     0.0000 
     34 H           4.8390   10.4867   18.6170 H         1 V251482     0.0000 
     35 H           4.5179   10.5682   20.1906 H         1 V251482     0.0000 
     36 H           3.9080   11.6674   19.1876 H         1 V251482     0.0000 
@<TRIPOS>BOND
     1    2    1 1    
     2   28    1 1    
     3   29    1 1    
     4   30    1 1    
     5    3    2 1    
     6   23    2 1    
     7   24    2 1    
     8    4    3 1    
     9    5    4 2    
    10    6    4 1    
    11    7    6 1    
    12   17    6 2    
    13    8    7 1    
    14    9    7 1    
    15   31    8 1    
    16   32    8 1    
    17   33    8 1    
    18   10    9 ar   
    19   16    9 ar   
    20   11   10 1    
    21   12   10 ar   
    22   13   12 1    
    23   14   12 ar   
    24   15   14 ar   
    25   25   14 1    
    26   16   15 ar   
    27   26   15 1    
    28   17   16 1    
    29   18   17 1    
    30   19   18 2    
    31   21   18 1    
    32   20   19 1    
    33   27   19 1    
    34   34   20 1    
    35   35   20 1    
    36   36   20 1    
    37   22   21 3    
@<TRIPOS>SUBSTRUCTURE
     1 V251482     1 GROUP   
@<TRIPOS>SET

