#    Name: 1os1_ATP_1_INTS_M
#    Modification time : Mon Mar 24 20:35:15 2014

@<TRIPOS>MOLECULE
1os1_ATP_1_INTS_M
   79     0    15     0     0
SMALL
NO_CHARGES


@<TRIPOS>ATOM
      1 NZ         29.4745    3.3710   10.5600 N.4       3 LYC4        0.0000 
      2 NZ         30.7100    3.6550   10.1830 N.4      13 LYL4        0.0000 
      3 NZ         28.2390    3.0870   10.9370 N.4       8 LYP4        0.0000 
      4 N          29.4745    3.3710   10.5600 N.am      2 SEC2        0.0000 
      5 N          30.7100    3.6550   10.1830 N.am     12 SEL2        0.0000 
      6 N          28.2390    3.0870   10.9370 N.am      7 SEP2        0.0000 
      7 NZ         33.7215    6.0575    9.7085 N.4       3 LYC4        0.0000 
      8 NZ         32.3520    5.4970    9.8710 N.4      13 LYL4        0.0000 
      9 NZ         35.7760    6.5990   10.6870 N.4       8 LYP4        0.0000 
     10 N          32.4840    5.9210    8.6920 N.am      2 SEC2        0.0000 
     11 N          32.3520    5.4970    9.8710 N.am     12 SEL2        0.0000 
     12 N          32.6160    6.3450    7.5130 N.am      7 SEP2        0.0000 
     13 N          33.7215    6.0575    9.7085 N.am      2 SEC2        0.0000 
     14 N          35.0910    6.6180    9.5460 N.am      7 SEP2        0.0000 
     15 Zn         32.0405    4.5165   13.2685 Zn        4 ZIC7        0.0000 
     16 Zn         32.0250    4.5000   12.0960 Zn       14 ZIL7        0.0000 
     17 Zn         32.0560    4.5330   14.4410 Zn        9 ZIP7        0.0000 
     18 NZ         28.0705    4.4855   11.3780 N.4       3 LYC4        0.0000 
     19 NZ         27.9020    5.8840   11.8190 N.4      13 LYL4        0.0000 
     20 N          27.5055    7.2375   10.8825 N.am      2 SEC2        0.0000 
     21 N          27.9020    5.8840   11.8190 N.am     12 SEL2        0.0000 
     22 N          27.1090    8.5910    9.9460 N.am      7 SEP2        0.0000 
     23 N          26.9570    7.2395   12.1710 N.am      2 SEC2        0.0000 
     24 N          26.0120    8.5950   12.5230 N.am      7 SEP2        0.0000 
     25 N          27.0235    6.0770   12.9920 N.am      2 SEC2        0.0000 
     26 N          26.1450    6.2700   14.1650 N.am      7 SEP2        0.0000 
     27 N          28.0705    4.4855   11.3780 N.am      2 SEC2        0.0000 
     28 NZ         28.9830    4.3670   12.2365 N.4       3 LYC4        0.0000 
     29 NZ         29.7270    5.6470   13.5360 N.4      13 LYL4        0.0000 
     30 Zn         30.8915    5.0900   13.9885 Zn        4 ZIC7        0.0000 
     31 Zn         29.7270    5.6470   13.5360 Zn       14 ZIL7        0.0000 
     32 N          28.9635    5.7085   14.8045 N.am      2 SEC2        0.0000 
     33 N          29.7270    5.6470   13.5360 N.am     12 SEL2        0.0000 
     34 N          28.2000    5.7700   16.0730 N.am      7 SEP2        0.0000 
     35 N          30.1120    7.0175   10.1365 N.am      2 SEC2        0.0000 
     36 N          30.3300    6.0410   10.9910 N.am     12 SEL2        0.0000 
     37 N          29.8940    7.9940    9.2820 N.am      7 SEP2        0.0000 
     38 N          28.3870    7.0530   15.3665 N.am      2 SEC2        0.0000 
     39 N          28.5740    8.3360   14.6600 N.am     12 SEL2        0.0000 
     40 N          28.3985    8.2615   16.1920 N.am      2 SEC2        0.0000 
     41 N          28.2230    8.1870   17.7240 N.am      7 SEP2        0.0000 
     42 N          27.6945    8.1945   12.4070 N.am      2 SEC2        0.0000 
     43 N          29.3770    7.7940   12.2910 N.am     12 SEL2        0.0000 
     44 CA         27.1100    9.8640   11.4930 C.3       5 GLC5        0.0000 
     45 CA         28.5350   10.8860   12.8750 C.3      15 GLL5        0.0000 
     46 CA         25.6850    8.8420   10.1110 C.3      10 GLP5        0.0000 
     47 CA         27.0550    9.7595   13.3900 C.3       5 GLC5        0.0000 
     48 CA         25.5750    8.6330   13.9050 C.3      10 GLP5        0.0000 
     49 CA         28.7130   10.9135   15.0015 C.3       5 GLC5        0.0000 
     50 CA         28.8910   10.9410   17.1280 C.3      10 GLP5        0.0000 
     51 O          32.2015   13.8935   14.2955 O.2       1 ALC1        0.0000 
     52 O          31.0960   13.4460   13.4970 O.2      11 ALL1        0.0000 
     53 O          33.3070   14.3410   15.0940 O.2       6 ALP1        0.0000 
     54 CA         27.6880   14.8385   16.0695 C.3       5 GLC5        0.0000 
     55 CA         28.8700   13.6910   14.5570 C.3      15 GLL5        0.0000 
     56 CA         26.5060   15.9860   17.5820 C.3      10 GLP5        0.0000 
     57 CA         22.4535   12.7550   13.0545 C.3       5 GLC5        0.0000 
     58 CA         23.3360   14.1390   14.4850 C.3      15 GLL5        0.0000 
     59 CA         21.5710   11.3710   11.6240 C.3      10 GLP5        0.0000 
     60 CA         21.4970   13.7110   15.5190 C.3       5 GLC5        0.0000 
     61 CA         19.6580   13.2830   16.5530 C.3      10 GLP5        0.0000 
     62 O          21.8205   16.1135   14.0675 O.2       1 ALC1        0.0000 
     63 O          22.2150   14.8460   14.5740 O.2      11 ALL1        0.0000 
     64 O          21.4260   17.3810   13.5610 O.2       6 ALP1        0.0000 
     65 O          20.9290   14.5080   14.9995 O.2       1 ALC1        0.0000 
     66 O          19.6430   14.1700   15.4250 O.2       6 ALP1        0.0000 
     67 CA         25.0140   10.3770   14.2965 C.3       5 GLC5        0.0000 
     68 CA         24.4530   12.1210   14.6880 C.3      15 GLL5        0.0000 
     69 CA         23.6710   10.6595   15.9940 C.3       5 GLC5        0.0000 
     70 CA         22.8890    9.1980   17.3000 C.3      10 GLP5        0.0000 
     71 CA         23.0120   11.7460   13.1560 C.3       5 GLC5        0.0000 
     72 CA         29.1397   10.4407   11.2370 C.3       5 GLC5        0.0000 
     73 CA         29.1420   12.2530   12.6590 C.3      15 GLL5        0.0000 
     74 CA         29.4410    9.3120    9.7070 C.3      10 GLP5        0.0000 
     75 CA         29.1395   12.0778   15.6848 C.3       5 GLC5        0.0000 
     76 CA         29.9060   12.7380   13.9260 C.3      15 GLL5        0.0000 
     77 CA         24.9091   15.0395   15.6939 C.3       5 GLC5        0.0000 
     78 CA         24.5650   14.7090   14.0760 C.3      15 GLL5        0.0000 
     79 CA         25.0160   15.9330   17.2360 C.3      10 GLP5        0.0000 
@<TRIPOS>BOND
@<TRIPOS>SUBSTRUCTURE
     1 ALC1       51 GROUP        1 X    ALC  0     ROOT ALC X 1
     2 SEC2        4 GROUP        1 X    SEC  0     **** SEC X 2
     3 LYC4        1 GROUP        1 X    LYC  0     **** LYC X 4
     4 ZIC7       15 GROUP        1 X    ZIC  0     **** ZIC X 5
     5 GLC5       44 GROUP        1 X    GLC  0     **** GLC X 6
     6 ALP1       53 GROUP        1 Y    ALP  0     ROOT ALP Y 8
     7 SEP2        6 GROUP        1 Y    SEP  0     **** SEP Y 9
     8 LYP4        3 GROUP        1 Y    LYP  0     **** LYP Y 11
     9 ZIP7       17 GROUP        1 Y    ZIP  0     **** ZIP Y 12
    10 GLP5       46 GROUP        1 Y    GLP  0     **** GLP Y 13
    11 ALL1       52 GROUP        1 Z    ALL  0     ROOT ALL Z 15
    12 SEL2        5 GROUP        1 Z    SEL  0     **** SEL Z 16
    13 LYL4        2 GROUP        1 Z    LYL  0     **** LYL Z 18
    14 ZIL7       16 GROUP        1 Z    ZIL  0     **** ZIL Z 19
    15 GLL5       45 GROUP        1 Z    GLL  0     **** GLL Z 20
@<TRIPOS>SET

