#    Name: 1os1_ATP_1_ligand
#    Modification time : Mon Mar 24 20:35:15 2014

@<TRIPOS>MOLECULE
1os1_ATP_1_ligand
   43    45     1     0     0
SMALL
NO_CHARGES


@<TRIPOS>ATOM
      1 PG         31.4310    4.7960   10.7730 P.3       1 ATP541      0.0000 
      2 O1G        30.7100    3.6550   10.1830 O.co2     1 ATP541      0.0000 
      3 O2G        32.3520    5.4970    9.8710 O.co2     1 ATP541      0.0000 
      4 O3G        32.0250    4.5000   12.0960 O.co2     1 ATP541      0.0000 
      5 PB         29.2770    6.2050   12.2420 P.3       1 ATP541      0.0000 
      6 O1B        27.9020    5.8840   11.8190 O.co2     1 ATP541      0.0000 
      7 O2B        29.7270    5.6470   13.5360 O.co2     1 ATP541      0.0000 
      8 O3B        30.3300    6.0410   10.9910 O.3       1 ATP541      0.0000 
      9 PA         29.6730    8.5600   13.7120 P.3       1 ATP541      0.0000 
     10 O1A        28.5740    8.3360   14.6600 O.co2     1 ATP541      0.0000 
     11 O2A        31.0710    8.3160   14.1090 O.co2     1 ATP541      0.0000 
     12 O3A        29.3770    7.7940   12.2910 O.3       1 ATP541      0.0000 
     13 O5'        29.6310   10.0170   13.1210 O.3       1 ATP541      0.0000 
     14 C5'        28.5350   10.8860   12.8750 C.3       1 ATP541      0.0000 
     15 C4'        29.1420   12.2530   12.6590 C.3       1 ATP541      0.0000 
     16 O4'        28.1100   13.2050   12.3790 O.3       1 ATP541      0.0000 
     17 C3'        29.9060   12.7380   13.9260 C.3       1 ATP541      0.0000 
     18 O3'        31.0960   13.4460   13.4970 O.3       1 ATP541      0.0000 
     19 C2'        28.8700   13.6910   14.5570 C.3       1 ATP541      0.0000 
     20 O2'        29.4700   14.7380   15.3360 O.3       1 ATP541      0.0000 
     21 C1'        28.1360   14.2580   13.3540 C.3       1 ATP541      0.0000 
     22 N9         26.7190   14.6510   13.5910 N.pl3     1 ATP541      0.0000 
     23 C8         26.1960   15.9140   13.4280 C.2       1 ATP541      0.0000 
     24 N7         24.9240   16.0010   13.6980 N.2       1 ATP541      0.0000 
     25 C5         24.5650   14.7090   14.0760 C.ar      1 ATP541      0.0000 
     26 C6         23.3360   14.1390   14.4850 C.ar      1 ATP541      0.0000 
     27 N6         22.2150   14.8460   14.5740 N.pl3     1 ATP541      0.0000 
     28 N1         23.3230   12.8220   14.7880 N.ar      1 ATP541      0.0000 
     29 C2         24.4530   12.1210   14.6880 C.ar      1 ATP541      0.0000 
     30 N3         25.6680   12.5340   14.3210 N.ar      1 ATP541      0.0000 
     31 C4         25.6540   13.8680   14.0230 C.ar      1 ATP541      0.0000 
     32 H          27.8605   10.9410   13.7193 H         1 ATP541      0.0000 
     33 H          27.9879   10.6102   11.9832 H         1 ATP541      0.0000 
     34 H          29.8523   12.2056   11.8531 H         1 ATP541      0.0000 
     35 H          30.0647   11.9303   14.5437 H         1 ATP541      0.0000 
     36 H          28.1773   13.0939   15.1105 H         1 ATP541      0.0000 
     37 H          28.6923   15.0901   12.9633 H         1 ATP541      0.0000 
     38 H          26.7766   16.6780   13.1253 H         1 ATP541      0.0000 
     39 H          21.4056   14.3498   14.8882 H         1 ATP541      0.0000 
     40 H          22.2817   15.8106   14.3188 H         1 ATP541      0.0000 
     41 H          24.3725   11.0454   14.9454 H         1 ATP541      0.0000 
     42 H          31.6198   13.6026   14.3343 H         1 ATP541      0.0000 
     43 H          30.4553   14.6198   15.2129 H         1 ATP541      0.0000 
@<TRIPOS>BOND
     1    2    1 ar   
     2    3    1 ar   
     3    4    1 ar   
     4    8    1 1    
     5    6    5 ar   
     6    7    5 ar   
     7    8    5 1    
     8   12    5 1    
     9   10    9 ar   
    10   11    9 ar   
    11   12    9 1    
    12   13    9 1    
    13   14   13 1    
    14   15   14 1    
    15   32   14 1    
    16   33   14 1    
    17   16   15 1    
    18   17   15 1    
    19   34   15 1    
    20   21   16 1    
    21   18   17 1    
    22   19   17 1    
    23   35   17 1    
    24   42   18 1    
    25   20   19 1    
    26   21   19 1    
    27   36   19 1    
    28   43   20 1    
    29   22   21 1    
    30   37   21 1    
    31   23   22 1    
    32   31   22 1    
    33   24   23 2    
    34   38   23 1    
    35   25   24 1    
    36   26   25 ar   
    37   31   25 ar   
    38   27   26 1    
    39   28   26 ar   
    40   39   27 1    
    41   40   27 1    
    42   29   28 ar   
    43   30   29 ar   
    44   41   29 1    
    45   31   30 ar   
@<TRIPOS>SUBSTRUCTURE
     1 ATP541      1 GROUP   
@<TRIPOS>SET

