#    Name: 4KZU_1_CAVITY_N1_ALL.mol2
#    Modification time : Tue Mar 11 12:28:09 2014

@<TRIPOS>MOLECULE
4KZU_1_CAVITY_N1_ALL.mol2
   89     0     7     0     0
SMALL
NO_CHARGES


@<TRIPOS>ATOM
      1 OG         -5.0955   33.0041  -14.3901 O.2       1 SER1        0.0000 
      2 NZ         -3.6526   33.2112  -14.7438 N.2       4 LYS4        0.0000 
      3 CZ         -2.2097   33.4184  -15.0976 C.ar      5 PHE5        0.0000 
      4 NZ         -5.1754   31.8766  -15.3761 N.2       4 LYS4        0.0000 
      5 OG         -7.9040   40.3225   -8.8399 O.2       1 SER1        0.0000 
      6 N          -7.9839   39.1949   -9.8259 N.2       2 ALA2        0.0000 
      7 N          -6.5410   39.4020  -10.1797 N.2       2 ALA2        0.0000 
      8 N          -5.0981   39.6092  -10.5335 N.2       2 ALA2        0.0000 
      9 N          -8.0638   38.0674  -10.8120 N.2       2 ALA2        0.0000 
     10 N          -6.6209   38.2745  -11.1657 N.2       2 ALA2        0.0000 
     11 CA         -5.1780   38.4816  -11.5195 C.3       6 GLY6        0.0000 
     12 CZ         -6.7008   37.1469  -12.1518 C.ar      5 PHE5        0.0000 
     13 CA         -5.2579   37.3541  -12.5056 C.3       6 GLY6        0.0000 
     14 CZ         -6.7807   36.0194  -13.1378 C.ar      5 PHE5        0.0000 
     15 CA         -5.3378   36.2265  -13.4916 C.3       6 GLY6        0.0000 
     16 CZ         -5.4177   35.0990  -14.4776 C.ar      5 PHE5        0.0000 
     17 CZ         -3.9748   35.3061  -14.8314 C.ar      5 PHE5        0.0000 
     18 NZ         -5.4976   33.9714  -15.4636 N.2       4 LYS4        0.0000 
     19 NZ         -4.0547   34.1786  -15.8174 N.2       4 LYS4        0.0000 
     20 NZ         -2.6118   34.3857  -16.1712 N.2       4 LYS4        0.0000 
     21 O          -7.0230   39.2418  -12.2393 O.2       2 ALA2        0.0000 
     22 N          -7.1029   38.1143  -13.2254 N.2       2 ALA2        0.0000 
     23 CZ         -8.6257   36.7796  -13.8576 C.ar      5 PHE5        0.0000 
     24 CZ         -7.1828   36.9867  -14.2114 C.ar      5 PHE5        0.0000 
     25 CA         -5.7399   37.1939  -14.5652 C.3       6 GLY6        0.0000 
     26 CZ         -7.2627   35.8592  -15.1974 C.ar      5 PHE5        0.0000 
     27 CA         -5.8198   36.0663  -15.5512 C.3       6 GLY6        0.0000 
     28 CA         -4.3769   36.2734  -15.9050 C.3       6 GLY6        0.0000 
     29 CA         -5.8997   34.9388  -16.5372 C.3       6 GLY6        0.0000 
     30 NZ         -4.4568   35.1459  -16.8910 N.2       4 LYS4        0.0000 
     31 OG         -7.5849   37.9541  -15.2850 O.2       1 SER1        0.0000 
     32 N          -6.1420   38.1612  -15.6388 N.2       2 ALA2        0.0000 
     33 OG         -7.6648   36.8265  -16.2710 O.2       1 SER1        0.0000 
     34 O          -6.2219   37.0337  -16.6248 O.2       2 ALA2        0.0000 
     35 O          -9.1814   36.0388   -3.8380 O.2       2 ALA2        0.0000 
     36 CA         -7.7385   36.2460   -4.1918 C.3       6 GLY6        0.0000 
     37 CA         -4.8527   36.6602   -4.8993 C.3       6 GLY6        0.0000 
     38 O          -3.4098   36.8674   -5.2531 O.2       2 ALA2        0.0000 
     39 OG         -2.4463   30.3092  -11.5231 O.2       1 SER1        0.0000 
     40 OG         -3.9691   28.9745  -12.1553 O.2       1 SER1        0.0000 
     41 CA         -2.5262   29.1817  -12.5091 C.3       6 GLY6        0.0000 
     42 N          -5.0950   39.8827   -4.0009 N.2       2 ALA2        0.0000 
     43 CA         -9.5036   38.1337   -3.9256 C.3       6 GLY6        0.0000 
     44 CZ         -8.0607   38.3409   -4.2793 C.ar      5 PHE5        0.0000 
     45 CZ         -6.6178   38.5480   -4.6331 C.ar      5 PHE5        0.0000 
     46 N          -5.1749   38.7551   -4.9869 N.2       2 ALA2        0.0000 
     47 CA         -9.5835   37.0062   -4.9116 C.3       6 GLY6        0.0000 
     48 CA         -8.1406   37.2133   -5.2654 C.3       6 GLY6        0.0000 
     49 CA         -6.6977   37.4204   -5.6192 C.3       6 GLY6        0.0000 
     50 N          -5.2548   37.6276   -5.9729 N.2       2 ALA2        0.0000 
     51 CA         -5.3347   36.5000   -6.9590 C.3       6 GLY6        0.0000 
     52 CZ         -2.8484   31.2766  -12.5967 C.ar      5 PHE5        0.0000 
     53 O          -1.4055   31.4837  -12.9504 O.2       2 ALA2        0.0000 
     54 OG         -4.3712   29.9419  -13.2289 O.2       1 SER1        0.0000 
     55 CA         -2.9283   30.1490  -13.5827 C.3       6 GLY6        0.0000 
     56 CA         -1.4854   30.3561  -13.9365 C.3       6 GLY6        0.0000 
     57 CZ         -7.0199   39.5153   -5.7067 C.ar      5 PHE5        0.0000 
     58 N          -5.5770   39.7224   -6.0605 N.2       2 ALA2        0.0000 
     59 CA         -8.5427   38.1806   -6.3390 C.3       6 GLY6        0.0000 
     60 DU         -7.0998   38.3878   -6.6927 H         7 CUB7        0.0000 
     61 N          -5.6569   38.5949   -7.0465 N.2       2 ALA2        0.0000 
     62 CA         -8.6226   37.0531   -7.3250 C.3       6 GLY6        0.0000 
     63 CA         -7.1797   37.2602   -7.6788 C.3       6 GLY6        0.0000 
     64 CA         -5.7368   37.4674   -8.0325 C.3       6 GLY6        0.0000 
     65 CZ         -7.2596   36.1327   -8.6648 C.ar      5 PHE5        0.0000 
     66 CZ         -5.8167   36.3398   -9.0186 C.ar      5 PHE5        0.0000 
     67 CZ         -3.1706   33.3714  -12.6842 C.ar      5 PHE5        0.0000 
     68 OG         -3.2505   32.2439  -13.6703 O.2       1 SER1        0.0000 
     69 CZ         -1.8076   32.4510  -14.0240 C.ar      5 PHE5        0.0000 
     70 OG         -4.7733   30.9092  -14.3025 O.2       1 SER1        0.0000 
     71 NZ         -3.3304   31.1163  -14.6563 N.2       4 LYS4        0.0000 
     72 NZ         -1.8875   31.3235  -15.0101 N.2       4 LYS4        0.0000 
     73 CZ         -0.4446   31.5306  -15.3638 C.ar      5 PHE5        0.0000 
     74 OD1        -4.8532   29.7817  -15.2885 O.3       3 ASP3        0.0000 
     75 CA         -8.9448   39.1480   -7.4125 C.3       6 GLY6        0.0000 
     76 OG         -7.5019   39.3551   -7.7663 O.2       1 SER1        0.0000 
     77 N          -6.0590   39.5622   -8.1201 N.2       2 ALA2        0.0000 
     78 CA         -9.0247   38.0204   -8.3986 C.3       6 GLY6        0.0000 
     79 DU         -7.5818   38.2276   -8.7524 H         7 CUB7        0.0000 
     80 N          -6.1389   38.4347   -9.1061 N.2       2 ALA2        0.0000 
     81 CA         -4.6960   38.6418   -9.4599 C.3       6 GLY6        0.0000 
     82 CZ         -7.6617   37.1000   -9.7384 C.ar      5 PHE5        0.0000 
     83 CA         -6.2188   37.3072  -10.0922 C.3       6 GLY6        0.0000 
     84 CA         -4.7759   37.5143  -10.4459 C.3       6 GLY6        0.0000 
     85 CZ         -6.2987   36.1796  -11.0782 C.ar      5 PHE5        0.0000 
     86 CZ         -4.8558   36.3867  -11.4320 C.ar      5 PHE5        0.0000 
     87 CZ         -4.9357   35.2592  -12.4180 C.ar      5 PHE5        0.0000 
     88 OG         -5.0156   34.1316  -13.4040 O.2       1 SER1        0.0000 
     89 CZ         -3.5727   34.3388  -13.7578 C.ar      5 PHE5        0.0000 
@<TRIPOS>BOND
@<TRIPOS>SUBSTRUCTURE
     1 SER1        1 GROUP   
     2 ALA2        6 GROUP   
     3 ASP3       74 GROUP   
     4 LYS4        2 GROUP   
     5 PHE5        3 GROUP   
     6 GLY6       11 GROUP   
     7 CUB7       60 GROUP   
@<TRIPOS>SET

