#    Name: 4kzu_A73_1_INTS_M
#    Modification time : Mon Apr  7 23:36:12 2014

@<TRIPOS>MOLECULE
4kzu_A73_1_INTS_M
   55     0     6     0     0
SMALL
NO_CHARGES


@<TRIPOS>ATOM
      1 CA         -9.7635   39.0905  -13.2055 C.3       2 GLC5        0.0000 
      2 CA         -7.7340   38.1610  -12.9490 C.3       6 GLL5        0.0000 
      3 CA        -11.7930   40.0200  -13.4620 C.3       4 GLP5        0.0000 
      4 CA         -9.0100   37.0785  -12.1260 C.3       2 GLC5        0.0000 
      5 CA        -10.2860   35.9960  -11.3030 C.3       4 GLP5        0.0000 
      6 N          -9.5435   39.3840  -14.7155 N.am      1 SEC2        0.0000 
      7 N          -8.4190   38.4630  -15.0510 N.am      5 SEL2        0.0000 
      8 N         -10.6680   40.3050  -14.3800 N.am      3 SEP2        0.0000 
      9 N          -9.0905   38.4775  -16.2555 N.am      1 SEC2        0.0000 
     10 N          -9.7620   38.4920  -17.4600 N.am      3 SEP2        0.0000 
     11 CA         -5.6715   38.2130  -16.8215 C.3       2 GLC5        0.0000 
     12 CA         -6.5940   36.5230  -16.0290 C.3       6 GLL5        0.0000 
     13 CA         -4.7490   39.9030  -17.6140 C.3       4 GLP5        0.0000 
     14 CA         -8.8010   36.5905  -16.2370 C.3       2 GLC5        0.0000 
     15 CA        -11.0080   36.6580  -16.4450 C.3       4 GLP5        0.0000 
     16 CA         -4.8005   34.6380  -18.0790 C.3       2 GLC5        0.0000 
     17 CA         -5.7040   35.4880  -16.3930 C.3       6 GLL5        0.0000 
     18 CA         -3.8970   33.7880  -19.7650 C.3       4 GLP5        0.0000 
     19 CA         -6.4810   33.5735  -16.1685 C.3       2 GLC5        0.0000 
     20 CA         -4.9710   34.7660  -15.4320 C.3       6 GLL5        0.0000 
     21 CA         -7.9910   32.3810  -16.9050 C.3       4 GLP5        0.0000 
     22 CA         -5.0440   37.6540  -12.9315 C.3       2 GLC5        0.0000 
     23 CA         -6.9120   37.4980  -12.0370 C.3       6 GLL5        0.0000 
     24 CA         -3.1760   37.8100  -13.8260 C.3       4 GLP5        0.0000 
     25 CA         -8.0895   36.2195  -11.8350 C.3       2 GLC5        0.0000 
     26 CA         -9.2670   34.9410  -11.6330 C.3       4 GLP5        0.0000 
     27 CA         -7.5055   39.8590   -5.1445 C.3       2 GLC5        0.0000 
     28 CA         -6.9600   38.2160   -5.9560 C.3       6 GLL5        0.0000 
     29 CA         -8.0510   41.5020   -4.3330 C.3       4 GLP5        0.0000 
     30 CA         -6.6395   36.2835   -5.6095 C.3       2 GLC5        0.0000 
     31 CA         -6.3190   34.3510   -5.2630 C.3       4 GLP5        0.0000 
     32 CA         -9.5350   39.2005   -7.8265 C.3       2 GLC5        0.0000 
     33 CA         -7.6110   38.9340   -8.6860 C.3       6 GLL5        0.0000 
     34 CA        -11.4590   39.4670   -6.9670 C.3       4 GLP5        0.0000 
     35 CA         -6.9730   39.7873  -12.4660 C.3       2 GLC5        0.0000 
     36 CA         -6.6230   41.7450  -12.4390 C.3       4 GLP5        0.0000 
     37 CA         -4.9287   37.2493  -14.5968 C.3       2 GLC5        0.0000 
     38 CA         -6.7690   36.8540  -14.7060 C.3       6 GLL5        0.0000 
     39 CA         -6.7375   36.3182  -17.9610 C.3       2 GLC5        0.0000 
     40 CA         -7.3260   36.6310  -19.7110 C.3       4 GLP5        0.0000 
     41 CA         -7.1335   34.7388  -17.0890 C.3       2 GLC5        0.0000 
     42 CA         -8.1180   33.4720  -17.9670 C.3       4 GLP5        0.0000 
     43 CA         -4.2568   36.4685  -14.8693 C.3       2 GLC5        0.0000 
     44 CA         -4.3855   36.7107  -13.8720 C.3       2 GLC5        0.0000 
     45 CA         -5.1610   35.0940  -14.0880 C.3       6 GLL5        0.0000 
     46 CA         -4.4910   36.7690   -9.1457 C.3       2 GLC5        0.0000 
     47 CA         -6.2480   36.7750   -9.8480 C.3       6 GLL5        0.0000 
     48 CA         -2.7350   36.6830   -9.1280 C.3       4 GLP5        0.0000 
     49 CA         -6.9425   35.7807   -7.2907 C.3       2 GLC5        0.0000 
     50 CA         -6.2460   36.9350   -8.4790 C.3       6 GLL5        0.0000 
     51 CA         -7.2950   34.0870   -6.3940 C.3       4 GLP5        0.0000 
     52 CA         -9.0317   40.3460   -9.5068 C.3       2 GLC5        0.0000 
     53 CA        -10.4520   41.8410   -9.6430 C.3       4 GLP5        0.0000 
     54 CA         -8.6934   36.9986  -10.7279 C.3       2 GLC5        0.0000 
     55 CA         -7.6120   38.7680  -10.0550 C.3       6 GLL5        0.0000 
@<TRIPOS>BOND
@<TRIPOS>SUBSTRUCTURE
     1 SEC2        6 GROUP        1 X    SEC  0     ROOT SEC X 2
     2 GLC5        1 GROUP        1 X    GLC  0     **** GLC X 6
     3 SEP2        8 GROUP        1 Y    SEP  0     ROOT SEP Y 9
     4 GLP5        3 GROUP        1 Y    GLP  0     **** GLP Y 13
     5 SEL2        7 GROUP        1 Z    SEL  0     ROOT SEL Z 16
     6 GLL5        2 GROUP        1 Z    GLL  0     **** GLL Z 20
@<TRIPOS>SET

