#    Name: 4kzu_A73_1_ligand
#    Modification time : Mon Apr  7 23:36:12 2014

@<TRIPOS>MOLECULE
4kzu_A73_1_ligand
   27    29     1     0     0
SMALL
NO_CHARGES


@<TRIPOS>ATOM
      1 CAB        -7.7340   38.1610  -12.9490 C.2       1 A731201     0.0000 
      2 CAD        -7.6420   37.8740  -14.2980 C.2       1 A731201     0.0000 
      3 OAH        -8.4190   38.4630  -15.0510 O.2       1 A731201     0.0000 
      4 CAE        -6.7690   36.8540  -14.7060 C.ar      1 A731201     0.0000 
      5 CAO        -6.5940   36.5230  -16.0290 C.ar      1 A731201     0.0000 
      6 CAQ        -5.7040   35.4880  -16.3930 C.ar      1 A731201     0.0000 
      7 CAR        -4.9710   34.7660  -15.4320 C.ar      1 A731201     0.0000 
      8 CAP        -5.1610   35.0940  -14.0880 C.ar      1 A731201     0.0000 
      9 CAF        -6.0290   36.1290  -13.7480 C.ar      1 A731201     0.0000 
     10 OAC        -6.1370   36.4590  -12.4280 O.3       1 A731201     0.0000 
     11 CAA        -6.9120   37.4980  -12.0370 C.2       1 A731201     0.0000 
     12 CAG        -6.9310   37.6940  -10.6530 C.ar      1 A731201     0.0000 
     13 CAI        -6.2480   36.7750   -9.8480 C.ar      1 A731201     0.0000 
     14 CAM        -6.2460   36.9350   -8.4790 C.ar      1 A731201     0.0000 
     15 CAK        -6.9340   38.0140   -7.8960 C.ar      1 A731201     0.0000 
     16 BR1        -6.9600   38.2160   -5.9560 Br        1 A731201     0.0000 
     17 CAL        -7.6110   38.9340   -8.6860 C.ar      1 A731201     0.0000 
     18 CAJ        -7.6120   38.7680  -10.0550 C.ar      1 A731201     0.0000 
     19 H          -8.4067   38.8625  -12.6115 H         1 A731201     0.0000 
     20 H          -7.1059   37.0215  -16.7700 H         1 A731201     0.0000 
     21 H          -5.5890   35.2555  -17.3949 H         1 A731201     0.0000 
     22 H          -4.3315   34.0373  -15.7103 H         1 A731201     0.0000 
     23 H          -4.6642   34.5756  -13.3576 H         1 A731201     0.0000 
     24 H          -5.7534   35.9881  -10.2847 H         1 A731201     0.0000 
     25 H          -5.7453   36.2724   -7.8734 H         1 A731201     0.0000 
     26 H          -8.1008   39.7224   -8.2540 H         1 A731201     0.0000 
     27 H          -8.1178   39.4373  -10.6602 H         1 A731201     0.0000 
@<TRIPOS>BOND
     1    2    1 1    
     2   11    1 2    
     3   19    1 1    
     4    3    2 2    
     5    4    2 1    
     6    5    4 ar   
     7    9    4 ar   
     8    6    5 ar   
     9   20    5 1    
    10    7    6 ar   
    11   21    6 1    
    12    8    7 ar   
    13   22    7 1    
    14    9    8 ar   
    15   23    8 1    
    16   10    9 1    
    17   11   10 1    
    18   12   11 1    
    19   13   12 ar   
    20   18   12 ar   
    21   14   13 ar   
    22   24   13 1    
    23   15   14 ar   
    24   25   14 1    
    25   16   15 1    
    26   17   15 ar   
    27   18   17 ar   
    28   26   17 1    
    29   27   18 1    
@<TRIPOS>SUBSTRUCTURE
     1 A731201     1 GROUP   
@<TRIPOS>SET

