#    Name: 1nbh_SAM_2_INTS_M
#    Modification time : Mon Mar 24 17:54:36 2014

@<TRIPOS>MOLECULE
1nbh_SAM_2_INTS_M
   70     0    12     0     0
SMALL
NO_CHARGES


@<TRIPOS>ATOM
      1 O          60.1195  119.5045  104.2115 O.2       1 ALC1        0.0000 
      2 O          59.8430  121.0630  104.0230 O.2       9 ALL1        0.0000 
      3 O          60.3960  117.9460  104.4000 O.2       5 ALP1        0.0000 
      4 CA         57.5430  119.3705  104.2720 C.3       4 GLC5        0.0000 
      5 CA         58.3930  121.4130  103.9180 C.3      12 GLL5        0.0000 
      6 CA         56.6930  117.3280  104.6260 C.3       8 GLP5        0.0000 
      7 NZ         58.7575  124.3675  101.9215 N.4       3 LYC4        0.0000 
      8 NZ         59.2660  123.1940  102.6490 N.4      11 LYL4        0.0000 
      9 NZ         59.1180  125.2320  100.2450 N.4       7 LYP4        0.0000 
     10 N          58.7575  124.3675  101.9215 N.am      2 SEC2        0.0000 
     11 N          59.2660  123.1940  102.6490 N.am     10 SEL2        0.0000 
     12 N          58.2490  125.5410  101.1940 N.am      6 SEP2        0.0000 
     13 N          59.7350  123.8640  101.5950 N.am      2 SEC2        0.0000 
     14 N          60.2040  124.5340  100.5410 N.am      6 SEP2        0.0000 
     15 N          55.8785  122.9925  103.7995 N.am      2 SEC2        0.0000 
     16 N          57.0300  123.0450  102.9120 N.am     10 SEL2        0.0000 
     17 N          54.7270  122.9400  104.6870 N.am      6 SEP2        0.0000 
     18 CA         57.5230  120.8330  110.1160 C.3       4 GLC5        0.0000 
     19 CA         59.2680  120.6090  109.0440 C.3      12 GLL5        0.0000 
     20 CA         55.7780  121.0570  111.1880 C.3       8 GLP5        0.0000 
     21 CA         59.7720  121.4070  110.6840 C.3       4 GLC5        0.0000 
     22 CA         60.2760  122.2050  112.3240 C.3       8 GLP5        0.0000 
     23 O          57.7025  116.8650  107.8880 O.2       1 ALC1        0.0000 
     24 O          57.0930  118.1280  108.4260 O.2       9 ALL1        0.0000 
     25 O          58.3120  115.6020  107.3500 O.2       5 ALP1        0.0000 
     26 CA         56.4590  116.0460  110.5510 C.3       4 GLC5        0.0000 
     27 CA         58.2640  117.3620  110.4230 C.3      12 GLL5        0.0000 
     28 CA         54.6540  114.7300  110.6790 C.3       8 GLP5        0.0000 
     29 N          56.9890  114.5810  110.5085 N.am      2 SEC2        0.0000 
     30 N          57.5660  116.1380  110.3230 N.am     10 SEL2        0.0000 
     31 N          56.4120  113.0240  110.6940 N.am      6 SEP2        0.0000 
     32 O          57.9390  115.8700  108.8365 O.2       1 ALC1        0.0000 
     33 O          57.5660  116.1380  110.3230 O.2       9 ALL1        0.0000 
     34 O          57.3950  115.1725  109.4815 O.2       1 ALC1        0.0000 
     35 O          57.2240  114.2070  108.6400 O.2       5 ALP1        0.0000 
     36 CA         61.8670  117.2655  110.1430 C.3       4 GLC5        0.0000 
     37 CA         59.7910  117.2720  110.2140 C.3      12 GLL5        0.0000 
     38 CA         63.9430  117.2590  110.0720 C.3       8 GLP5        0.0000 
     39 CA         62.8645  112.4855  112.7970 C.3       4 GLC5        0.0000 
     40 CA         62.5470  114.5190  113.1210 C.3      12 GLL5        0.0000 
     41 CA         63.1820  110.4520  112.4730 C.3       8 GLP5        0.0000 
     42 CA         64.6370  114.1380  112.7435 C.3       4 GLC5        0.0000 
     43 CA         66.7270  113.7570  112.3660 C.3       8 GLP5        0.0000 
     44 O          63.5730  113.0760  114.6715 O.2       1 ALC1        0.0000 
     45 O          63.1110  114.3790  114.3420 O.2       9 ALL1        0.0000 
     46 O          64.0350  111.7730  115.0010 O.2       5 ALP1        0.0000 
     47 N          63.9365  112.7290  112.2310 N.am      2 SEC2        0.0000 
     48 N          62.7680  113.5420  112.1690 N.am     10 SEL2        0.0000 
     49 N          65.1050  111.9160  112.2930 N.am      6 SEP2        0.0000 
     50 CA         60.8660  113.0835  109.2535 C.3       4 GLC5        0.0000 
     51 CA         62.1990  113.6980  110.9490 C.3      12 GLL5        0.0000 
     52 CA         59.5330  112.4690  107.5580 C.3       8 GLP5        0.0000 
     53 CA         60.6790  113.0985  111.6535 C.3       4 GLC5        0.0000 
     54 CA         59.1590  112.4990  112.3580 C.3       8 GLP5        0.0000 
     55 CA         62.6905  112.0750  111.7110 C.3       4 GLC5        0.0000 
     56 N          60.2085  113.5990  110.2330 N.am      2 SEC2        0.0000 
     57 N          61.4210  114.7180  110.5230 N.am     10 SEL2        0.0000 
     58 N          58.9960  112.4800  109.9430 N.am      6 SEP2        0.0000 
     59 CA         56.8050  122.7567  106.3310 C.3       4 GLC5        0.0000 
     60 CA         58.6450  121.1340  106.3710 C.3      12 GLL5        0.0000 
     61 CA         55.3780  124.0870  106.8270 C.3       8 GLP5        0.0000 
     62 CA         57.0293  121.6908  109.6860 C.3       4 GLC5        0.0000 
     63 CA         58.1050  121.4560  108.0460 C.3      12 GLL5        0.0000 
     64 CA         56.8293  123.2057  107.5055 C.3       4 GLC5        0.0000 
     65 CA         60.9728  120.3017  108.7248 C.3       4 GLC5        0.0000 
     66 CA         62.7220  120.7500  108.4350 C.3       8 GLP5        0.0000 
     67 CA         57.2788  119.1021  110.9850 C.3       4 GLC5        0.0000 
     68 CA         56.1610  120.1090  112.1200 C.3       8 GLP5        0.0000 
     69 CA         60.4246  113.9371  112.2905 C.3       4 GLC5        0.0000 
     70 CA         61.7460  115.6440  112.7830 C.3      12 GLL5        0.0000 
@<TRIPOS>BOND
@<TRIPOS>SUBSTRUCTURE
     1 ALC1        1 GROUP        1 X    ALC  0     ROOT ALC X 1
     2 SEC2       10 GROUP        1 X    SEC  0     **** SEC X 2
     3 LYC4        7 GROUP        1 X    LYC  0     **** LYC X 4
     4 GLC5        4 GROUP        1 X    GLC  0     **** GLC X 6
     5 ALP1        3 GROUP        1 Y    ALP  0     ROOT ALP Y 8
     6 SEP2       12 GROUP        1 Y    SEP  0     **** SEP Y 9
     7 LYP4        9 GROUP        1 Y    LYP  0     **** LYP Y 11
     8 GLP5        6 GROUP        1 Y    GLP  0     **** GLP Y 13
     9 ALL1        2 GROUP        1 Z    ALL  0     ROOT ALL Z 15
    10 SEL2       11 GROUP        1 Z    SEL  0     **** SEL Z 16
    11 LYL4        8 GROUP        1 Z    LYL  0     **** LYL Z 18
    12 GLL5        5 GROUP        1 Z    GLL  0     **** GLL Z 20
@<TRIPOS>SET

