#    Name: 1nbh_SAM_2_ligand
#    Modification time : Mon Mar 24 17:54:36 2014

@<TRIPOS>MOLECULE
1nbh_SAM_2_ligand
   50    52     1     0     0
SMALL
NO_CHARGES


@<TRIPOS>ATOM
      1 N          59.8430  121.0630  104.0230 N.4       1 SAM1293     0.0000 
      2 CA         58.3930  121.4130  103.9180 C.3       1 SAM1293     0.0000 
      3 C          58.2410  122.6530  103.0850 C.2       1 SAM1293     0.0000 
      4 O          59.2660  123.1940  102.6490 O.co2     1 SAM1293     0.0000 
      5 OXT        57.0300  123.0450  102.9120 O.co2     1 SAM1293     0.0000 
      6 CB         57.8190  121.7190  105.2990 C.3       1 SAM1293     0.0000 
      7 CG         58.6450  121.1340  106.3710 C.3       1 SAM1293     0.0000 
      8 SD         58.1050  121.4560  108.0460 S.3       1 SAM1293     0.0000 
      9 CE         58.4560  123.1930  108.3220 C.3       1 SAM1293     0.0000 
     10 C5'        59.2680  120.6090  109.0440 C.3       1 SAM1293     0.0000 
     11 C4'        59.1790  119.0980  108.9850 C.3       1 SAM1293     0.0000 
     12 O4'        60.2000  118.5550  109.8470 O.3       1 SAM1293     0.0000 
     13 C3'        57.8790  118.5590  109.5690 C.3       1 SAM1293     0.0000 
     14 O3'        57.0930  118.1280  108.4260 O.3       1 SAM1293     0.0000 
     15 C2'        58.2640  117.3620  110.4230 C.3       1 SAM1293     0.0000 
     16 O2'        57.5660  116.1380  110.3230 O.3       1 SAM1293     0.0000 
     17 C1'        59.7910  117.2720  110.2140 C.3       1 SAM1293     0.0000 
     18 N9         60.5080  116.8400  111.4100 N.pl3     1 SAM1293     0.0000 
     19 C8         60.6190  117.4400  112.6430 C.2       1 SAM1293     0.0000 
     20 N7         61.3530  116.7690  113.4940 N.2       1 SAM1293     0.0000 
     21 C5         61.7460  115.6440  112.7830 C.ar      1 SAM1293     0.0000 
     22 C6         62.5470  114.5190  113.1210 C.ar      1 SAM1293     0.0000 
     23 N6         63.1110  114.3790  114.3420 N.pl3     1 SAM1293     0.0000 
     24 N1         62.7680  113.5420  112.1690 N.ar      1 SAM1293     0.0000 
     25 C2         62.1990  113.6980  110.9490 C.ar      1 SAM1293     0.0000 
     26 N3         61.4210  114.7180  110.5230 N.ar      1 SAM1293     0.0000 
     27 C4         61.2340  115.6690  111.4940 C.ar      1 SAM1293     0.0000 
     28 H          57.8440  120.6176  103.4799 H         1 SAM1293     0.0000 
     29 H          56.7958  121.3227  105.3438 H         1 SAM1293     0.0000 
     30 H          57.7575  122.8094  105.4141 H         1 SAM1293     0.0000 
     31 H          59.6777  121.5055  106.3920 H         1 SAM1293     0.0000 
     32 H          58.6863  120.0373  106.3546 H         1 SAM1293     0.0000 
     33 H          59.0788  121.0013  110.0417 H         1 SAM1293     0.0000 
     34 H          60.2265  120.9864  108.6917 H         1 SAM1293     0.0000 
     35 H          59.2944  118.7500  107.9981 H         1 SAM1293     0.0000 
     36 H          57.4185  119.2912  110.1341 H         1 SAM1293     0.0000 
     37 H          58.1985  117.7671  111.5006 H         1 SAM1293     0.0000 
     38 H          59.9536  116.5735  109.4006 H         1 SAM1293     0.0000 
     39 H          60.1647  118.3138  112.8381 H         1 SAM1293     0.0000 
     40 H          63.6858  113.5710  114.4711 H         1 SAM1293     0.0000 
     41 H          62.9032  115.0959  115.0075 H         1 SAM1293     0.0000 
     42 H          62.3933  112.9025  110.2228 H         1 SAM1293     0.0000 
     43 H          60.2731  121.4959  104.8152 H         1 SAM1293     0.0000 
     44 H          59.9813  120.0770  104.1167 H         1 SAM1293     0.0000 
     45 H          60.3550  121.3553  103.2153 H         1 SAM1293     0.0000 
     46 H          59.4304  123.3952  108.2237 H         1 SAM1293     0.0000 
     47 H          57.9684  123.7780  107.6739 H         1 SAM1293     0.0000 
     48 H          58.1872  123.4849  109.2399 H         1 SAM1293     0.0000 
     49 H          57.5588  117.3115  108.0848 H         1 SAM1293     0.0000 
     50 H          57.6864  115.8484  109.3734 H         1 SAM1293     0.0000 
@<TRIPOS>BOND
     1    2    1 1    
     2   43    1 1    
     3   44    1 1    
     4   45    1 1    
     5    3    2 1    
     6    6    2 1    
     7   28    2 1    
     8    4    3 ar   
     9    5    3 ar   
    10    7    6 1    
    11   29    6 1    
    12   30    6 1    
    13    8    7 1    
    14   31    7 1    
    15   32    7 1    
    16    9    8 1    
    17   10    8 1    
    18   46    9 1    
    19   47    9 1    
    20   48    9 1    
    21   11   10 1    
    22   33   10 1    
    23   34   10 1    
    24   12   11 1    
    25   13   11 1    
    26   35   11 1    
    27   17   12 1    
    28   14   13 1    
    29   15   13 1    
    30   36   13 1    
    31   49   14 1    
    32   16   15 1    
    33   17   15 1    
    34   37   15 1    
    35   50   16 1    
    36   18   17 1    
    37   38   17 1    
    38   19   18 1    
    39   27   18 1    
    40   20   19 2    
    41   39   19 1    
    42   21   20 1    
    43   22   21 ar   
    44   27   21 ar   
    45   23   22 1    
    46   24   22 ar   
    47   40   23 1    
    48   41   23 1    
    49   25   24 ar   
    50   26   25 ar   
    51   42   25 1    
    52   27   26 ar   
@<TRIPOS>SUBSTRUCTURE
     1 SAM1293     1 GROUP   
@<TRIPOS>SET

