#    Name: 4hc4_SAH_1_INTS_M
#    Modification time : Tue Mar 25 00:49:13 2014

@<TRIPOS>MOLECULE
4hc4_SAH_1_INTS_M
   80     0    12     0     0
SMALL
NO_CHARGES


@<TRIPOS>ATOM
      1 O          20.3840   58.8295    3.8360 O.2       1 ALC1        0.0000 
      2 O          20.3110   58.8760    5.2720 O.2       9 ALL1        0.0000 
      3 O          20.4570   58.7830    2.4000 O.2       5 ALP1        0.0000 
      4 O          20.7860   60.1290    5.6825 O.2       1 ALC1        0.0000 
      5 O          21.2610   61.3820    6.0930 O.2       5 ALP1        0.0000 
      6 CA         19.8885   60.2560    4.0925 C.3       4 GLC5        0.0000 
      7 CA         18.8550   58.9650    5.6080 C.3      12 GLL5        0.0000 
      8 CA         20.9220   61.5470    2.5770 C.3       8 GLP5        0.0000 
      9 CA         16.1050   57.2915    5.0570 C.3       4 GLC5        0.0000 
     10 CA         18.0050   58.1940    4.5700 C.3      12 GLL5        0.0000 
     11 CA         14.2050   56.3890    5.5440 C.3       8 GLP5        0.0000 
     12 NZ         18.4885   57.3895    8.8365 N.4       3 LYC4        0.0000 
     13 NZ         19.5050   57.7030    7.5030 N.4      11 LYL4        0.0000 
     14 NZ         17.7740   55.8100    9.8860 N.4       7 LYP4        0.0000 
     15 N          18.9815   56.6130    8.1390 N.am      2 SEC2        0.0000 
     16 N          19.5050   57.7030    7.5030 N.am     10 SEL2        0.0000 
     17 N          18.4580   55.5230    8.7750 N.am      6 SEP2        0.0000 
     18 N          18.4885   57.3895    8.8365 N.am      2 SEC2        0.0000 
     19 N          17.4720   57.0760   10.1700 N.am      6 SEP2        0.0000 
     20 NZ         17.5755   57.9285    8.9375 N.4       3 LYC4        0.0000 
     21 NZ         17.6790   58.7810    7.7050 N.4      11 LYL4        0.0000 
     22 N          17.5755   57.9285    8.9375 N.am      2 SEC2        0.0000 
     23 N          17.6790   58.7810    7.7050 N.am     10 SEL2        0.0000 
     24 CA         19.5315   57.8885    0.5425 C.3       4 GLC5        0.0000 
     25 CA         17.8180   57.1190    0.9300 C.3      12 GLL5        0.0000 
     26 CA         21.2450   58.6580    0.1550 C.3       8 GLP5        0.0000 
     27 N          14.6140   58.7930    0.2600 N.am      2 SEC2        0.0000 
     28 N          16.0270   58.6300    0.6350 N.am     10 SEL2        0.0000 
     29 N          13.2010   58.9560   -0.1150 N.am      6 SEP2        0.0000 
     30 O          16.9675   59.5390    0.2155 O.2       1 ALC1        0.0000 
     31 O          16.0270   58.6300    0.6350 O.2       9 ALL1        0.0000 
     32 O          17.9080   60.4480   -0.2040 O.2       5 ALP1        0.0000 
     33 O          16.2520   59.5650   -0.6150 O.2       1 ALC1        0.0000 
     34 O          16.4770   60.5000   -1.8650 O.2       5 ALP1        0.0000 
     35 N          14.5030   58.4580   -1.0370 N.am      2 SEC2        0.0000 
     36 N          15.8050   57.9600   -1.9590 N.am     10 SEL2        0.0000 
     37 O          16.1410   59.2300   -1.9120 O.2       1 ALC1        0.0000 
     38 O          15.8050   57.9600   -1.9590 O.2       9 ALL1        0.0000 
     39 CA         19.6375   58.0495   -0.6160 C.3       4 GLC5        0.0000 
     40 CA         18.0300   57.4410   -1.3870 C.3      12 GLL5        0.0000 
     41 CA         19.7215   56.1995   -1.0515 C.3       4 GLC5        0.0000 
     42 CA         21.4130   54.9580   -0.7160 C.3       8 GLP5        0.0000 
     43 CA         21.3625   58.0130   -6.5455 C.3       4 GLC5        0.0000 
     44 CA         21.1480   56.6130   -5.1410 C.3      12 GLL5        0.0000 
     45 CA         21.5770   59.4130   -7.9500 C.3       8 GLP5        0.0000 
     46 CA         23.3335   56.7075   -5.2480 C.3       4 GLC5        0.0000 
     47 CA         25.5190   56.8020   -5.3550 C.3       8 GLP5        0.0000 
     48 O          22.5430   55.7400   -7.1300 O.2       1 ALC1        0.0000 
     49 O          21.5870   55.7160   -6.0500 O.2       9 ALL1        0.0000 
     50 O          23.4990   55.7640   -8.2100 O.2       5 ALP1        0.0000 
     51 N          22.6355   58.4080   -5.8730 N.am      2 SEC2        0.0000 
     52 N          21.6730   57.8530   -5.0600 N.am     10 SEL2        0.0000 
     53 N          23.5980   58.9630   -6.6860 N.am      6 SEP2        0.0000 
     54 CA         21.2455   58.7070   -2.0030 C.3       4 GLC5        0.0000 
     55 CA         21.2460   58.7560   -4.1610 C.3      12 GLL5        0.0000 
     56 CA         22.5960   60.4090   -4.2170 C.3       4 GLC5        0.0000 
     57 CA         23.9460   62.0620   -4.2730 C.3       8 GLP5        0.0000 
     58 CA         20.5025   60.4635   -3.2890 C.3       4 GLC5        0.0000 
     59 CA         19.7590   62.1710   -2.4170 C.3       8 GLP5        0.0000 
     60 CA         19.7090   59.0630   -5.0650 C.3       4 GLC5        0.0000 
     61 CA         18.1720   59.3700   -5.9690 C.3       8 GLP5        0.0000 
     62 CA         21.4115   59.0845   -6.0555 C.3       4 GLC5        0.0000 
     63 CA         23.3155   58.5295   -4.6250 C.3       4 GLC5        0.0000 
     64 CA         25.3850   58.3030   -5.0890 C.3       8 GLP5        0.0000 
     65 N          19.4290   59.7370   -3.7200 N.am      2 SEC2        0.0000 
     66 N          20.2760   58.4890   -3.2740 N.am     10 SEL2        0.0000 
     67 N          18.5820   60.9850   -4.1660 N.am      6 SEP2        0.0000 
     68 CA         20.4575   57.9705   -1.5410 C.3       4 GLC5        0.0000 
     69 CA         19.6700   57.2830   -3.2370 C.3      12 GLL5        0.0000 
     70 CA         17.7845   59.9922    3.9915 C.3       4 GLC5        0.0000 
     71 CA         17.1390   61.4050    2.8940 C.3       8 GLP5        0.0000 
     72 CA         16.4920   55.7537    5.0823 C.3       4 GLC5        0.0000 
     73 CA         18.2420   56.6800    4.4680 C.3      12 GLL5        0.0000 
     74 CA         15.3270   55.1900    6.2650 C.3       8 GLP5        0.0000 
     75 CA         19.0217   55.2685    0.7480 C.3       4 GLC5        0.0000 
     76 CA         18.0150   55.8990    1.8340 C.3      12 GLL5        0.0000 
     77 CA         20.1270   54.0280    0.1140 C.3       8 GLP5        0.0000 
     78 CA         20.6442   55.8628   -2.2142 C.3       4 GLC5        0.0000 
     79 CA         20.0810   56.2520   -4.1880 C.3      12 GLL5        0.0000 
     80 CA         19.1571   58.1139   -4.9599 C.3       4 GLC5        0.0000 
@<TRIPOS>BOND
@<TRIPOS>SUBSTRUCTURE
     1 ALC1        1 GROUP        1 X    ALC  0     ROOT ALC X 1
     2 SEC2       15 GROUP        1 X    SEC  0     **** SEC X 2
     3 LYC4       12 GROUP        1 X    LYC  0     **** LYC X 4
     4 GLC5        6 GROUP        1 X    GLC  0     **** GLC X 6
     5 ALP1        3 GROUP        1 Y    ALP  0     ROOT ALP Y 8
     6 SEP2       17 GROUP        1 Y    SEP  0     **** SEP Y 9
     7 LYP4       14 GROUP        1 Y    LYP  0     **** LYP Y 11
     8 GLP5        8 GROUP        1 Y    GLP  0     **** GLP Y 13
     9 ALL1        2 GROUP        1 Z    ALL  0     ROOT ALL Z 15
    10 SEL2       16 GROUP        1 Z    SEL  0     **** SEL Z 16
    11 LYL4       13 GROUP        1 Z    LYL  0     **** LYL Z 18
    12 GLL5        7 GROUP        1 Z    GLL  0     **** GLL Z 20
@<TRIPOS>SET

