#    Name: 4hc4_SAH_1_ligand
#    Modification time : Tue Mar 25 00:49:13 2014

@<TRIPOS>MOLECULE
4hc4_SAH_1_ligand
   46    48     1     0     0
SMALL
NO_CHARGES


@<TRIPOS>ATOM
      1 N          20.3110   58.8760    5.2720 N.4       1 SAH401      0.0000 
      2 CA         18.8550   58.9650    5.6080 C.3       1 SAH401      0.0000 
      3 CB         18.0050   58.1940    4.5700 C.3       1 SAH401      0.0000 
      4 CG         18.2420   56.6800    4.4680 C.3       1 SAH401      0.0000 
      5 SD         17.0720   55.9550    3.3310 S.3       1 SAH401      0.0000 
      6 C          18.6610   58.4630    7.0140 C.2       1 SAH401      0.0000 
      7 O          19.5050   57.7030    7.5030 O.co2     1 SAH401      0.0000 
      8 OXT        17.6790   58.7810    7.7050 O.co2     1 SAH401      0.0000 
      9 C5'        18.0150   55.8990    1.8340 C.3       1 SAH401      0.0000 
     10 C4'        17.8180   57.1190    0.9300 C.3       1 SAH401      0.0000 
     11 O4'        18.6820   56.9880   -0.2010 O.3       1 SAH401      0.0000 
     12 C3'        16.4170   57.2800    0.3460 C.3       1 SAH401      0.0000 
     13 O3'        16.0270   58.6300    0.6350 O.3       1 SAH401      0.0000 
     14 C2'        16.5800   57.0690   -1.1600 C.3       1 SAH401      0.0000 
     15 O2'        15.8050   57.9600   -1.9590 O.3       1 SAH401      0.0000 
     16 C1'        18.0300   57.4410   -1.3870 C.3       1 SAH401      0.0000 
     17 N9         18.6960   56.7500   -2.5100 N.pl3     1 SAH401      0.0000 
     18 C8         18.4920   55.4820   -2.9130 C.2       1 SAH401      0.0000 
     19 N7         19.3270   55.1700   -3.9430 N.2       1 SAH401      0.0000 
     20 C5         20.0810   56.2520   -4.1880 C.ar      1 SAH401      0.0000 
     21 C6         21.1480   56.6130   -5.1410 C.ar      1 SAH401      0.0000 
     22 N6         21.5870   55.7160   -6.0500 N.pl3     1 SAH401      0.0000 
     23 N1         21.6730   57.8530   -5.0600 N.ar      1 SAH401      0.0000 
     24 C2         21.2460   58.7560   -4.1610 C.ar      1 SAH401      0.0000 
     25 N3         20.2760   58.4890   -3.2740 N.ar      1 SAH401      0.0000 
     26 C4         19.6700   57.2830   -3.2370 C.ar      1 SAH401      0.0000 
     27 H          18.5599   60.0143    5.5703 H         1 SAH401      0.0000 
     28 H          18.1782   58.6500    3.5704 H         1 SAH401      0.0000 
     29 H          16.9310   58.3721    4.7981 H         1 SAH401      0.0000 
     30 H          18.0490   56.1659    5.3765 H         1 SAH401      0.0000 
     31 H          19.1818   56.4332    4.0403 H         1 SAH401      0.0000 
     32 H          17.6901   54.9793    1.3689 H         1 SAH401      0.0000 
     33 H          19.0326   55.8000    2.1839 H         1 SAH401      0.0000 
     34 H          18.0670   58.0123    1.4772 H         1 SAH401      0.0000 
     35 H          15.7913   56.5601    0.7508 H         1 SAH401      0.0000 
     36 H          16.4607   56.0563   -1.3909 H         1 SAH401      0.0000 
     37 H          18.1190   58.4950   -1.4687 H         1 SAH401      0.0000 
     38 H          17.8397   54.8655   -2.5273 H         1 SAH401      0.0000 
     39 H          22.3089   56.0312   -6.6661 H         1 SAH401      0.0000 
     40 H          21.1512   54.8163   -6.0263 H         1 SAH401      0.0000 
     41 H          21.6948   59.7183   -4.1535 H         1 SAH401      0.0000 
     42 H          20.7442   58.0853    5.7045 H         1 SAH401      0.0000 
     43 H          20.4602   58.7897    4.2870 H         1 SAH401      0.0000 
     44 H          20.8122   59.6868    5.5745 H         1 SAH401      0.0000 
     45 H          16.7591   59.1972    0.2577 H         1 SAH401      0.0000 
     46 H          16.1867   58.8667   -1.7797 H         1 SAH401      0.0000 
@<TRIPOS>BOND
     1    2    1 1    
     2   42    1 1    
     3   43    1 1    
     4   44    1 1    
     5    3    2 1    
     6    6    2 1    
     7   27    2 1    
     8    4    3 1    
     9   28    3 1    
    10   29    3 1    
    11    5    4 1    
    12   30    4 1    
    13   31    4 1    
    14    9    5 1    
    15    7    6 ar   
    16    8    6 ar   
    17   10    9 1    
    18   32    9 1    
    19   33    9 1    
    20   11   10 1    
    21   12   10 1    
    22   34   10 1    
    23   16   11 1    
    24   13   12 1    
    25   14   12 1    
    26   35   12 1    
    27   45   13 1    
    28   15   14 1    
    29   16   14 1    
    30   36   14 1    
    31   46   15 1    
    32   17   16 1    
    33   37   16 1    
    34   18   17 1    
    35   26   17 1    
    36   19   18 2    
    37   38   18 1    
    38   20   19 1    
    39   21   20 ar   
    40   26   20 ar   
    41   22   21 1    
    42   23   21 ar   
    43   39   22 1    
    44   40   22 1    
    45   24   23 ar   
    46   25   24 ar   
    47   41   24 1    
    48   26   25 ar   
@<TRIPOS>SUBSTRUCTURE
     1 SAH401      1 GROUP   
@<TRIPOS>SET

