#    Name: 4g1z_0VP_1_INTS_M
#    Modification time : Mon Mar 24 21:13:09 2014

@<TRIPOS>MOLECULE
4g1z_0VP_1_INTS_M
  131     0     9     0     0
SMALL
NO_CHARGES


@<TRIPOS>ATOM
      1 N           4.2240   27.8555   34.8675 N.am      2 SEC2        0.0000 
      2 N           5.2530   28.6680   34.2170 N.am      8 SEL2        0.0000 
      3 N           3.1950   27.0430   35.5180 N.am      5 SEP2        0.0000 
      4 N           5.9555   28.6060   35.3135 N.am      2 SEC2        0.0000 
      5 N           6.6580   28.5440   36.4100 N.am      5 SEP2        0.0000 
      6 CA         -1.4885   37.6000   40.0870 C.3       3 GLC5        0.0000 
      7 CA         -0.3810   36.9370   38.6510 C.3       9 GLL5        0.0000 
      8 CA         -2.5960   38.2630   41.5230 C.3       6 GLP5        0.0000 
      9 CA          4.9085   29.4470   36.4835 C.3       3 GLC5        0.0000 
     10 CA          3.8560   30.8300   35.4760 C.3       9 GLL5        0.0000 
     11 CA          5.9610   28.0640   37.4910 C.3       6 GLP5        0.0000 
     12 CA          3.5535   32.3370   34.0970 C.3       3 GLC5        0.0000 
     13 CA          3.4270   30.2560   34.1750 C.3       9 GLL5        0.0000 
     14 CA          3.6800   34.4180   34.0190 C.3       6 GLP5        0.0000 
     15 CA          2.0975   34.1350   35.3550 C.3       3 GLC5        0.0000 
     16 CA          0.5150   33.8520   36.6910 C.3       9 GLL5        0.0000 
     17 CA         -0.9375   32.2585   35.1460 C.3       3 GLC5        0.0000 
     18 CA          0.5650   32.3670   36.7660 C.3       9 GLL5        0.0000 
     19 CA         -2.4400   32.1500   33.5260 C.3       6 GLP5        0.0000 
     20 CA         -3.2085   33.1505   38.0080 C.3       3 GLC5        0.0000 
     21 CA         -1.2980   33.8580   38.4980 C.3       9 GLL5        0.0000 
     22 CA         -5.1190   32.4430   37.5180 C.3       6 GLP5        0.0000 
     23 CA          4.6250   29.6115   38.1700 C.3       3 GLC5        0.0000 
     24 CA          3.2890   31.1590   38.8490 C.3       9 GLL5        0.0000 
     25 CA          4.5745   32.5325   41.4625 C.3       3 GLC5        0.0000 
     26 CA          3.9350   31.7310   40.1050 C.3       9 GLL5        0.0000 
     27 CA          5.2140   33.3340   42.8200 C.3       6 GLP5        0.0000 
     28 CA          1.9985   31.2795   41.0690 C.3       3 GLC5        0.0000 
     29 CA          0.0620   30.8280   42.0330 C.3       6 GLP5        0.0000 
     30 CA          6.2910   28.2155   33.0395 C.3       3 GLC5        0.0000 
     31 CA          4.4960   29.5040   33.3270 C.3       9 GLL5        0.0000 
     32 CA          8.0860   26.9270   32.7520 C.3       6 GLP5        0.0000 
     33 CA          5.8300   32.4770   33.2750 C.3       3 GLC5        0.0000 
     34 CA          5.4860   30.4920   32.5540 C.3       9 GLL5        0.0000 
     35 CA          6.1740   34.4620   33.9960 C.3       6 GLP5        0.0000 
     36 CA          7.0435   29.0365   32.0920 C.3       3 GLC5        0.0000 
     37 CA          8.6010   27.5810   31.6300 C.3       6 GLP5        0.0000 
     38 CA          7.1910   31.0645   33.4700 C.3       3 GLC5        0.0000 
     39 CA          8.8960   31.6370   34.3860 C.3       6 GLP5        0.0000 
     40 CA         -1.5735   29.1055   34.8120 C.3       3 GLC5        0.0000 
     41 CA         -1.1180   29.2700   36.8430 C.3       9 GLL5        0.0000 
     42 CA         -2.0290   28.9410   32.7810 C.3       6 GLP5        0.0000 
     43 CA          6.3745   27.2925   32.0870 C.3       3 GLC5        0.0000 
     44 CA          4.6630   27.6580   31.4220 C.3       9 GLL5        0.0000 
     45 CA          5.0205   28.3850   29.7685 C.3       3 GLC5        0.0000 
     46 CA          5.3780   29.1120   28.1150 C.3       6 GLP5        0.0000 
     47 CA          3.8960   32.5195   30.4440 C.3       3 GLC5        0.0000 
     48 CA          4.8600   31.4930   31.5420 C.3       9 GLL5        0.0000 
     49 CA          2.9320   33.5460   29.3460 C.3       6 GLP5        0.0000 
     50 CA          4.8875   33.1925   32.4010 C.3       3 GLC5        0.0000 
     51 CA          4.9150   34.8920   33.2600 C.3       6 GLP5        0.0000 
     52 CA          5.1190   30.3025   29.8285 C.3       3 GLC5        0.0000 
     53 CA          1.5555   39.5985   35.7565 C.3       3 GLC5        0.0000 
     54 CA          2.2050   39.1200   37.7030 C.3       9 GLL5        0.0000 
     55 CA          0.9060   40.0770   33.8100 C.3       6 GLP5        0.0000 
     56 CA          4.1395   39.3235   36.6345 C.3       3 GLC5        0.0000 
     57 CA          6.0740   39.5270   35.5660 C.3       6 GLP5        0.0000 
     58 CA          3.8300   37.9210   38.1700 C.3       3 GLC5        0.0000 
     59 CA          5.4550   36.7220   38.6370 C.3       6 GLP5        0.0000 
     60 CA          0.4790   39.0945   39.9755 C.3       3 GLC5        0.0000 
     61 CA         -0.6190   39.6490   38.4100 C.3       9 GLL5        0.0000 
     62 CA          1.5770   38.5400   41.5410 C.3       6 GLP5        0.0000 
     63 CA         -2.6130   38.9905   39.1620 C.3       3 GLC5        0.0000 
     64 CA         -4.6070   38.3320   39.9140 C.3       6 GLP5        0.0000 
     65 CA          0.7255   43.8220   39.9755 C.3       3 GLC5        0.0000 
     66 CA         -0.0040   42.0600   39.1690 C.3       9 GLL5        0.0000 
     67 CA          1.4550   45.5840   40.7820 C.3       6 GLP5        0.0000 
     68 CA         -0.8680   43.5750   38.6305 C.3       3 GLC5        0.0000 
     69 CA         -1.7320   45.0900   38.0920 C.3       6 GLP5        0.0000 
     70 CA         -1.4295   42.4400   40.2425 C.3       3 GLC5        0.0000 
     71 CA         -2.8550   42.8200   41.3160 C.3       6 GLP5        0.0000 
     72 N          -1.2095   41.8015   40.7640 N.am      2 SEC2        0.0000 
     73 N           0.2760   42.1390   40.5890 N.am      8 SEL2        0.0000 
     74 N          -2.6950   41.4640   40.9390 N.am      5 SEP2        0.0000 
     75 O           0.3100   43.4755   40.8285 O.2       1 ALC1        0.0000 
     76 O           0.2760   42.1390   40.5890 O.2       7 ALL1        0.0000 
     77 O           0.3440   44.8120   41.0680 O.2       4 ALP1        0.0000 
     78 CA          2.8840   43.1760   39.5215 C.3       3 GLC5        0.0000 
     79 CA          3.0600   41.3700   38.3550 C.3       9 GLL5        0.0000 
     80 CA          2.7080   44.9820   40.6880 C.3       6 GLP5        0.0000 
     81 CA          4.3765   41.2420   39.6335 C.3       3 GLC5        0.0000 
     82 CA          5.6930   41.1140   40.9120 C.3       6 GLP5        0.0000 
     83 CA          2.3760   40.6545   40.2455 C.3       3 GLC5        0.0000 
     84 CA          1.6920   39.9390   42.1360 C.3       6 GLP5        0.0000 
     85 N           4.9930   42.0260   38.1090 N.am      2 SEC2        0.0000 
     86 N           4.3100   40.7800   37.9110 N.am      8 SEL2        0.0000 
     87 N           5.6760   43.2720   38.3070 N.am      5 SEP2        0.0000 
     88 O           4.4990   40.2195   36.6235 O.2       1 ALC1        0.0000 
     89 O           4.3100   40.7800   37.9110 O.2       7 ALL1        0.0000 
     90 O           4.6880   39.6590   35.3360 O.2       4 ALP1        0.0000 
     91 CA         -0.1260   30.4300   39.9535 C.3       3 GLC5        0.0000 
     92 CA         -0.3140   30.0320   37.8740 C.3       9 GLL5        0.0000 
     93 CA          0.3675   31.9420   33.0718 C.3       3 GLC5        0.0000 
     94 CA          1.0390   31.1470   34.6230 C.3       9 GLL5        0.0000 
     95 CA         -0.7640   33.0870   31.9490 C.3       6 GLP5        0.0000 
     96 CA         -0.2650   29.8690   33.4877 C.3       3 GLC5        0.0000 
     97 CA          1.6655   28.9540   34.9378 C.3       3 GLC5        0.0000 
     98 CA          1.8320   27.1110   35.6810 C.3       6 GLP5        0.0000 
     99 CA          2.7367   28.8270   35.2532 C.3       3 GLC5        0.0000 
    100 CA          3.6006   33.0201   35.4069 C.3       3 GLC5        0.0000 
    101 CA          2.9790   31.5330   36.3510 C.3       9 GLL5        0.0000 
    102 CA         -2.5027   31.1230   38.1502 C.3       3 GLC5        0.0000 
    103 CA         -0.3340   31.6370   37.7300 C.3       9 GLL5        0.0000 
    104 CA         -4.2130   30.2200   38.1490 C.3       6 GLP5        0.0000 
    105 CA         -0.3652   31.4270   40.0922 C.3       3 GLC5        0.0000 
    106 CA         -1.2510   32.4150   38.5730 C.3       9 GLL5        0.0000 
    107 CA          5.4895   31.5005   39.6759 C.3       3 GLC5        0.0000 
    108 CA          7.2830   31.3300   40.1680 C.3       6 GLP5        0.0000 
    109 CA          2.9800   28.0558   34.2532 C.3       3 GLC5        0.0000 
    110 CA          6.9045   31.2058   31.0600 C.3       3 GLC5        0.0000 
    111 CA          8.6360   31.4190   30.0720 C.3       6 GLP5        0.0000 
    112 CA          2.7702   28.3768   30.4375 C.3       3 GLC5        0.0000 
    113 CA          1.3290   28.6760   29.0020 C.3       6 GLP5        0.0000 
    114 CA          3.4752   26.2452   31.7340 C.3       3 GLC5        0.0000 
    115 CA          3.7600   28.4970   32.3240 C.3       9 GLL5        0.0000 
    116 CA          2.7390   24.4130   31.5950 C.3       6 GLP5        0.0000 
    117 CA         -2.4645   29.9355   37.7537 C.3       3 GLC5        0.0000 
    118 CA          0.5580   28.3810   36.5198 C.3       3 GLC5        0.0000 
    119 CA         -1.6765   29.0080   38.7908 C.3       3 GLC5        0.0000 
    120 CA         -2.6370   28.3650   40.2230 C.3       6 GLP5        0.0000 
    121 CA          1.8110   39.1525   39.7527 C.3       3 GLC5        0.0000 
    122 CA          0.9505   40.6653   40.5120 C.3       3 GLC5        0.0000 
    123 CA          0.4220   40.7230   38.6070 C.3       9 GLL5        0.0000 
    124 CA         -0.1565   38.4189   36.0909 C.3       3 GLC5        0.0000 
    125 CA          1.2380   38.1470   37.5250 C.3       9 GLL5        0.0000 
    126 CA         -0.7260   38.2670   34.3530 C.3       6 GLP5        0.0000 
    127 CA          1.0248   38.2164   39.7150 C.3       3 GLC5        0.0000 
    128 CA         -1.8581   41.5265   38.0854 C.3       3 GLC5        0.0000 
    129 CA         -3.6650   41.9300   37.3320 C.3       6 GLP5        0.0000 
    130 CA          2.5883   32.8323   34.5354 C.3       3 GLC5        0.0000 
    131 CA          1.4940   31.6960   35.9090 C.3       9 GLL5        0.0000 
@<TRIPOS>BOND
@<TRIPOS>SUBSTRUCTURE
     1 ALC1       75 GROUP        1 X    ALC  0     ROOT ALC X 1
     2 SEC2        1 GROUP        1 X    SEC  0     **** SEC X 2
     3 GLC5        6 GROUP        1 X    GLC  0     **** GLC X 6
     4 ALP1       77 GROUP        1 Y    ALP  0     ROOT ALP Y 8
     5 SEP2        3 GROUP        1 Y    SEP  0     **** SEP Y 9
     6 GLP5        8 GROUP        1 Y    GLP  0     **** GLP Y 13
     7 ALL1       76 GROUP        1 Z    ALL  0     ROOT ALL Z 15
     8 SEL2        2 GROUP        1 Z    SEL  0     **** SEL Z 16
     9 GLL5        7 GROUP        1 Z    GLL  0     **** GLL Z 20
@<TRIPOS>SET

