#    Name: 4g1z_0VP_1_ligand
#    Modification time : Mon Mar 24 21:13:09 2014

@<TRIPOS>MOLECULE
4g1z_0VP_1_ligand
   75    77     1     0     0
SMALL
NO_CHARGES


@<TRIPOS>ATOM
      1 O1         -0.3730   35.9630   37.4440 O.3       1 0VP501      0.0000 
      2 O2          5.2530   28.6680   34.2170 O.3       1 0VP501      0.0000 
      3 C9          1.0390   31.1470   34.6230 C.ar      1 0VP501      0.0000 
      4 C10        -0.3810   36.9370   38.6510 C.3       1 0VP501      0.0000 
      5 C11         2.9790   31.5330   36.3510 C.ar      1 0VP501      0.0000 
      6 C12         3.8560   30.8300   35.4760 C.ar      1 0VP501      0.0000 
      7 C13         1.9590   30.4470   33.7660 C.ar      1 0VP501      0.0000 
      8 C14        -0.4380   34.5830   37.5830 C.ar      1 0VP501      0.0000 
      9 C15         3.6250   32.0630   37.6760 C.3       1 0VP501      0.0000 
     10 C16         3.4270   30.2560   34.1750 C.ar      1 0VP501      0.0000 
     11 C17         0.5150   33.8520   36.6910 C.ar      1 0VP501      0.0000 
     12 C18         0.5650   32.3670   36.7660 C.ar      1 0VP501      0.0000 
     13 C19        -0.3340   31.6370   37.7300 C.ar      1 0VP501      0.0000 
     14 C20        -1.2510   32.4150   38.5730 C.ar      1 0VP501      0.0000 
     15 C21        -1.2980   33.8580   38.4980 C.ar      1 0VP501      0.0000 
     16 C22         3.2890   31.1590   38.8490 C.3       1 0VP501      0.0000 
     17 C23         3.9350   31.7310   40.1050 C.3       1 0VP501      0.0000 
     18 C24         4.4960   29.5040   33.3270 C.3       1 0VP501      0.0000 
     19 C25         5.4860   30.4920   32.5540 C.3       1 0VP501      0.0000 
     20 C26         3.7600   28.4970   32.3240 C.3       1 0VP501      0.0000 
     21 C27        -1.1180   29.2700   36.8430 C.3       1 0VP501      0.0000 
     22 C28         4.6630   27.6580   31.4220 C.3       1 0VP501      0.0000 
     23 C29         4.8600   31.4930   31.5420 C.3       1 0VP501      0.0000 
     24 C1          2.2050   39.1200   37.7030 C.ar      1 0VP501      0.0000 
     25 C2          1.8850   40.4100   38.2260 C.ar      1 0VP501      0.0000 
     26 C3          0.4220   40.7230   38.6070 C.ar      1 0VP501      0.0000 
     27 C4         -0.6190   39.6490   38.4100 C.ar      1 0VP501      0.0000 
     28 C5         -0.2050   38.3400   37.8550 C.ar      1 0VP501      0.0000 
     29 C6          1.2380   38.1470   37.5250 C.ar      1 0VP501      0.0000 
     30 C48        -0.0040   42.0600   39.1690 C.3       1 0VP501      0.0000 
     31 O49         0.2760   42.1390   40.5890 O.3       1 0VP501      0.0000 
     32 C52         3.0600   41.3700   38.3550 C.3       1 0VP501      0.0000 
     33 O53         4.3100   40.7800   37.9110 O.3       1 0VP501      0.0000 
     34 C8         -0.3140   30.0320   37.8740 C.3       1 0VP501      0.0000 
     35 C7          1.4940   31.6960   35.9090 C.ar      1 0VP501      0.0000 
     36 H           0.0744   31.2689   34.3525 H         1 0VP501      0.0000 
     37 H           0.4557   36.7995   39.2369 H         1 0VP501      0.0000 
     38 H          -1.3054   36.9465   39.1066 H         1 0VP501      0.0000 
     39 H           4.8463   30.6995   35.7376 H         1 0VP501      0.0000 
     40 H           1.6783   30.0636   32.8823 H         1 0VP501      0.0000 
     41 H           3.2488   33.0664   37.8586 H         1 0VP501      0.0000 
     42 H           4.7020   32.1056   37.5344 H         1 0VP501      0.0000 
     43 H           1.0953   34.3467   36.0687 H         1 0VP501      0.0000 
     44 H          -1.8600   31.9207   39.2181 H         1 0VP501      0.0000 
     45 H          -1.9406   34.3719   39.0927 H         1 0VP501      0.0000 
     46 H           3.6767   30.1667   38.6655 H         1 0VP501      0.0000 
     47 H           2.2169   31.1201   38.9821 H         1 0VP501      0.0000 
     48 H           6.2323   29.8646   32.0258 H         1 0VP501      0.0000 
     49 H           6.0503   31.0602   33.3209 H         1 0VP501      0.0000 
     50 H           3.0719   29.1030   31.7058 H         1 0VP501      0.0000 
     51 H           3.1259   27.8334   32.9408 H         1 0VP501      0.0000 
     52 H           3.1921   38.9269   37.4564 H         1 0VP501      0.0000 
     53 H          -1.5585   39.8282   38.6512 H         1 0VP501      0.0000 
     54 H           1.4865   37.2113   37.1414 H         1 0VP501      0.0000 
     55 H          -1.0787   42.1916   38.9737 H         1 0VP501      0.0000 
     56 H           0.5273   42.8519   38.6203 H         1 0VP501      0.0000 
     57 H           3.1284   41.6851   39.4120 H         1 0VP501      0.0000 
     58 H           2.8247   42.2775   37.7698 H         1 0VP501      0.0000 
     59 H          -0.6773   29.8030   38.8907 H         1 0VP501      0.0000 
     60 H           0.7458   29.7263   37.8376 H         1 0VP501      0.0000 
     61 H           4.9292   31.7918   40.0166 H         1 0VP501      0.0000 
     62 H           3.6019   32.6519   40.3075 H         1 0VP501      0.0000 
     63 H           3.7462   31.1676   40.9093 H         1 0VP501      0.0000 
     64 H          -0.7967   29.4510   35.9135 H         1 0VP501      0.0000 
     65 H          -1.0625   28.2817   36.9851 H         1 0VP501      0.0000 
     66 H          -2.0868   29.5163   36.8714 H         1 0VP501      0.0000 
     67 H           5.2350   28.2298   30.8339 H         1 0VP501      0.0000 
     68 H           5.2786   27.0747   31.9519 H         1 0VP501      0.0000 
     69 H           4.1342   27.0575   30.8222 H         1 0VP501      0.0000 
     70 H           5.5552   32.0663   31.1084 H         1 0VP501      0.0000 
     71 H           4.3695   31.0220   30.8088 H         1 0VP501      0.0000 
     72 H           4.2068   32.1080   31.9837 H         1 0VP501      0.0000 
     73 H           5.8227   28.0485   33.6767 H         1 0VP501      0.0000 
     74 H           0.2706   43.1165   40.7997 H         1 0VP501      0.0000 
     75 H           4.1238   40.4438   36.9878 H         1 0VP501      0.0000 
@<TRIPOS>BOND
     1    4    1 1    
     2    8    1 1    
     3   18    2 1    
     4   73    2 1    
     5    7    3 ar   
     6   35    3 ar   
     7   36    3 1    
     8   28    4 1    
     9   37    4 1    
    10   38    4 1    
    11    6    5 ar   
    12    9    5 1    
    13   35    5 ar   
    14   10    6 ar   
    15   39    6 1    
    16   10    7 ar   
    17   40    7 1    
    18   11    8 ar   
    19   15    8 ar   
    20   16    9 1    
    21   41    9 1    
    22   42    9 1    
    23   18   10 1    
    24   12   11 ar   
    25   43   11 1    
    26   13   12 ar   
    27   35   12 1    
    28   14   13 ar   
    29   34   13 1    
    30   15   14 ar   
    31   44   14 1    
    32   45   15 1    
    33   17   16 1    
    34   46   16 1    
    35   47   16 1    
    36   61   17 1    
    37   62   17 1    
    38   63   17 1    
    39   19   18 1    
    40   20   18 1    
    41   23   19 1    
    42   48   19 1    
    43   49   19 1    
    44   22   20 1    
    45   50   20 1    
    46   51   20 1    
    47   34   21 1    
    48   64   21 1    
    49   65   21 1    
    50   66   21 1    
    51   67   22 1    
    52   68   22 1    
    53   69   22 1    
    54   70   23 1    
    55   71   23 1    
    56   72   23 1    
    57   25   24 ar   
    58   29   24 ar   
    59   52   24 1    
    60   26   25 ar   
    61   32   25 1    
    62   27   26 ar   
    63   30   26 1    
    64   28   27 ar   
    65   53   27 1    
    66   29   28 ar   
    67   54   29 1    
    68   31   30 1    
    69   55   30 1    
    70   56   30 1    
    71   74   31 1    
    72   33   32 1    
    73   57   32 1    
    74   58   32 1    
    75   75   33 1    
    76   59   34 1    
    77   60   34 1    
@<TRIPOS>SUBSTRUCTURE
     1 0VP501      1 GROUP   
@<TRIPOS>SET

