#    Name: 1B32_1_CAVITY_N1_ALL.mol2
#    Modification time : Mon Mar 10 14:08:39 2014

@<TRIPOS>MOLECULE
1B32_1_CAVITY_N1_ALL.mol2
   63     0     5     0     0
SMALL
NO_CHARGES


@<TRIPOS>ATOM
      1 O          -2.2884   22.2164   15.9789 O.2       2 ALA2        0.0000 
      2 N          -3.3657   21.4969   15.2227 N.2       2 ALA2        0.0000 
      3 O          -0.4853   21.0812   17.4657 O.2       2 ALA2        0.0000 
      4 CZ         -1.2828   21.2097   15.5041 C.ar      4 PHE5        0.0000 
      5 O          -1.5626   20.3618   16.7094 O.2       2 ALA2        0.0000 
      6 OG         -2.0803   21.3382   13.5426 O.2       1 SER1        0.0000 
      7 OG         -2.3601   20.4903   14.7479 O.2       1 SER1        0.0000 
      8 OG         -2.6399   19.6423   15.9532 O.2       1 SER1        0.0000 
      9 N          -3.4374   19.7708   13.9917 N.2       2 ALA2        0.0000 
     10 N          -3.7171   18.9229   15.1970 N.2       2 ALA2        0.0000 
     11 CA          5.1091   23.8003   18.8105 C.3       5 GLY6        0.0000 
     12 O           4.8294   22.9524   20.0158 O.2       2 ALA2        0.0000 
     13 CA          4.0319   23.0809   18.0543 C.3       5 GLY6        0.0000 
     14 O           3.7521   22.2329   19.2595 O.2       2 ALA2        0.0000 
     15 CZ          3.2344   23.2094   16.0927 C.ar      4 PHE5        0.0000 
     16 CZ          2.9546   22.3614   17.2980 C.ar      4 PHE5        0.0000 
     17 N           2.6748   21.5135   18.5033 N.2       2 ALA2        0.0000 
     18 CZ          1.8773   21.6420   16.5418 C.ar      4 PHE5        0.0000 
     19 CZ          0.8000   20.9225   15.7856 C.ar      4 PHE5        0.0000 
     20 N           0.5203   20.0746   16.9909 N.2       2 ALA2        0.0000 
     21 CZ          0.0026   21.0510   13.8241 C.ar      4 PHE5        0.0000 
     22 CZ         -0.2772   20.2031   15.0294 C.ar      4 PHE5        0.0000 
     23 N          -0.5570   19.3551   16.2346 N.2       2 ALA2        0.0000 
     24 CA         -0.8368   18.5072   17.4399 C.3       5 GLY6        0.0000 
     25 OG         -1.3545   19.4836   14.2731 O.2       1 SER1        0.0000 
     26 OG         -1.6343   18.6357   15.4784 O.2       1 SER1        0.0000 
     27 OG         -2.4318   18.7642   13.5169 O.2       1 SER1        0.0000 
     28 CZ         -2.7116   17.9162   14.7222 C.ar      4 PHE5        0.0000 
     29 CZ         -3.7888   17.1968   13.9660 C.ar      4 PHE5        0.0000 
     30 OG          6.9122   22.6651   20.2972 O.2       1 SER1        0.0000 
     31 NZ          6.1147   22.7936   18.3357 N.2       3 LYS4        0.0000 
     32 O           5.8349   21.9457   19.5410 O.2       2 ALA2        0.0000 
     33 O           5.5552   21.0977   20.7462 O.2       2 ALA2        0.0000 
     34 CA          5.3172   22.9221   16.3742 C.3       5 GLY6        0.0000 
     35 CA          5.0375   22.0742   17.5795 C.3       5 GLY6        0.0000 
     36 CZ          4.7577   21.2262   18.7847 C.ar      4 PHE5        0.0000 
     37 CA          4.2400   22.2027   15.6180 C.3       5 GLY6        0.0000 
     38 N           3.9602   21.3547   16.8232 N.2       2 ALA2        0.0000 
     39 CZ          3.1627   21.4832   14.8617 C.ar      4 PHE5        0.0000 
     40 N           2.8829   20.6353   16.0670 N.2       2 ALA2        0.0000 
     41 O           2.0854   20.7638   14.1055 O.2       2 ALA2        0.0000 
     42 N           1.8056   19.9158   15.3108 N.2       2 ALA2        0.0000 
     43 CA          1.0081   20.0443   13.3493 C.3       5 GLY6        0.0000 
     44 CA          0.7284   19.1964   14.5546 C.3       5 GLY6        0.0000 
     45 N           0.4486   18.3484   15.7598 N.2       2 ALA2        0.0000 
     46 N           0.1688   17.5005   16.9651 N.2       2 ALA2        0.0000 
     47 CA         -0.3489   18.4769   13.7983 C.3       5 GLY6        0.0000 
     48 CA         -0.6287   17.6290   15.0036 C.3       5 GLY6        0.0000 
     49 CA         -0.9085   16.7810   16.2089 C.3       5 GLY6        0.0000 
     50 OG         -1.4262   17.7575   13.0421 O.2       1 SER1        0.0000 
     51 CA         -1.7060   16.9095   14.2474 C.3       5 GLY6        0.0000 
     52 CZ          6.0430   21.0675   17.1047 C.ar      4 PHE5        0.0000 
     53 N           4.9658   20.3481   16.3484 N.2       2 ALA2        0.0000 
     54 CZ          4.6860   19.5001   17.5537 C.ar      4 PHE5        0.0000 
     55 CA          4.1683   20.4766   14.3869 C.3       5 GLY6        0.0000 
     56 N           3.6087   18.7807   16.7975 N.2       2 ALA2        0.0000 
     57 CA          2.8112   18.9092   14.8360 C.3       5 GLY6        0.0000 
     58 N           2.5314   18.0612   16.0413 N.2       2 ALA2        0.0000 
     59 CA          1.4542   17.3418   15.2851 C.3       5 GLY6        0.0000 
     60 N           5.9714   19.3414   15.8737 N.2       2 ALA2        0.0000 
     61 N           4.8941   18.6220   15.1174 N.2       2 ALA2        0.0000 
     62 O           4.6143   17.7740   16.3227 O.2       2 ALA2        0.0000 
     63 CA          3.8168   17.9025   14.3612 C.3       5 GLY6        0.0000 
@<TRIPOS>BOND
@<TRIPOS>SUBSTRUCTURE
     1 SER1        6 GROUP   
     2 ALA2        1 GROUP   
     3 LYS4       31 GROUP   
     4 PHE5        4 GROUP   
     5 GLY6       11 GROUP   
@<TRIPOS>SET

