#    Name: 1b32_LYS_MET_LYS_1_INTS_M
#    Modification time : Mon Mar 24 19:15:55 2014

@<TRIPOS>MOLECULE
1b32_LYS_MET_LYS_1_INTS_M
   99     0    12     0     0
SMALL
NO_CHARGES


@<TRIPOS>ATOM
      1 OD1         7.6625   15.8505   14.3010 O.co2     3 ASC3        0.0000 
      2 OD1         6.9470   16.5650   15.2090 O.co2    11 ASL3        0.0000 
      3 OD1         8.3780   15.1360   13.3930 O.co2     7 ASP3        0.0000 
      4 OD1         8.4425   15.9085   15.0490 O.co2     3 ASC3        0.0000 
      5 OD1         9.9380   15.2520   14.8890 O.co2     7 ASP3        0.0000 
      6 O           6.2400   15.3900   15.4515 O.2       1 ALC1        0.0000 
      7 O           6.9470   16.5650   15.2090 O.2       9 ALL1        0.0000 
      8 O           5.5330   14.2150   15.6940 O.2       5 ALP1        0.0000 
      9 O           7.6625   15.8505   14.3010 O.2       1 ALC1        0.0000 
     10 O           8.3780   15.1360   13.3930 O.2       5 ALP1        0.0000 
     11 O           8.4425   15.9085   15.0490 O.2       1 ALC1        0.0000 
     12 O           9.9380   15.2520   14.8890 O.2       5 ALP1        0.0000 
     13 CA          8.5425   18.1815   14.5495 C.3       4 GLC5        0.0000 
     14 CA          6.4310   17.8370   14.5950 C.3      12 GLL5        0.0000 
     15 CA         10.6540   18.5260   14.5040 C.3       8 GLP5        0.0000 
     16 CA          7.5210   17.9595   16.1930 C.3       4 GLC5        0.0000 
     17 CA          8.6110   18.0820   17.7910 C.3       8 GLP5        0.0000 
     18 N           3.8735   16.3390   16.4505 N.am      2 SEC2        0.0000 
     19 N           4.4630   17.5300   15.9270 N.am     10 SEL2        0.0000 
     20 N           3.2840   15.1480   16.9740 N.am      6 SEP2        0.0000 
     21 CA          5.5195   19.7570   12.7025 C.3       4 GLC5        0.0000 
     22 CA          6.2090   17.7120   13.0770 C.3      12 GLL5        0.0000 
     23 CA          4.8300   21.8020   12.3280 C.3       8 GLP5        0.0000 
     24 CA          3.9300   15.4940   13.6740 C.3       4 GLC5        0.0000 
     25 CA          5.2150   16.6570   12.6240 C.3      12 GLL5        0.0000 
     26 CA          2.6450   14.3310   14.7240 C.3       8 GLP5        0.0000 
     27 CA          8.5385   15.7990   10.7565 C.3       4 GLC5        0.0000 
     28 CA          6.4140   15.8330   10.4910 C.3      12 GLL5        0.0000 
     29 CA         10.6630   15.7650   11.0220 C.3       8 GLP5        0.0000 
     30 OD1         7.5050   14.7845   12.1780 O.co2     3 ASC3        0.0000 
     31 OD1         6.6320   14.4330   10.9630 O.co2    11 ASL3        0.0000 
     32 O           5.1935   13.6355   11.4505 O.2       1 ALC1        0.0000 
     33 O           6.6320   14.4330   10.9630 O.2       9 ALL1        0.0000 
     34 O           3.7550   12.8380   11.9380 O.2       5 ALP1        0.0000 
     35 O           5.5300   14.0055   10.1475 O.2       1 ALC1        0.0000 
     36 O           4.4280   13.5780    9.3320 O.2       5 ALP1        0.0000 
     37 O           6.3365   13.3170   12.1595 O.2       1 ALC1        0.0000 
     38 O           6.0410   12.2010   13.3560 O.2       5 ALP1        0.0000 
     39 O           7.5050   14.7845   12.1780 O.2       1 ALC1        0.0000 
     40 O           6.0005   20.3155   14.6185 O.2       1 ALC1        0.0000 
     41 O           5.0540   19.6500   15.3890 O.2       9 ALL1        0.0000 
     42 O           6.9470   20.9810   13.8480 O.2       5 ALP1        0.0000 
     43 CA          5.1620   19.2305   17.4440 C.3       4 GLC5        0.0000 
     44 CA          3.9230   20.2920   16.0830 C.3      12 GLL5        0.0000 
     45 CA          6.4010   18.1690   18.8050 C.3       8 GLP5        0.0000 
     46 N           2.9035   20.3860   12.7185 N.am      2 SEC2        0.0000 
     47 N           2.5970   20.3970   14.1110 N.am     10 SEL2        0.0000 
     48 N           3.2100   20.3750   11.3260 N.am      6 SEP2        0.0000 
     49 CA          2.5875   22.6325   15.4975 C.3       4 GLC5        0.0000 
     50 CA          4.2400   21.8120   16.1170 C.3      12 GLL5        0.0000 
     51 CA          0.9350   23.4530   14.8780 C.3       8 GLP5        0.0000 
     52 CA          6.4690   20.4490   17.6235 C.3       4 GLC5        0.0000 
     53 CA          5.4510   22.0780   17.0350 C.3      12 GLL5        0.0000 
     54 CA          7.4870   18.8200   18.2120 C.3       8 GLP5        0.0000 
     55 CA          5.7045   19.9435   18.7775 C.3       4 GLC5        0.0000 
     56 CA          5.0080   21.7180   18.7500 C.3      12 GLL5        0.0000 
     57 CA          6.8170   24.0025   20.9560 C.3       4 GLC5        0.0000 
     58 CA          5.5970   23.1860   19.5800 C.3      12 GLL5        0.0000 
     59 CA          8.0370   24.8190   22.3320 C.3       8 GLP5        0.0000 
     60 O           1.7900   19.3555   17.4245 O.2       1 ALC1        0.0000 
     61 O           1.5540   19.7940   16.0470 O.2       9 ALL1        0.0000 
     62 O           2.0260   18.9170   18.8020 O.2       5 ALP1        0.0000 
     63 CA          0.5895   21.5765   15.1450 C.3       4 GLC5        0.0000 
     64 CA          0.2440   19.7000   15.4120 C.3      12 GLL5        0.0000 
     65 CA         -3.2715   18.7630   11.6250 C.3       4 GLC5        0.0000 
     66 CA         -3.3410   17.2780   13.1450 C.3      12 GLL5        0.0000 
     67 CA         -3.2020   20.2480   10.1050 C.3       8 GLP5        0.0000 
     68 O          -2.4940   18.5725   11.3580 O.2       1 ALC1        0.0000 
     69 O          -2.8640   16.9820   11.7550 O.2       9 ALL1        0.0000 
     70 O          -2.1240   20.1630   10.9610 O.2       5 ALP1        0.0000 
     71 O          -3.4885   16.8645   10.6640 O.2       1 ALC1        0.0000 
     72 O          -4.1130   16.7470    9.5730 O.2       5 ALP1        0.0000 
     73 O          -2.0185   15.7595   11.6575 O.2       1 ALC1        0.0000 
     74 O          -1.1730   14.5370   11.5600 O.2       5 ALP1        0.0000 
     75 N          -1.5035   21.8285   17.9155 N.am      2 SEC2        0.0000 
     76 N          -0.5490   20.9310   17.3190 N.am     10 SEL2        0.0000 
     77 N          -2.4580   22.7260   18.5120 N.am      6 SEP2        0.0000 
     78 N          -1.7265   20.7365   18.2610 N.am      2 SEC2        0.0000 
     79 N          -2.9040   20.5420   19.2030 N.am      6 SEP2        0.0000 
     80 CA          3.4810   17.2193   11.9155 C.3       4 GLC5        0.0000 
     81 CA          1.7560   17.8470   11.9760 C.3       8 GLP5        0.0000 
     82 CA          5.9277   17.4013    9.3328 C.3       4 GLC5        0.0000 
     83 CA          5.1970   16.5260   11.0860 C.3      12 GLL5        0.0000 
     84 CA          6.0500   18.6230    7.8770 C.3       8 GLP5        0.0000 
     85 CA          4.4558   21.4270   14.2140 C.3       4 GLC5        0.0000 
     86 CA          6.3357   23.0405   15.7210 C.3       4 GLC5        0.0000 
     87 CA          7.8260   24.1360   14.8660 C.3       8 GLP5        0.0000 
     88 CA          4.2008   23.7975   16.8955 C.3       4 GLC5        0.0000 
     89 CA          3.5560   25.6500   17.2150 C.3       8 GLP5        0.0000 
     90 CA          4.4292   24.0510   18.1900 C.3       4 GLC5        0.0000 
     91 CA          0.8625   18.4162   13.6730 C.3       4 GLC5        0.0000 
     92 CA          0.0087   17.7795   13.0448 C.3       4 GLC5        0.0000 
     93 CA         -2.1190   17.0690   14.0400 C.3      12 GLL5        0.0000 
     94 CA         -2.7345   15.2502   13.2407 C.3       4 GLC5        0.0000 
     95 CA         -2.7390   13.3270   12.8890 C.3       8 GLP5        0.0000 
     96 CA         -0.2898   16.2515   14.6199 C.3       4 GLC5        0.0000 
     97 CA          0.8960   14.8120   14.8410 C.3       8 GLP5        0.0000 
     98 CA         -3.6395   16.6217   15.2063 C.3       4 GLC5        0.0000 
     99 CA         -4.5490   16.0700   16.8200 C.3       8 GLP5        0.0000 
@<TRIPOS>BOND
@<TRIPOS>SUBSTRUCTURE
     1 ALC1        6 GROUP        1 X    ALC  0     ROOT ALC X 1
     2 SEC2       18 GROUP        1 X    SEC  0     **** SEC X 2
     3 ASC3        1 GROUP        1 X    ASC  0     **** ASC X 3
     4 GLC5       13 GROUP        1 X    GLC  0     **** GLC X 6
     5 ALP1        8 GROUP        1 Y    ALP  0     ROOT ALP Y 8
     6 SEP2       20 GROUP        1 Y    SEP  0     **** SEP Y 9
     7 ASP3        3 GROUP        1 Y    ASP  0     **** ASP Y 10
     8 GLP5       15 GROUP        1 Y    GLP  0     **** GLP Y 13
     9 ALL1        7 GROUP        1 Z    ALL  0     ROOT ALL Z 15
    10 SEL2       19 GROUP        1 Z    SEL  0     **** SEL Z 16
    11 ASL3        2 GROUP        1 Z    ASL  0     **** ASL Z 17
    12 GLL5       14 GROUP        1 Z    GLL  0     **** GLL Z 20
@<TRIPOS>SET

