#    Name: 1b32_LYS_MET_LYS_1_ligand
#    Modification time : Mon Mar 24 19:15:56 2014

@<TRIPOS>MOLECULE
1b32_LYS_MET_LYS_1_ligand
   65    64     3     0     0
SMALL
NO_CHARGES


@<TRIPOS>ATOM
      1 N           6.9470   16.5650   15.2090 N.4       1 LYS1        0.0000
      2 CA          6.4310   17.8370   14.5950 C.3       1 LYS1        0.0000
      3 C           5.2030   18.3330   15.3390 C.2       1 LYS1        0.0000
      4 O           4.4630   17.5300   15.9270 O.2       1 LYS1        0.0000
      5 CB          6.2090   17.7120   13.0770 C.3       1 LYS1        0.0000
      6 CG          5.2150   16.6570   12.6240 C.3       1 LYS1        0.0000
      7 CD          5.1970   16.5260   11.0860 C.3       1 LYS1        0.0000
      8 CE          6.4140   15.8330   10.4910 C.3       1 LYS1        0.0000
      9 NZ          6.6320   14.4330   10.9630 N.4       1 LYS1        0.0000
     10 HA          7.2259   18.6123   14.7373 H         1 LYS1        0.0000
     11 HB2         7.1934   17.5123   12.5970 H         1 LYS1        0.0000
     12 HB3         5.8857   18.7045   12.6900 H         1 LYS1        0.0000
     13 HG2         4.2143   16.9254   12.9634 H         1 LYS1        0.0000
     14 HG3         5.4829   15.6915   13.0537 H         1 LYS1        0.0000
     15 HD2         5.1061   17.5379   10.6516 H         1 LYS1        0.0000
     16 HD3         4.2853   15.9739   10.7945 H         1 LYS1        0.0000
     17 HE2         7.3123   16.4452   10.7189 H         1 LYS1        0.0000
     18 HE3         6.3154   15.8402    9.3847 H         1 LYS1        0.0000
     19 HNCA        7.7576   16.2247   14.7324 H         1 LYS1        0.0000
     20 H           7.2023   16.6922   16.1674 H         1 LYS1        0.0000
     21 H           6.2634   15.8356   15.1821 H         1 LYS1        0.0000
     22 HZ1         5.8577   13.8409   10.7396 H         1 LYS1        0.0000
     23 HZ2         7.4438   14.0231   10.5473 H         1 LYS1        0.0000
     24 HZ3         6.7570   14.3905   11.9543 H         1 LYS1        0.0000
     25 N           5.0540   19.6500   15.3890 N.am      2 MET2        0.0000
     26 CA          3.9230   20.2920   16.0830 C.3       2 MET2        0.0000
     27 C           2.6280   20.1380   15.3150 C.2       2 MET2        0.0000
     28 O           2.5970   20.3970   14.1110 O.2       2 MET2        0.0000
     29 CB          4.2400   21.8120   16.1170 C.3       2 MET2        0.0000
     30 CG          5.4510   22.0780   17.0350 C.3       2 MET2        0.0000
     31 SD          5.0080   21.7180   18.7500 S.3       2 MET2        0.0000
     32 CE          5.5970   23.1860   19.5800 C.3       2 MET2        0.0000
     33 HNCA        5.7284   20.3092   14.9402 H         2 MET2        0.0000
     34 HA          3.8184   19.9572   17.0697 H         2 MET2        0.0000
     35 HB2         3.3783   22.3422   16.4972 H         2 MET2        0.0000
     36 HB3         4.4694   22.1456   15.1149 H         2 MET2        0.0000
     37 HG2         5.7306   23.0979   17.0737 H         2 MET2        0.0000
     38 HG3         6.2617   21.4211   16.8589 H         2 MET2        0.0000
     39 HE1         6.5960   23.2198   19.6106 H         2 MET2        0.0000
     40 HE2         5.2894   24.0202   19.1222 H         2 MET2        0.0000
     41 HE3         5.2730   23.2337   20.5249 H         2 MET2        0.0000
     42 N           1.5540   19.7940   16.0470 N.am      3 LYS3        0.0000
     43 CA          0.2440   19.7000   15.4120 C.3       3 LYS3        0.0000
     44 C          -0.7890   20.5490   16.1700 C.2       3 LYS3        0.0000
     45 O          -1.7780   20.9220   15.4780 O.2       3 LYS3        0.0000
     46 CB         -0.3060   18.2710   15.3280 C.3       3 LYS3        0.0000
     47 CG         -1.3580   18.3550   14.1870 C.3       3 LYS3        0.0000
     48 CD         -2.1190   17.0690   14.0400 C.3       3 LYS3        0.0000
     49 CE         -3.3410   17.2780   13.1450 C.3       3 LYS3        0.0000
     50 NZ         -2.8640   16.9820   11.7550 N.4       3 LYS3        0.0000
     51 OXT        -0.5490   20.9310   17.3190 O.3       3 LYS3        0.0000
     52 HNCA        1.6020   19.5888   17.0495 H         3 LYS3        0.0000
     53 HA          0.2811   20.0957   14.3926 H         3 LYS3        0.0000
     54 HB2        -0.7908   18.0156   16.2300 H         3 LYS3        0.0000
     55 HB3         0.4610   17.6034   15.0454 H         3 LYS3        0.0000
     56 HG2        -0.8340   18.5920   13.2583 H         3 LYS3        0.0000
     57 HG3        -2.0426   19.1750   14.4156 H         3 LYS3        0.0000
     58 HD2        -2.4528   16.7206   15.0162 H         3 LYS3        0.0000
     59 HD3        -1.4810   16.3082   13.5930 H         3 LYS3        0.0000
     60 HE2        -3.6638   18.2940   13.2210 H         3 LYS3        0.0000
     61 HE3        -4.1087   16.5916   13.4309 H         3 LYS3        0.0000
     62 HZ1        -2.1206   17.5915   11.4798 H         3 LYS3        0.0000
     63 HZ2        -2.5219   16.0461   11.6712 H         3 LYS3        0.0000
     64 HZ3        -3.5950   17.0884   11.0810 H         3 LYS3        0.0000
     65 H           0.4200   20.7293   17.4616 H         3 LYS3        0.0000
@<TRIPOS>BOND
     1    2    1 1
     2   19    1 1
     3   20    1 1
     4   21    1 1
     5    3    2 1
     6    5    2 1
     7   10    2 1
     8    4    3 2
     9    6    5 1
    10   11    5 1
    11   12    5 1
    12    7    6 1
    13   13    6 1
    14   14    6 1
    15    8    7 1
    16   15    7 1
    17   16    7 1
    18    9    8 1
    19   17    8 1
    20   18    8 1
    21   22    9 1
    22   23    9 1
    23   24    9 1
    24   26   25 1
    25   33   25 1
    26   27   26 1
    27   29   26 1
    28   34   26 1
    29   28   27 2
    30   30   29 1
    31   35   29 1
    32   36   29 1
    33   31   30 1
    34   37   30 1
    35   38   30 1
    36   32   31 1
    37   39   32 1
    38   40   32 1
    39   41   32 1
    40   43   42 1
    41   52   42 1
    42   44   43 1
    43   46   43 1
    44   53   43 1
    45   45   44 2
    46   51   44 1
    47   47   46 1
    48   54   46 1
    49   55   46 1
    50   48   47 1
    51   56   47 1
    52   57   47 1
    53   49   48 1
    54   58   48 1
    55   59   48 1
    56   50   49 1
    57   60   49 1
    58   61   49 1
    59   62   50 1
    60   63   50 1
    61   64   50 1
    62   65   51 1
    63   25    3 am
    64   42   27 am
@<TRIPOS>SUBSTRUCTURE
     1 LYS1        1 RESIDUE
     2 MET2       25 RESIDUE
     3 LYS3       42 RESIDUE
@<TRIPOS>SET

