#    Name: 2oj9_BMI_1_INTS_M
#    Modification time : Tue Mar 25 22:47:13 2014

@<TRIPOS>MOLECULE
2oj9_BMI_1_INTS_M
   61     0     9     0     0
SMALL
NO_CHARGES


@<TRIPOS>ATOM
      1 N           2.5900   -6.0165   16.6810 N.am      2 SEC2        0.0000 
      2 N           2.7560   -5.6360   17.8830 N.am      8 SEL2        0.0000 
      3 N           2.4240   -6.3970   15.4790 N.am      5 SEP2        0.0000 
      4 O           2.0435   -3.1810   16.8040 O.2       1 ALC1        0.0000 
      5 O           2.8980   -3.3310   17.9320 O.2       7 ALL1        0.0000 
      6 O           1.1890   -3.0310   15.6760 O.2       4 ALP1        0.0000 
      7 CA          3.3175   -0.9655   21.2580 C.3       3 GLC5        0.0000 
      8 CA          3.9510   -2.1660   19.7420 C.3       9 GLL5        0.0000 
      9 CA          2.6840    0.2350   22.7740 C.3       6 GLP5        0.0000 
     10 CA          2.3675   -0.7135   19.4565 C.3       3 GLC5        0.0000 
     11 CA          0.7840    0.7390   19.1710 C.3       6 GLP5        0.0000 
     12 CA          1.6170   -3.2255   18.9885 C.3       3 GLC5        0.0000 
     13 CA          3.2890   -2.2380   18.5760 C.3       9 GLL5        0.0000 
     14 CA         -0.0550   -4.2130   19.4010 C.3       6 GLP5        0.0000 
     15 CA          3.6615   -1.3840   16.7270 C.3       3 GLC5        0.0000 
     16 CA          4.0340   -0.5300   14.8780 C.3       6 GLP5        0.0000 
     17 CA          1.8735   -1.1735   18.2710 C.3       3 GLC5        0.0000 
     18 CA          0.4580   -0.1090   17.9660 C.3       6 GLP5        0.0000 
     19 CA          4.4150   -1.0420   22.3130 C.3       3 GLC5        0.0000 
     20 CA          6.1460   -2.3190   21.8520 C.3       9 GLL5        0.0000 
     21 CA          6.5145   -2.8535   19.7685 C.3       3 GLC5        0.0000 
     22 CA          6.8830   -3.3880   17.6850 C.3       6 GLP5        0.0000 
     23 CA         10.2635   -5.4475   20.9155 C.3       3 GLC5        0.0000 
     24 CA          8.6570   -5.0060   22.0630 C.3       9 GLL5        0.0000 
     25 CA         11.8700   -5.8890   19.7680 C.3       6 GLP5        0.0000 
     26 CA          7.8185   -5.0550   20.1915 C.3       3 GLC5        0.0000 
     27 CA          6.9800   -5.1040   18.3200 C.3       6 GLP5        0.0000 
     28 CA          5.3995   -4.8265   19.0350 C.3       3 GLC5        0.0000 
     29 CA          3.8190   -4.5490   19.7500 C.3       9 GLL5        0.0000 
     30 CA          3.1655   -9.8175   20.6800 C.3       3 GLC5        0.0000 
     31 CA          5.0230   -9.2590   20.4490 C.3       9 GLL5        0.0000 
     32 CA          1.3080  -10.3760   20.9110 C.3       6 GLP5        0.0000 
     33 CA          2.8580   -7.8865   20.7430 C.3       3 GLC5        0.0000 
     34 CA          4.7380   -7.8890   20.5150 C.3       9 GLL5        0.0000 
     35 CA          0.9780   -7.8840   20.9710 C.3       6 GLP5        0.0000 
     36 CA          3.3580   -6.0870   22.4935 C.3       3 GLC5        0.0000 
     37 CA          5.0030   -7.2570   21.5870 C.3       9 GLL5        0.0000 
     38 CA          1.7130   -4.9170   23.4000 C.3       6 GLP5        0.0000 
     39 CA          4.0190   -6.0695   24.3265 C.3       3 GLC5        0.0000 
     40 CA          5.7950   -7.0590   23.8340 C.3       9 GLL5        0.0000 
     41 CA          2.2430   -5.0800   24.8190 C.3       6 GLP5        0.0000 
     42 CA          2.8673   -4.4365   21.7443 C.3       3 GLC5        0.0000 
     43 CA          4.2240   -3.3630   20.4270 C.3       9 GLL5        0.0000 
     44 CA          1.9832   -4.0845   19.7447 C.3       3 GLC5        0.0000 
     45 CA          5.2856   -2.9446   18.5076 C.3       3 GLC5        0.0000 
     46 CA          7.7902   -1.6287   20.7825 C.3       3 GLC5        0.0000 
     47 CA          8.9020   -0.4810   19.4330 C.3       6 GLP5        0.0000 
     48 CA          7.1195   -3.4162   25.7773 C.3       3 GLC5        0.0000 
     49 CA          7.5420   -3.1670   23.7480 C.3       9 GLL5        0.0000 
     50 CA          6.2390   -3.2340   27.5350 C.3       6 GLP5        0.0000 
     51 CA          3.7905   -9.2970   22.5400 C.3       3 GLC5        0.0000 
     52 CA          5.7990   -9.1700   22.6200 C.3       9 GLL5        0.0000 
     53 CA          1.8990   -9.0820   23.0060 C.3       6 GLP5        0.0000 
     54 CA          6.5755   -8.7514   19.7354 C.3       3 GLC5        0.0000 
     55 CA          5.5650   -9.8540   21.5280 C.3       9 GLL5        0.0000 
     56 CA          8.1350   -8.7800   18.7190 C.3       6 GLP5        0.0000 
     57 CA          5.9253   -6.3385   19.6855 C.3       3 GLC5        0.0000 
     58 CA          3.7150   -8.1989   22.9871 C.3       3 GLC5        0.0000 
     59 CA          5.0580   -8.5760   24.9098 C.3       3 GLC5        0.0000 
     60 CA          5.5310   -7.8880   22.6180 C.3       9 GLL5        0.0000 
     61 CA          4.3860   -9.3580   26.5930 C.3       6 GLP5        0.0000 
@<TRIPOS>BOND
@<TRIPOS>SUBSTRUCTURE
     1 ALC1        4 GROUP        1 X    ALC  0     ROOT ALC X 1
     2 SEC2        1 GROUP        1 X    SEC  0     **** SEC X 2
     3 GLC5        7 GROUP        1 X    GLC  0     **** GLC X 6
     4 ALP1        6 GROUP        1 Y    ALP  0     ROOT ALP Y 8
     5 SEP2        3 GROUP        1 Y    SEP  0     **** SEP Y 9
     6 GLP5        9 GROUP        1 Y    GLP  0     **** GLP Y 13
     7 ALL1        5 GROUP        1 Z    ALL  0     ROOT ALL Z 15
     8 SEL2        2 GROUP        1 Z    SEL  0     **** SEL Z 16
     9 GLL5        8 GROUP        1 Z    GLL  0     **** GLL Z 20
@<TRIPOS>SET

