#    Name: 2oj9_BMI_1_ligand
#    Modification time : Tue Mar 25 22:47:13 2014

@<TRIPOS>MOLECULE
2oj9_BMI_1_ligand
   49    53     1     0     0
SMALL
NO_CHARGES


@<TRIPOS>ATOM
      1 C           3.1460   -4.5250   18.4410 C.2       1 BMI301      0.0000 
      2 O           2.7560   -5.6360   17.8830 O.2       1 BMI301      0.0000 
      3 N           4.9310   -3.2670   21.6820 N.pl3     1 BMI301      0.0000 
      4 N1          2.8980   -3.3310   17.9320 N.am      1 BMI301      0.0000 
      5 C1          4.2240   -3.3630   20.4270 C.2       1 BMI301      0.0000 
      6 C2          3.9510   -2.1660   19.7420 C.2       1 BMI301      0.0000 
      7 C3          3.2890   -2.2380   18.5760 C.2       1 BMI301      0.0000 
      8 C4          6.1460   -2.3190   21.8520 C.3       1 BMI301      0.0000 
      9 C5          8.4580   -4.0300   24.2910 C.ar      1 BMI301      0.0000 
     10 C6          7.5420   -3.1670   23.7480 C.ar      1 BMI301      0.0000 
     11 C7          9.0360   -4.9650   23.4230 C.ar      1 BMI301      0.0000 
     12 C8          7.2110   -3.2340   22.4120 C.ar      1 BMI301      0.0000 
     13 N2          7.7620   -4.1500   21.5760 N.ar      1 BMI301      0.0000 
     14 C9          8.6570   -5.0060   22.0630 C.ar      1 BMI301      0.0000 
     15 C10         3.8190   -4.5490   19.7500 C.2       1 BMI301      0.0000 
     16 C11         5.9250  -12.1070   22.5390 C.2       1 BMI301      0.0000 
     17 C12         5.5650   -9.8540   21.5280 C.ar      1 BMI301      0.0000 
     18 C13         5.0230   -9.2590   20.4490 C.ar      1 BMI301      0.0000 
     19 N3          5.9050  -11.2140   21.5020 N.pl3     1 BMI301      0.0000 
     20 C14         6.3110  -11.8600   20.4050 C.2       1 BMI301      0.0000 
     21 N4          6.6000  -13.1510   20.6500 N.2       1 BMI301      0.0000 
     22 C15         6.3520  -13.3410   21.9890 C.2       1 BMI301      0.0000 
     23 C16         4.7380   -7.8890   20.5150 C.ar      1 BMI301      0.0000 
     24 N5          4.6790   -5.9430   21.4200 N.pl3     1 BMI301      0.0000 
     25 C17         4.1620   -5.8220   20.3210 C.2       1 BMI301      0.0000 
     26 N6          4.2050   -6.9530   19.6740 N.2       1 BMI301      0.0000 
     27 C18         5.0030   -7.2570   21.5870 C.ar      1 BMI301      0.0000 
     28 C19         5.5310   -7.8880   22.6180 C.ar      1 BMI301      0.0000 
     29 C20         5.7990   -9.1700   22.6200 C.ar      1 BMI301      0.0000 
     30 C21         5.7950   -7.0590   23.8340 C.3       1 BMI301      0.0000 
     31 H           4.6659   -3.8055   22.4866 H         1 BMI301      0.0000 
     32 H           2.3904   -3.2436   17.0157 H         1 BMI301      0.0000 
     33 H           4.2606   -1.2795   20.1454 H         1 BMI301      0.0000 
     34 H           3.0448   -1.2760   18.1039 H         1 BMI301      0.0000 
     35 H           5.8995   -1.5648   22.5490 H         1 BMI301      0.0000 
     36 H           6.4319   -1.9521   20.9038 H         1 BMI301      0.0000 
     37 H           8.7130   -4.0047   25.2656 H         1 BMI301      0.0000 
     38 H           7.0885   -2.4503   24.3501 H         1 BMI301      0.0000 
     39 H           9.7386   -5.6256   23.7717 H         1 BMI301      0.0000 
     40 H           9.1048   -5.7296   21.4621 H         1 BMI301      0.0000 
     41 H           5.7071  -11.9614   23.4359 H         1 BMI301      0.0000 
     42 H           4.8145   -9.7730   19.5888 H         1 BMI301      0.0000 
     43 H           6.3919  -11.4393   19.5081 H         1 BMI301      0.0000 
     44 H           6.4431  -14.1449   22.4796 H         1 BMI301      0.0000 
     45 H           4.8661   -5.2716   22.1190 H         1 BMI301      0.0000 
     46 H           6.1889   -9.6343   23.4697 H         1 BMI301      0.0000 
     47 H           6.1911   -7.6017   24.5747 H         1 BMI301      0.0000 
     48 H           6.4332   -6.3131   23.6436 H         1 BMI301      0.0000 
     49 H           4.9574   -6.6445   24.1899 H         1 BMI301      0.0000 
@<TRIPOS>BOND
     1    2    1 2    
     2    4    1 am   
     3   15    1 1    
     4    5    3 1    
     5    8    3 1    
     6   31    3 1    
     7    7    4 1    
     8   32    4 1    
     9    6    5 1    
    10   15    5 2    
    11    7    6 2    
    12   33    6 1    
    13   34    7 1    
    14   12    8 1    
    15   35    8 1    
    16   36    8 1    
    17   10    9 ar   
    18   11    9 ar   
    19   37    9 1    
    20   12   10 ar   
    21   38   10 1    
    22   14   11 ar   
    23   39   11 1    
    24   13   12 ar   
    25   14   13 ar   
    26   40   14 1    
    27   25   15 1    
    28   19   16 1    
    29   22   16 2    
    30   41   16 1    
    31   18   17 ar   
    32   19   17 1    
    33   29   17 ar   
    34   23   18 ar   
    35   42   18 1    
    36   20   19 1    
    37   21   20 2    
    38   43   20 1    
    39   22   21 1    
    40   44   22 1    
    41   26   23 1    
    42   27   23 ar   
    43   25   24 1    
    44   27   24 1    
    45   45   24 1    
    46   26   25 2    
    47   28   27 ar   
    48   29   28 ar   
    49   30   28 1    
    50   46   29 1    
    51   47   30 1    
    52   48   30 1    
    53   49   30 1    
@<TRIPOS>SUBSTRUCTURE
     1 BMI301      1 GROUP   
@<TRIPOS>SET

