#    Name: 1gp2_GDP_1_INTS_M
#    Modification time : Tue Mar 25 03:22:29 2014

@<TRIPOS>MOLECULE
1gp2_GDP_1_INTS_M
   61     0    12     0     0
SMALL
NO_CHARGES


@<TRIPOS>ATOM
      1 N          -0.1870   55.2725  -32.1725 N.am      2 SEC2        0.0000 
      2 N           0.4720   54.1080  -32.2360 N.am     10 SEL2        0.0000 
      3 N          -0.8460   56.4370  -32.1090 N.am      6 SEP2        0.0000 
      4 N           0.8025   50.9975  -29.9555 N.am      2 SEC2        0.0000 
      5 N           0.7960   51.9540  -30.9510 N.am     10 SEL2        0.0000 
      6 N           0.8090   50.0410  -28.9600 N.am      6 SEP2        0.0000 
      7 NZ         -2.2485   52.9110  -31.3825 N.4       3 LYC4        0.0000 
      8 NZ         -1.2310   53.3400  -30.7650 N.4      11 LYL4        0.0000 
      9 NZ         -3.2660   52.4820  -32.0000 N.4       7 LYP4        0.0000 
     10 N          -1.5415   54.8500  -30.1595 N.am      2 SEC2        0.0000 
     11 N          -1.2310   53.3400  -30.7650 N.am     10 SEL2        0.0000 
     12 N          -1.8520   56.3600  -29.5540 N.am      6 SEP2        0.0000 
     13 N          -1.0700   53.9500  -29.2080 N.am      2 SEC2        0.0000 
     14 N          -0.9090   54.5600  -27.6510 N.am      6 SEP2        0.0000 
     15 N          -1.1950   52.5510  -29.2430 N.am      2 SEC2        0.0000 
     16 N          -1.1590   51.7620  -27.7210 N.am      6 SEP2        0.0000 
     17 N          -2.2485   52.9110  -31.3825 N.am      2 SEC2        0.0000 
     18 N          -3.2660   52.4820  -32.0000 N.am      6 SEP2        0.0000 
     19 N           0.0750   54.4225  -28.8370 N.am      2 SEC2        0.0000 
     20 N           1.0590   54.2850  -30.0230 N.am     10 SEL2        0.0000 
     21 N           2.6315   51.5950  -27.6890 N.am      2 SEC2        0.0000 
     22 N           2.3470   52.9280  -28.3450 N.am     10 SEL2        0.0000 
     23 N           2.9160   50.2620  -27.0330 N.am      6 SEP2        0.0000 
     24 N           3.1495   52.7610  -27.2980 N.am      2 SEC2        0.0000 
     25 N           3.9520   52.5940  -26.2510 N.am      6 SEP2        0.0000 
     26 CA          1.3865   56.8580  -30.2115 C.3       4 GLC5        0.0000 
     27 CA          2.9070   56.5160  -29.3410 C.3      12 GLL5        0.0000 
     28 CA         -0.1340   57.2000  -31.0820 C.3       8 GLP5        0.0000 
     29 CA          2.4015   58.1870  -27.4265 C.3       4 GLC5        0.0000 
     30 CA          3.9410   57.4220  -28.7540 C.3      12 GLL5        0.0000 
     31 CA          0.8620   58.9520  -26.0990 C.3       8 GLP5        0.0000 
     32 N           2.4720   58.7905  -27.4405 N.am      2 SEC2        0.0000 
     33 N           3.6170   58.0120  -27.4960 N.am     10 SEL2        0.0000 
     34 N           1.3270   59.5690  -27.3850 N.am      6 SEP2        0.0000 
     35 CA          4.6315   59.0270  -26.9945 C.3       4 GLC5        0.0000 
     36 CA          4.3820   57.2250  -26.4450 C.3      12 GLL5        0.0000 
     37 CA          4.8810   60.8290  -27.5440 C.3       8 GLP5        0.0000 
     38 CA          2.6220   58.0885  -26.2720 C.3       4 GLC5        0.0000 
     39 N           0.6470   55.6360  -23.7195 N.am      2 SEC2        0.0000 
     40 N           2.0740   55.9490  -23.8620 N.am     10 SEL2        0.0000 
     41 N          -0.7800   55.3230  -23.5770 N.am      6 SEP2        0.0000 
     42 CA          1.2555   58.1520  -23.5540 C.3       4 GLC5        0.0000 
     43 CA          2.6630   57.0700  -23.2560 C.3      12 GLL5        0.0000 
     44 CA         -0.1520   59.2340  -23.8520 C.3       8 GLP5        0.0000 
     45 CA          2.0015   55.0070  -22.6650 C.3       4 GLC5        0.0000 
     46 CA          1.3400   52.9440  -22.0740 C.3       8 GLP5        0.0000 
     47 O           2.7110   59.3220  -20.4495 O.2       1 ALC1        0.0000 
     48 O           3.1710   58.8620  -21.7910 O.2       9 ALL1        0.0000 
     49 O           2.2510   59.7820  -19.1080 O.2       5 ALP1        0.0000 
     50 O           3.6945   59.8205  -20.4890 O.2       1 ALC1        0.0000 
     51 O           4.2180   60.7790  -19.1870 O.2       5 ALP1        0.0000 
     52 O           4.5880   60.5545  -20.7165 O.2       1 ALC1        0.0000 
     53 O           4.9580   60.3300  -22.2460 O.2       9 ALL1        0.0000 
     54 CA          2.2940   58.2485  -25.0460 C.3       4 GLC5        0.0000 
     55 CA          3.7260   57.5450  -23.9930 C.3      12 GLL5        0.0000 
     56 CA          4.7203   58.9225  -28.0862 C.3       4 GLC5        0.0000 
     57 CA          5.1780   56.6100  -28.5030 C.3      12 GLL5        0.0000 
     58 CA          5.6792   57.2695  -30.3387 C.3       4 GLC5        0.0000 
     59 CA          6.7990   57.5230  -32.0490 C.3       8 GLP5        0.0000 
     60 CA          4.8532   56.1703  -23.0772 C.3       4 GLC5        0.0000 
     61 CA          6.5120   55.0330  -22.5300 C.3       8 GLP5        0.0000 
@<TRIPOS>BOND
@<TRIPOS>SUBSTRUCTURE
     1 ALC1       47 GROUP        1 X    ALC  0     ROOT ALC X 1
     2 SEC2        1 GROUP        1 X    SEC  0     **** SEC X 2
     3 LYC4        7 GROUP        1 X    LYC  0     **** LYC X 4
     4 GLC5       26 GROUP        1 X    GLC  0     **** GLC X 6
     5 ALP1       49 GROUP        1 Y    ALP  0     ROOT ALP Y 8
     6 SEP2        3 GROUP        1 Y    SEP  0     **** SEP Y 9
     7 LYP4        9 GROUP        1 Y    LYP  0     **** LYP Y 11
     8 GLP5       28 GROUP        1 Y    GLP  0     **** GLP Y 13
     9 ALL1       48 GROUP        1 Z    ALL  0     ROOT ALL Z 15
    10 SEL2        2 GROUP        1 Z    SEL  0     **** SEL Z 16
    11 LYL4        8 GROUP        1 Z    LYL  0     **** LYL Z 18
    12 GLL5       27 GROUP        1 Z    GLL  0     **** GLL Z 20
@<TRIPOS>SET

