#    Name: 1gp2_GDP_1_ligand
#    Modification time : Tue Mar 25 03:22:29 2014

@<TRIPOS>MOLECULE
1gp2_GDP_1_ligand
   40    42     1     0     0
SMALL
NO_CHARGES


@<TRIPOS>ATOM
      1 PB          0.2060   53.2980  -31.0610 P.3       1 GDP355      0.0000 
      2 O1B         0.4720   54.1080  -32.2360 O.co2     1 GDP355      0.0000 
      3 O2B         0.7960   51.9540  -30.9510 O.co2     1 GDP355      0.0000 
      4 O3B        -1.2310   53.3400  -30.7650 O.co2     1 GDP355      0.0000 
      5 O3A         1.0590   54.2850  -30.0230 O.3       1 GDP355      0.0000 
      6 PA          2.5120   53.9780  -29.3660 P.3       1 GDP355      0.0000 
      7 O1A         3.6350   53.8790  -30.3080 O.co2     1 GDP355      0.0000 
      8 O2A         2.3470   52.9280  -28.3450 O.co2     1 GDP355      0.0000 
      9 O5'         2.7520   55.3360  -28.6130 O.3       1 GDP355      0.0000 
     10 C5'         2.9070   56.5160  -29.3410 C.3       1 GDP355      0.0000 
     11 C4'         3.9410   57.4220  -28.7540 C.3       1 GDP355      0.0000 
     12 O4'         3.6170   58.0120  -27.4960 O.3       1 GDP355      0.0000 
     13 C3'         5.1780   56.6100  -28.5030 C.3       1 GDP355      0.0000 
     14 O3'         6.2240   57.5780  -28.4990 O.3       1 GDP355      0.0000 
     15 C2'         5.0140   56.0290  -27.1010 C.3       1 GDP355      0.0000 
     16 O2'         6.2100   55.6660  -26.3300 O.3       1 GDP355      0.0000 
     17 C1'         4.3820   57.2250  -26.4450 C.3       1 GDP355      0.0000 
     18 N9          3.7800   56.7530  -25.1150 N.pl3     1 GDP355      0.0000 
     19 C8          2.8070   55.8140  -24.9070 C.2       1 GDP355      0.0000 
     20 N7          2.0740   55.9490  -23.8620 N.2       1 GDP355      0.0000 
     21 C5          2.6630   57.0700  -23.2560 C.2       1 GDP355      0.0000 
     22 C6          2.3180   57.7430  -22.0340 C.2       1 GDP355      0.0000 
     23 O6          1.3940   57.4160  -21.2810 O.2       1 GDP355      0.0000 
     24 N1          3.1710   58.8620  -21.7910 N.am      1 GDP355      0.0000 
     25 C2          4.2210   59.2720  -22.5820 C.2       1 GDP355      0.0000 
     26 N2          4.9580   60.3300  -22.2460 N.pl3     1 GDP355      0.0000 
     27 N3          4.5400   58.6300  -23.7090 N.2       1 GDP355      0.0000 
     28 C4          3.7260   57.5450  -23.9930 C.2       1 GDP355      0.0000 
     29 H           1.9518   57.0888  -29.4051 H         1 GDP355      0.0000 
     30 H           3.1965   56.3121  -30.3989 H         1 GDP355      0.0000 
     31 H           4.2119   58.1811  -29.4813 H         1 GDP355      0.0000 
     32 H           5.2785   55.8737  -29.2056 H         1 GDP355      0.0000 
     33 H           4.2733   55.2692  -27.1288 H         1 GDP355      0.0000 
     34 H           5.2948   57.8681  -26.1596 H         1 GDP355      0.0000 
     35 H           2.6996   55.0443  -25.5864 H         1 GDP355      0.0000 
     36 H           2.9584   59.4226  -20.9056 H         1 GDP355      0.0000 
     37 H           5.0094   60.5382  -21.2692 H         1 GDP355      0.0000 
     38 H           5.3934   60.8206  -23.0008 H         1 GDP355      0.0000 
     39 H           6.7009   57.4399  -27.6309 H         1 GDP355      0.0000 
     40 H           5.9638   55.8352  -25.3756 H         1 GDP355      0.0000 
@<TRIPOS>BOND
     1    2    1 ar   
     2    3    1 ar   
     3    4    1 ar   
     4    5    1 1    
     5    6    5 1    
     6    7    6 ar   
     7    8    6 ar   
     8    9    6 1    
     9   10    9 1    
    10   11   10 1    
    11   29   10 1    
    12   30   10 1    
    13   12   11 1    
    14   13   11 1    
    15   31   11 1    
    16   17   12 1    
    17   14   13 1    
    18   15   13 1    
    19   32   13 1    
    20   39   14 1    
    21   16   15 1    
    22   17   15 1    
    23   33   15 1    
    24   40   16 1    
    25   18   17 1    
    26   34   17 1    
    27   19   18 1    
    28   28   18 1    
    29   20   19 2    
    30   35   19 1    
    31   21   20 1    
    32   22   21 1    
    33   28   21 2    
    34   23   22 2    
    35   24   22 am   
    36   25   24 1    
    37   36   24 1    
    38   26   25 1    
    39   27   25 2    
    40   37   26 1    
    41   38   26 1    
    42   28   27 1    
@<TRIPOS>SUBSTRUCTURE
     1 GDP355      1 GROUP   
@<TRIPOS>SET

