#    Name: 2h1f_ADP_2_INTS_M
#    Modification time : Tue Mar 25 15:22:37 2014

@<TRIPOS>MOLECULE
2h1f_ADP_2_INTS_M
   52     0    12     0     0
SMALL
NO_CHARGES


@<TRIPOS>ATOM
      1 NZ         39.7555   32.1055   45.8380 N.4       3 LYC4        0.0000 
      2 NZ         38.4090   31.4500   45.8250 N.4      11 LYL4        0.0000 
      3 NZ         41.1020   32.7610   45.8510 N.4       7 LYP4        0.0000 
      4 N          39.2220   30.6185   46.7080 N.am      2 SEC2        0.0000 
      5 N          38.4090   31.4500   45.8250 N.am     10 SEL2        0.0000 
      6 N          40.0350   29.7870   47.5910 N.am      6 SEP2        0.0000 
      7 N          38.4745   29.8230   45.9580 N.am      2 SEC2        0.0000 
      8 N          38.5400   28.1960   46.0910 N.am      6 SEP2        0.0000 
      9 N          38.4970   30.6600   44.7620 N.am      2 SEC2        0.0000 
     10 N          38.5850   29.8700   43.6990 N.am      6 SEP2        0.0000 
     11 N          39.7555   32.1055   45.8380 N.am      2 SEC2        0.0000 
     12 N          41.1020   32.7610   45.8510 N.am      6 SEP2        0.0000 
     13 NZ         39.4625   33.0905   46.6500 N.4       3 LYC4        0.0000 
     14 NZ         37.8230   33.4200   47.4490 N.4      11 LYL4        0.0000 
     15 N          37.5670   32.5010   48.6165 N.am      2 SEC2        0.0000 
     16 N          37.8230   33.4200   47.4490 N.am     10 SEL2        0.0000 
     17 N          37.3110   31.5820   49.7840 N.am      6 SEP2        0.0000 
     18 N          37.2670   33.8710   48.6205 N.am      2 SEC2        0.0000 
     19 N          36.7110   34.3220   49.7920 N.am      6 SEP2        0.0000 
     20 N          36.6965   31.7170   48.2020 N.am      2 SEC2        0.0000 
     21 N          36.0820   31.8520   46.6200 N.am     10 SEL2        0.0000 
     22 CA         36.5245   27.9960   48.4775 C.3       4 GLC5        0.0000 
     23 CA         34.4120   27.9400   48.4390 C.3      12 GLL5        0.0000 
     24 CA         38.6370   28.0520   48.5160 C.3       8 GLP5        0.0000 
     25 O          35.1440   25.9315   49.1655 O.2       1 ALC1        0.0000 
     26 O          35.6410   27.4810   49.0100 O.2       9 ALL1        0.0000 
     27 O          34.6470   24.3820   49.3210 O.2       5 ALP1        0.0000 
     28 O          33.8735   25.3995   49.6260 O.2       1 ALC1        0.0000 
     29 O          33.1000   26.4170   49.9310 O.2       9 ALL1        0.0000 
     30 CA         29.4820   29.8525   54.9445 C.3       4 GLC5        0.0000 
     31 CA         29.3690   28.4500   53.2730 C.3      12 GLL5        0.0000 
     32 CA         29.5950   31.2550   56.6160 C.3       8 GLP5        0.0000 
     33 O          27.1610   27.6145   53.9680 O.2       1 ALC1        0.0000 
     34 O          28.0690   28.7040   53.4260 O.2       9 ALL1        0.0000 
     35 O          26.2530   26.5250   54.5100 O.2       5 ALP1        0.0000 
     36 CA         32.2545   27.1005   56.0905 C.3       4 GLC5        0.0000 
     37 CA         31.4260   27.6080   54.1390 C.3      12 GLL5        0.0000 
     38 CA         33.0830   26.5930   58.0420 C.3       8 GLP5        0.0000 
     39 CA         31.9270   25.7200   54.3835 C.3       4 GLC5        0.0000 
     40 CA         32.4280   23.8320   54.6280 C.3       8 GLP5        0.0000 
     41 CA         30.7115   26.0910   52.9750 C.3       4 GLC5        0.0000 
     42 CA         29.9970   24.5740   51.8110 C.3       8 GLP5        0.0000 
     43 CA         31.2865   28.6890   56.0055 C.3       4 GLC5        0.0000 
     44 CA         31.1470   29.7700   57.8720 C.3       8 GLP5        0.0000 
     45 CA         32.2680   29.1060   54.2160 C.3       4 GLC5        0.0000 
     46 CA         33.1100   30.6040   54.2930 C.3       8 GLP5        0.0000 
     47 CA         35.2507   29.4395   46.0652 C.3       4 GLC5        0.0000 
     48 CA         34.3260   29.4150   48.2570 C.3      12 GLL5        0.0000 
     49 CA         36.4100   29.3320   44.5820 C.3       8 GLP5        0.0000 
     50 CA         30.2580   26.5770   52.0490 C.3       4 GLC5        0.0000 
     51 CA         31.3650   28.5320   51.9110 C.3      12 GLL5        0.0000 
     52 CA         31.8145   29.5920   53.2900 C.3       4 GLC5        0.0000 
@<TRIPOS>BOND
@<TRIPOS>SUBSTRUCTURE
     1 ALC1       25 GROUP        1 X    ALC  0     ROOT ALC X 1
     2 SEC2        4 GROUP        1 X    SEC  0     **** SEC X 2
     3 LYC4        1 GROUP        1 X    LYC  0     **** LYC X 4
     4 GLC5       22 GROUP        1 X    GLC  0     **** GLC X 6
     5 ALP1       27 GROUP        1 Y    ALP  0     ROOT ALP Y 8
     6 SEP2        6 GROUP        1 Y    SEP  0     **** SEP Y 9
     7 LYP4        3 GROUP        1 Y    LYP  0     **** LYP Y 11
     8 GLP5       24 GROUP        1 Y    GLP  0     **** GLP Y 13
     9 ALL1       26 GROUP        1 Z    ALL  0     ROOT ALL Z 15
    10 SEL2        5 GROUP        1 Z    SEL  0     **** SEL Z 16
    11 LYL4        2 GROUP        1 Z    LYL  0     **** LYL Z 18
    12 GLL5       23 GROUP        1 Z    GLL  0     **** GLL Z 20
@<TRIPOS>SET

