#    Name: 2h1f_ADP_2_ligand
#    Modification time : Tue Mar 25 15:22:37 2014

@<TRIPOS>MOLECULE
2h1f_ADP_2_ligand
   39    41     1     0     0
SMALL
NO_CHARGES


@<TRIPOS>ATOM
      1 PB         37.4200   32.4920   46.2030 P.3       1 ADP401      0.0000 
      2 O1B        38.4090   31.4500   45.8250 O.co2     1 ADP401      0.0000 
      3 O2B        37.8230   33.4200   47.4490 O.co2     1 ADP401      0.0000 
      4 O3B        37.1580   33.3460   45.0380 O.co2     1 ADP401      0.0000 
      5 PA         34.6610   32.3100   47.1170 P.3       1 ADP401      0.0000 
      6 O1A        34.7060   32.2780   48.5680 O.co2     1 ADP401      0.0000 
      7 O2A        34.2360   33.6400   46.6700 O.co2     1 ADP401      0.0000 
      8 O3A        36.0820   31.8520   46.6200 O.3       1 ADP401      0.0000 
      9 O5'        33.7290   31.1330   46.6200 O.3       1 ADP401      0.0000 
     10 C5'        33.8570   29.6790   46.8400 C.3       1 ADP401      0.0000 
     11 C4'        34.3260   29.4150   48.2570 C.3       1 ADP401      0.0000 
     12 O4'        33.5120   29.9610   49.3250 O.3       1 ADP401      0.0000 
     13 C3'        34.4120   27.9400   48.4390 C.3       1 ADP401      0.0000 
     14 O3'        35.6410   27.4810   49.0100 O.3       1 ADP401      0.0000 
     15 C2'        33.1650   27.6690   49.2310 C.3       1 ADP401      0.0000 
     16 O2'        33.1000   26.4170   49.9310 O.3       1 ADP401      0.0000 
     17 C1'        33.1020   28.8620   50.1410 C.3       1 ADP401      0.0000 
     18 N9         31.7070   28.9440   50.7000 N.pl3     1 ADP401      0.0000 
     19 C8         30.6110   29.4480   50.1060 C.2       1 ADP401      0.0000 
     20 N7         29.5740   29.3560   50.9270 N.2       1 ADP401      0.0000 
     21 C5         29.9770   28.8060   52.0530 C.ar      1 ADP401      0.0000 
     22 C6         29.3690   28.4500   53.2730 C.ar      1 ADP401      0.0000 
     23 N6         28.0690   28.7040   53.4260 N.pl3     1 ADP401      0.0000 
     24 N1         30.1030   27.8620   54.2940 N.ar      1 ADP401      0.0000 
     25 C2         31.4260   27.6080   54.1390 C.ar      1 ADP401      0.0000 
     26 N3         32.0250   27.9460   52.9570 N.ar      1 ADP401      0.0000 
     27 C4         31.3650   28.5320   51.9110 C.ar      1 ADP401      0.0000 
     28 H          34.5803   29.2507   46.1440 H         1 ADP401      0.0000 
     29 H          32.8956   29.1849   46.6894 H         1 ADP401      0.0000 
     30 H          35.3591   29.7974   48.3418 H         1 ADP401      0.0000 
     31 H          34.2361   27.5019   47.4382 H         1 ADP401      0.0000 
     32 H          32.3188   27.7864   48.5299 H         1 ADP401      0.0000 
     33 H          33.8041   28.6838   50.9409 H         1 ADP401      0.0000 
     34 H          30.5925   29.8243   49.2017 H         1 ADP401      0.0000 
     35 H          27.8011   29.6667   53.3865 H         1 ADP401      0.0000 
     36 H          27.4789   27.9090   53.5664 H         1 ADP401      0.0000 
     37 H          31.9729   27.1700   54.8923 H         1 ADP401      0.0000 
     38 H          35.5142   26.4977   49.1406 H         1 ADP401      0.0000 
     39 H          33.7805   25.8356   49.4850 H         1 ADP401      0.0000 
@<TRIPOS>BOND
     1    2    1 ar   
     2    3    1 ar   
     3    4    1 ar   
     4    8    1 1    
     5    6    5 ar   
     6    7    5 ar   
     7    8    5 1    
     8    9    5 1    
     9   10    9 1    
    10   11   10 1    
    11   28   10 1    
    12   29   10 1    
    13   12   11 1    
    14   13   11 1    
    15   30   11 1    
    16   17   12 1    
    17   14   13 1    
    18   15   13 1    
    19   31   13 1    
    20   38   14 1    
    21   16   15 1    
    22   17   15 1    
    23   32   15 1    
    24   39   16 1    
    25   18   17 1    
    26   33   17 1    
    27   19   18 1    
    28   27   18 1    
    29   20   19 2    
    30   34   19 1    
    31   21   20 1    
    32   22   21 ar   
    33   27   21 ar   
    34   23   22 1    
    35   24   22 ar   
    36   35   23 1    
    37   36   23 1    
    38   25   24 ar   
    39   26   25 ar   
    40   37   25 1    
    41   27   26 ar   
@<TRIPOS>SUBSTRUCTURE
     1 ADP401      1 GROUP   
@<TRIPOS>SET

