#    Name: 4hyu_1BK_1_INTS_M
#    Modification time : Tue Mar 25 02:01:09 2014

@<TRIPOS>MOLECULE
4hyu_1BK_1_INTS_M
   74     0     9     0     0
SMALL
NO_CHARGES


@<TRIPOS>ATOM
      1 O          -4.3300   -1.1900    7.8400 O.2       1 ALC1        0.0000 
      2 O          -3.8040   -0.8140    9.1230 O.2       7 ALL1        0.0000 
      3 O          -4.8560   -1.5660    6.5570 O.2       4 ALP1        0.0000 
      4 CA         -2.1960    0.7495    9.8295 C.3       3 GLC5        0.0000 
      5 CA         -2.7750   -1.3060    9.9070 C.3       9 GLL5        0.0000 
      6 CA         -1.6170    2.8050    9.7520 C.3       6 GLP5        0.0000 
      7 CA         -2.0350   -0.4830    8.2775 C.3       3 GLC5        0.0000 
      8 CA         -1.2950    0.3400    6.6480 C.3       6 GLP5        0.0000 
      9 CA         -3.7330   -2.9125    9.0045 C.3       3 GLC5        0.0000 
     10 CA         -4.6910   -4.5190    8.1020 C.3       6 GLP5        0.0000 
     11 N          -2.4745   -2.9160    8.1435 N.am      2 SEC2        0.0000 
     12 N          -2.0520   -2.3430    9.4880 N.am      8 SEL2        0.0000 
     13 N          -2.8970   -3.4890    6.7990 N.am      5 SEP2        0.0000 
     14 CA         -0.8480   -4.9040   10.4680 C.3       3 GLC5        0.0000 
     15 CA         -1.0570   -2.8240   10.2380 C.3       9 GLL5        0.0000 
     16 CA         -0.6390   -6.9840   10.6980 C.3       6 GLP5        0.0000 
     17 CA         -0.8995   -2.7905    8.1075 C.3       3 GLC5        0.0000 
     18 CA         -0.7420   -2.7570    5.9770 C.3       6 GLP5        0.0000 
     19 CA         -2.3985   -4.2275    9.3990 C.3       3 GLC5        0.0000 
     20 CA         -3.7400   -5.6310    8.5600 C.3       6 GLP5        0.0000 
     21 CA          1.0020   -3.0590   12.2045 C.3       3 GLC5        0.0000 
     22 CA         -0.7770   -2.2470   11.4680 C.3       9 GLL5        0.0000 
     23 CA          2.7810   -3.8710   12.9410 C.3       6 GLP5        0.0000 
     24 CA         -1.5805    0.8290   10.8130 C.3       3 GLC5        0.0000 
     25 CA         -1.5440   -1.1470   11.8740 C.3       9 GLL5        0.0000 
     26 CA         -0.5095    3.0895   14.3605 C.3       3 GLC5        0.0000 
     27 CA         -2.5420    2.8550   15.2110 C.3       9 GLL5        0.0000 
     28 CA          1.5230    3.3240   13.5100 C.3       6 GLP5        0.0000 
     29 CA         -2.2285    3.4290   12.1795 C.3       3 GLC5        0.0000 
     30 CA         -3.0790    2.6920   13.9270 C.3       9 GLL5        0.0000 
     31 CA         -1.3780    4.1660   10.4320 C.3       6 GLP5        0.0000 
     32 CA         -5.9965   -2.0940   11.3955 C.3       3 GLC5        0.0000 
     33 CA         -5.7950   -0.3210   10.4870 C.3       9 GLL5        0.0000 
     34 CA         -6.1980   -3.8670   12.3040 C.3       6 GLP5        0.0000 
     35 CA         -1.3300    4.8810   16.0335 C.3       3 GLC5        0.0000 
     36 CA         -0.7940    3.2480   17.4620 C.3       9 GLL5        0.0000 
     37 CA         -1.8660    6.5140   14.6050 C.3       6 GLP5        0.0000 
     38 CA          2.4400    1.1445   22.4270 C.3       3 GLC5        0.0000 
     39 CA          0.4460    0.6790   21.8270 C.3       9 GLL5        0.0000 
     40 CA          4.4340    1.6100   23.0270 C.3       6 GLP5        0.0000 
     41 N           3.1245    0.1290   19.5875 N.am      2 SEC2        0.0000 
     42 N           2.4540    1.2920   20.2180 N.am      8 SEL2        0.0000 
     43 N           3.7950   -1.0340   18.9570 N.am      5 SEP2        0.0000 
     44 N           2.5220    3.5080   22.4010 N.am      2 SEC2        0.0000 
     45 N           1.4440    3.1060   21.5260 N.am      8 SEL2        0.0000 
     46 N           3.6000    3.9100   23.2760 N.am      5 SEP2        0.0000 
     47 N           3.0020    3.6085   21.0690 N.am      2 SEC2        0.0000 
     48 N           4.5600    4.1110   20.6120 N.am      5 SEP2        0.0000 
     49 CA          0.1968   -1.1976   10.3323 C.3       3 GLC5        0.0000 
     50 CA          1.6240   -0.5540    9.3010 C.3       6 GLP5        0.0000 
     51 CA         -1.5083   -3.1066   12.7888 C.3       3 GLC5        0.0000 
     52 CA         -1.7860   -4.3720   14.2140 C.3       6 GLP5        0.0000 
     53 CA         -1.9553    1.9638   11.5615 C.3       3 GLC5        0.0000 
     54 CA         -1.8460    0.6420   13.6060 C.3       9 GLL5        0.0000 
     55 CA         -0.4667    1.7203   12.8860 C.3       3 GLC5        0.0000 
     56 CA         -2.7410    1.6030   13.1360 C.3       9 GLL5        0.0000 
     57 CA          1.3600    2.3180   12.4010 C.3       6 GLP5        0.0000 
     58 CA         -2.5060   -1.0215   14.7465 C.3       3 GLC5        0.0000 
     59 CA         -3.4380   -2.7710   15.2440 C.3       6 GLP5        0.0000 
     60 CA          0.2015    1.9870   15.0563 C.3       3 GLC5        0.0000 
     61 CA         -1.3020    0.8140   14.8920 C.3       9 GLL5        0.0000 
     62 CA          1.8730    2.6070   14.8210 C.3       6 GLP5        0.0000 
     63 CA         -2.3382    4.6437   14.5870 C.3       3 GLC5        0.0000 
     64 CA         -3.2893    1.7353    9.3978 C.3       3 GLC5        0.0000 
     65 CA         -4.6630    0.2670    9.6270 C.3       9 GLL5        0.0000 
     66 CA         -3.1282    0.5028    7.8457 C.3       3 GLC5        0.0000 
     67 CA         -8.1133   -0.3671    9.4626 C.3       3 GLC5        0.0000 
     68 CA         -9.4620   -1.6440    8.5980 C.3       6 GLP5        0.0000 
     69 CA         -0.0747    5.0727   17.8900 C.3       3 GLC5        0.0000 
     70 CA          0.0620    6.9750   17.8220 C.3       6 GLP5        0.0000 
     71 CA          0.8307    2.8887   16.3895 C.3       3 GLC5        0.0000 
     72 CA          0.1495    4.2680   20.2272 C.3       3 GLC5        0.0000 
     73 CA          0.3710    3.0930   18.4540 C.3       9 GLL5        0.0000 
     74 CA          0.1240    5.9410   21.4560 C.3       6 GLP5        0.0000 
@<TRIPOS>BOND
@<TRIPOS>SUBSTRUCTURE
     1 ALC1        1 GROUP        1 X    ALC  0     ROOT ALC X 1
     2 SEC2       11 GROUP        1 X    SEC  0     **** SEC X 2
     3 GLC5        4 GROUP        1 X    GLC  0     **** GLC X 6
     4 ALP1        3 GROUP        1 Y    ALP  0     ROOT ALP Y 8
     5 SEP2       13 GROUP        1 Y    SEP  0     **** SEP Y 9
     6 GLP5        6 GROUP        1 Y    GLP  0     **** GLP Y 13
     7 ALL1        2 GROUP        1 Z    ALL  0     ROOT ALL Z 15
     8 SEL2       12 GROUP        1 Z    SEL  0     **** SEL Z 16
     9 GLL5        5 GROUP        1 Z    GLL  0     **** GLL Z 20
@<TRIPOS>SET

