#    Name: 4hyu_1BK_1_ligand
#    Modification time : Tue Mar 25 02:01:09 2014

@<TRIPOS>MOLECULE
4hyu_1BK_1_ligand
   58    61     1     0     0
SMALL
NO_CHARGES


@<TRIPOS>ATOM
      1 N1         -3.8040   -0.8140    9.1230 N.pl3     1 1BK401      0.0000 
      2 C2         -2.7750   -1.3060    9.9070 C.ar      1 1BK401      0.0000 
      3 N3         -2.0520   -2.3430    9.4880 N.ar      1 1BK401      0.0000 
      4 C4         -1.0570   -2.8240   10.2380 C.ar      1 1BK401      0.0000 
      5 C5         -0.7770   -2.2470   11.4680 C.ar      1 1BK401      0.0000 
      6 C6         -1.5440   -1.1470   11.8740 C.ar      1 1BK401      0.0000 
      7 N7         -2.5240   -0.7270   11.0730 N.ar      1 1BK401      0.0000 
      8 N8         -1.3040   -0.5300   13.1060 N.pl3     1 1BK401      0.0000 
      9 N9         -0.4620   -1.0720   14.0760 N.2       1 1BK401      0.0000 
     10 C10        -0.4190   -0.3150   15.1230 C.2       1 1BK401      0.0000 
     11 C11        -1.8460    0.6420   13.6060 C.ar      1 1BK401      0.0000 
     12 C12        -1.3020    0.8140   14.8920 C.ar      1 1BK401      0.0000 
     13 C13        -1.6380    1.9200   15.6910 C.ar      1 1BK401      0.0000 
     14 C14        -2.5420    2.8550   15.2110 C.ar      1 1BK401      0.0000 
     15 C15        -3.0790    2.6920   13.9270 C.ar      1 1BK401      0.0000 
     16 C16        -2.7410    1.6030   13.1360 C.ar      1 1BK401      0.0000 
     17 C17        -4.6630    0.2670    9.6270 C.3       1 1BK401      0.0000 
     18 C18        -5.7950   -0.3210   10.4870 C.3       1 1BK401      0.0000 
     19 C19        -6.6570    0.8140   11.0500 C.3       1 1BK401      0.0000 
     20 C20        -7.3030    1.5730    9.8860 C.3       1 1BK401      0.0000 
     21 C21        -6.2190    2.1600    8.9640 C.3       1 1BK401      0.0000 
     22 C22        -5.2600    1.0640    8.4600 C.3       1 1BK401      0.0000 
     23 O23        -8.1050    2.6200   10.4300 O.3       1 1BK401      0.0000 
     24 O24        -1.0700    1.9530   16.9270 O.3       1 1BK401      0.0000 
     25 C25        -0.7940    3.2480   17.4620 C.3       1 1BK401      0.0000 
     26 C26         0.3710    3.0930   18.4540 C.3       1 1BK401      0.0000 
     27 C27        -0.0210    2.0970   19.5430 C.3       1 1BK401      0.0000 
     28 S28         1.2970    1.8990   20.7850 S.o2      1 1BK401      0.0000 
     29 C29         0.4460    0.6790   21.8270 C.3       1 1BK401      0.0000 
     30 O30         2.4540    1.2920   20.2180 O.2       1 1BK401      0.0000 
     31 O31         1.4440    3.1060   21.5260 O.2       1 1BK401      0.0000 
     32 H          -3.9969   -1.1757    8.1915 H         1 1BK401      0.0000 
     33 H          -0.4810   -3.6270    9.9219 H         1 1BK401      0.0000 
     34 H          -0.0378   -2.6071   12.0626 H         1 1BK401      0.0000 
     35 H           0.0700   -0.3999   15.9402 H         1 1BK401      0.0000 
     36 H          -2.8180    3.6565   15.7819 H         1 1BK401      0.0000 
     37 H          -3.7417    3.4025   13.5660 H         1 1BK401      0.0000 
     38 H          -3.1515    1.5011   12.1965 H         1 1BK401      0.0000 
     39 H          -4.0929    0.9441   10.2430 H         1 1BK401      0.0000 
     40 H          -5.3647   -0.8855   11.3038 H         1 1BK401      0.0000 
     41 H          -6.4080   -0.9685    9.8738 H         1 1BK401      0.0000 
     42 H          -6.0344    1.4898   11.6173 H         1 1BK401      0.0000 
     43 H          -7.4294    0.3990   11.6803 H         1 1BK401      0.0000 
     44 H          -7.8926    0.8783    9.3192 H         1 1BK401      0.0000 
     45 H          -5.6490    2.9063    9.5133 H         1 1BK401      0.0000 
     46 H          -6.6962    2.6355    8.1097 H         1 1BK401      0.0000 
     47 H          -5.8072    0.3878    7.8056 H         1 1BK401      0.0000 
     48 H          -4.4553    1.5300    7.8941 H         1 1BK401      0.0000 
     49 H          -1.6396    3.6556   18.0063 H         1 1BK401      0.0000 
     50 H          -0.4842    3.9508   16.6956 H         1 1BK401      0.0000 
     51 H           0.5858    4.0537   18.9017 H         1 1BK401      0.0000 
     52 H           1.2410    2.7282   17.9252 H         1 1BK401      0.0000 
     53 H          -0.1466    1.0975   19.1866 H         1 1BK401      0.0000 
     54 H          -0.8474    2.4162   20.1405 H         1 1BK401      0.0000 
     55 H           0.3783   -0.2113   21.3767 H         1 1BK401      0.0000 
     56 H           0.9232    0.5335   22.6937 H         1 1BK401      0.0000 
     57 H          -0.4855    0.9663   22.0499 H         1 1BK401      0.0000 
     58 H          -9.0165    2.2214   10.5317 H         1 1BK401      0.0000 
@<TRIPOS>BOND
     1    2    1 1    
     2   17    1 1    
     3   32    1 1    
     4    3    2 ar   
     5    7    2 ar   
     6    4    3 ar   
     7    5    4 ar   
     8   33    4 1    
     9    6    5 ar   
    10   34    5 1    
    11    7    6 ar   
    12    8    6 1    
    13    9    8 1    
    14   11    8 1    
    15   10    9 2    
    16   12   10 1    
    17   35   10 1    
    18   12   11 ar   
    19   16   11 ar   
    20   13   12 ar   
    21   14   13 ar   
    22   24   13 1    
    23   15   14 ar   
    24   36   14 1    
    25   16   15 ar   
    26   37   15 1    
    27   38   16 1    
    28   18   17 1    
    29   22   17 1    
    30   39   17 1    
    31   19   18 1    
    32   40   18 1    
    33   41   18 1    
    34   20   19 1    
    35   42   19 1    
    36   43   19 1    
    37   21   20 1    
    38   23   20 1    
    39   44   20 1    
    40   22   21 1    
    41   45   21 1    
    42   46   21 1    
    43   47   22 1    
    44   48   22 1    
    45   58   23 1    
    46   25   24 1    
    47   26   25 1    
    48   49   25 1    
    49   50   25 1    
    50   27   26 1    
    51   51   26 1    
    52   52   26 1    
    53   28   27 1    
    54   53   27 1    
    55   54   27 1    
    56   29   28 1    
    57   30   28 2    
    58   31   28 2    
    59   55   29 1    
    60   56   29 1    
    61   57   29 1    
@<TRIPOS>SUBSTRUCTURE
     1 1BK401      1 GROUP   
@<TRIPOS>SET

