#    Name: 1t9a_1TB_1_INTS_M
#    Modification time : Tue Mar 25 04:32:31 2014

@<TRIPOS>MOLECULE
1t9a_1TB_1_INTS_M
   69     0     6     0     0
SMALL
NO_CHARGES


@<TRIPOS>ATOM
      1 CA         -9.6490  108.8995   53.7655 C.3       2 GLC5        0.0000 
      2 CA        -10.5810  107.8720   55.0300 C.3       6 GLL5        0.0000 
      3 CA         -8.7170  109.9270   52.5010 C.3       4 GLP5        0.0000 
      4 CA        -10.3820  108.1995   53.2025 C.3       2 GLC5        0.0000 
      5 CA        -10.6840  106.5170   54.5850 C.3       6 GLL5        0.0000 
      6 CA        -10.0800  109.8820   51.8200 C.3       4 GLP5        0.0000 
      7 CA        -13.3710  106.8575   53.6820 C.3       2 GLC5        0.0000 
      8 CA        -12.8920  106.3290   55.6970 C.3       6 GLL5        0.0000 
      9 CA        -13.8500  107.3860   51.6670 C.3       4 GLP5        0.0000 
     10 CA         -6.1735  103.9800   53.1235 C.3       2 GLC5        0.0000 
     11 CA         -7.0810  105.8430   53.8810 C.3       6 GLL5        0.0000 
     12 CA         -5.2660  102.1170   52.3660 C.3       4 GLP5        0.0000 
     13 CA         -6.8695  105.9405   51.8940 C.3       2 GLC5        0.0000 
     14 CA         -6.6580  106.0380   49.9070 C.3       4 GLP5        0.0000 
     15 CA         -6.9475  106.1600   55.7900 C.3       2 GLC5        0.0000 
     16 CA         -6.8140  106.4770   57.6990 C.3       4 GLP5        0.0000 
     17 CA         -5.7345  107.3740   54.4670 C.3       2 GLC5        0.0000 
     18 CA         -4.3880  108.9050   55.0530 C.3       4 GLP5        0.0000 
     19 N         -12.1080  102.5045   52.5020 N.am      1 SEC2        0.0000 
     20 N         -12.7770  103.9910   53.1170 N.am      5 SEL2        0.0000 
     21 N         -11.4390  101.0180   51.8870 N.am      3 SEP2        0.0000 
     22 N          -9.5190  103.8230   57.6200 N.am      1 SEC2        0.0000 
     23 N         -10.0300  103.3460   56.3640 N.am      5 SEL2        0.0000 
     24 N          -9.0080  104.3000   58.8760 N.am      3 SEP2        0.0000 
     25 N         -10.4240  104.4680   57.3330 N.am      1 SEC2        0.0000 
     26 N         -10.8180  105.5900   58.3020 N.am      3 SEP2        0.0000 
     27 CA         -6.4820  101.9670   54.0090 C.3       2 GLC5        0.0000 
     28 CA         -7.6980  101.8170   55.6520 C.3       6 GLL5        0.0000 
     29 N          -8.3660  103.2615   57.9385 N.am      1 SEC2        0.0000 
     30 N          -7.7240  102.2230   57.0010 N.am      5 SEL2        0.0000 
     31 CA         -9.6240  100.5660   54.6335 C.3       2 GLC5        0.0000 
     32 CA         -8.6300  101.7110   53.4740 C.3       6 GLL5        0.0000 
     33 CA        -10.6180   99.4210   55.7930 C.3       4 GLP5        0.0000 
     34 CA         -6.9480  101.9140   52.9200 C.3       2 GLC5        0.0000 
     35 CA         -7.7270  100.1245   52.6220 C.3       2 GLC5        0.0000 
     36 CA         -6.8240   98.5380   51.7700 C.3       4 GLP5        0.0000 
     37 CA         -9.8705  101.5680   51.9850 C.3       2 GLC5        0.0000 
     38 CA        -11.1110  101.4250   50.4960 C.3       4 GLP5        0.0000 
     39 N          -7.8360  103.2815   59.0470 N.am      1 SEC2        0.0000 
     40 N          -6.6640  102.2630   59.2180 N.am      5 SEL2        0.0000 
     41 CA         -7.6460  102.0350   61.1005 C.3       2 GLC5        0.0000 
     42 CA         -5.9290  102.1970   60.4270 C.3       6 GLL5        0.0000 
     43 CA         -9.3630  101.8730   61.7740 C.3       4 GLP5        0.0000 
     44 CA         -4.4725  100.8085   59.9820 C.3       2 GLC5        0.0000 
     45 CA         -3.0160   99.4200   59.5370 C.3       4 GLP5        0.0000 
     46 CA         -5.8295  103.9095   59.1530 C.3       2 GLC5        0.0000 
     47 CA         -5.7300  105.6220   57.8790 C.3       4 GLP5        0.0000 
     48 CA         -4.3475  102.6615   61.1040 C.3       2 GLC5        0.0000 
     49 CA         -2.7660  103.1260   61.7810 C.3       4 GLP5        0.0000 
     50 CA         -3.6720   99.6500   57.4920 C.3       2 GLC5        0.0000 
     51 CA         -4.3280   99.8800   55.4470 C.3       6 GLL5        0.0000 
     52 CA         -3.2970   98.3710   55.2355 C.3       2 GLC5        0.0000 
     53 CA         -2.2660   96.8620   55.0240 C.3       4 GLP5        0.0000 
     54 CA         -5.5385   98.7495   56.4340 C.3       2 GLC5        0.0000 
     55 CA         -6.7490   97.6190   57.4210 C.3       4 GLP5        0.0000 
     56 CA        -12.6657  108.6068   57.9663 C.3       2 GLC5        0.0000 
     57 CA        -11.6210  108.4460   55.7970 C.3       6 GLL5        0.0000 
     58 CA        -13.1360  109.1540   59.9710 C.3       4 GLP5        0.0000 
     59 CA        -13.0963  109.4218   54.7572 C.3       2 GLC5        0.0000 
     60 CA        -12.7700  107.6730   56.1260 C.3       6 GLL5        0.0000 
     61 CA        -13.9970  110.7840   53.5530 C.3       4 GLP5        0.0000 
     62 CA        -11.0700  110.0755   55.5438 C.3       2 GLC5        0.0000 
     63 CA        -11.0390  111.9920   55.6740 C.3       4 GLP5        0.0000 
     64 CA         -9.5970  108.3660   56.8217 C.3       2 GLC5        0.0000 
     65 CA         -8.0930  108.5730   58.2300 C.3       4 GLP5        0.0000 
     66 CA        -11.8164  106.9226   53.1074 C.3       2 GLC5        0.0000 
     67 CA        -12.3810  107.3910   51.3490 C.3       4 GLP5        0.0000 
     68 CA         -5.0910  101.2005   54.0425 C.3       2 GLC5        0.0000 
     69 CA         -5.5040  100.6880   55.9910 C.3       6 GLL5        0.0000 
@<TRIPOS>BOND
@<TRIPOS>SUBSTRUCTURE
     1 SEC2       19 GROUP        1 X    SEC  0     ROOT SEC X 2
     2 GLC5        1 GROUP        1 X    GLC  0     **** GLC X 6
     3 SEP2       21 GROUP        1 Y    SEP  0     ROOT SEP Y 9
     4 GLP5        3 GROUP        1 Y    GLP  0     **** GLP Y 13
     5 SEL2       20 GROUP        1 Z    SEL  0     ROOT SEL Z 16
     6 GLL5        2 GROUP        1 Z    GLL  0     **** GLL Z 20
@<TRIPOS>SET

