#    Name: 1t9a_1TB_1_ligand
#    Modification time : Tue Mar 25 04:32:31 2014

@<TRIPOS>MOLECULE
1t9a_1TB_1_ligand
   44    45     1     0     0
SMALL
NO_CHARGES


@<TRIPOS>ATOM
      1 C4        -12.7700  107.6730   56.1260 C.ar      1 1TB695      0.0000 
      2 C5        -11.6210  108.4460   55.7970 C.ar      1 1TB695      0.0000 
      3 C6        -10.5810  107.8720   55.0300 C.ar      1 1TB695      0.0000 
      4 C1        -10.6840  106.5170   54.5850 C.ar      1 1TB695      0.0000 
      5 C2        -11.8710  105.7140   54.9240 C.ar      1 1TB695      0.0000 
      6 C3        -12.8920  106.3290   55.6970 C.ar      1 1TB695      0.0000 
      7 C11        -9.4960  105.9750   53.7480 C.2       1 1TB695      0.0000 
      8 O12        -8.3290  105.6690   54.4750 O.3       1 1TB695      0.0000 
      9 C13        -7.0810  105.8430   53.8810 C.3       1 1TB695      0.0000 
     10 O11        -9.5960  105.8070   52.5170 O.2       1 1TB695      0.0000 
     11 S7        -12.0970  103.9810   54.4050 S.o2      1 1TB695      0.0000 
     12 N8        -10.8620  103.2080   54.2220 N.am      1 1TB695      0.0000 
     13 C9         -9.8910  102.9250   55.2030 C.2       1 1TB695      0.0000 
     14 O7A       -12.9250  103.3000   55.4260 O.2       1 1TB695      0.0000 
     15 O7B       -12.7770  103.9910   53.1170 O.2       1 1TB695      0.0000 
     16 O9        -10.0300  103.3460   56.3640 O.2       1 1TB695      0.0000 
     17 N10        -8.7710  102.1830   54.8380 N.am      1 1TB695      0.0000 
     18 C2'        -7.6980  101.8170   55.6520 C.ar      1 1TB695      0.0000 
     19 N1'        -6.5860  101.0460   55.1420 N.ar      1 1TB695      0.0000 
     20 C6'        -5.5040  100.6880   55.9910 C.ar      1 1TB695      0.0000 
     21 N5'        -5.5710  101.1160   57.3260 N.ar      1 1TB695      0.0000 
     22 C4'        -6.6420  101.8710   57.8740 C.ar      1 1TB695      0.0000 
     23 N3'        -7.7240  102.2230   57.0010 N.ar      1 1TB695      0.0000 
     24 C10        -8.6300  101.7110   53.4740 C.3       1 1TB695      0.0000 
     25 O4'        -6.6640  102.2630   59.2180 O.3       1 1TB695      0.0000 
     26 C5'        -5.9290  102.1970   60.4270 C.3       1 1TB695      0.0000 
     27 C7'        -4.3280   99.8800   55.4470 C.3       1 1TB695      0.0000 
     28 H         -13.5192  108.0987   56.6823 H         1 1TB695      0.0000 
     29 H         -11.5520  109.4107   56.1155 H         1 1TB695      0.0000 
     30 H          -9.7556  108.4179   54.7908 H         1 1TB695      0.0000 
     31 H         -13.7283  105.7904   55.9468 H         1 1TB695      0.0000 
     32 H         -10.7045  102.8328   53.2406 H         1 1TB695      0.0000 
     33 H          -6.3367  105.5945   54.5009 H         1 1TB695      0.0000 
     34 H          -6.9788  105.2810   53.0602 H         1 1TB695      0.0000 
     35 H          -6.9294  106.7926   53.6068 H         1 1TB695      0.0000 
     36 H          -7.7826  101.1960   53.3449 H         1 1TB695      0.0000 
     37 H          -9.3827  101.1078   53.2101 H         1 1TB695      0.0000 
     38 H          -8.6164  102.4666   52.8191 H         1 1TB695      0.0000 
     39 H          -5.0248  102.6142   60.3352 H         1 1TB695      0.0000 
     40 H          -6.3967  102.6721   61.1724 H         1 1TB695      0.0000 
     41 H          -5.7874  101.2528   60.7245 H         1 1TB695      0.0000 
     42 H          -3.8613  100.3583   54.7030 H         1 1TB695      0.0000 
     43 H          -3.6439   99.6983   56.1533 H         1 1TB695      0.0000 
     44 H          -4.6208   98.9939   55.0877 H         1 1TB695      0.0000 
@<TRIPOS>BOND
     1    2    1 ar   
     2    6    1 ar   
     3   28    1 1    
     4    3    2 ar   
     5   29    2 1    
     6    4    3 ar   
     7   30    3 1    
     8    5    4 ar   
     9    7    4 1    
    10    6    5 ar   
    11   11    5 1    
    12   31    6 1    
    13    8    7 1    
    14   10    7 2    
    15    9    8 1    
    16   33    9 1    
    17   34    9 1    
    18   35    9 1    
    19   12   11 1    
    20   14   11 2    
    21   15   11 2    
    22   13   12 am   
    23   32   12 1    
    24   16   13 2    
    25   17   13 am   
    26   18   17 1    
    27   24   17 1    
    28   19   18 ar   
    29   23   18 ar   
    30   20   19 ar   
    31   21   20 ar   
    32   27   20 1    
    33   22   21 ar   
    34   23   22 ar   
    35   25   22 1    
    36   36   24 1    
    37   37   24 1    
    38   38   24 1    
    39   26   25 1    
    40   39   26 1    
    41   40   26 1    
    42   41   26 1    
    43   42   27 1    
    44   43   27 1    
    45   44   27 1    
@<TRIPOS>SUBSTRUCTURE
     1 1TB695      1 GROUP   
@<TRIPOS>SET

