#    Name: 3odu_ITD_2_INTS_M
#    Modification time : Tue Mar 25 04:10:47 2014

@<TRIPOS>MOLECULE
3odu_ITD_2_INTS_M
   37     0     6     0     0
SMALL
NO_CHARGES


@<TRIPOS>ATOM
      1 O         -10.1860   15.5620   66.7750 O.2       1 ALC1        0.0000 
      2 O         -10.8110   14.7380   67.8160 O.2       5 ALL1        0.0000 
      3 O          -9.5610   16.3860   65.7340 O.2       3 ALP1        0.0000 
      4 O         -10.4605   16.3825   67.4730 O.2       1 ALC1        0.0000 
      5 O         -10.1100   18.0270   67.1300 O.2       3 ALP1        0.0000 
      6 CA        -13.3850   11.0830   73.3955 C.3       2 GLC5        0.0000 
      7 CA        -13.3540   12.6630   72.3370 C.3       6 GLL5        0.0000 
      8 CA        -13.4160    9.5030   74.4540 C.3       4 GLP5        0.0000 
      9 CA        -12.6790   14.0825   66.3060 C.3       2 GLC5        0.0000 
     10 CA        -11.5710   12.5980   66.9540 C.3       6 GLL5        0.0000 
     11 CA        -13.7870   15.5670   65.6580 C.3       4 GLP5        0.0000 
     12 O         -16.4935   13.7175   73.2755 O.2       1 ALC1        0.0000 
     13 O         -15.5300   14.1550   72.3120 O.2       5 ALL1        0.0000 
     14 O         -17.4570   13.2800   74.2390 O.2       3 ALP1        0.0000 
     15 CA        -14.4195   15.4345   68.1730 C.3       2 GLC5        0.0000 
     16 CA        -14.8540   14.1860   69.8630 C.3       6 GLL5        0.0000 
     17 CA        -13.9850   16.6830   66.4830 C.3       4 GLP5        0.0000 
     18 CA        -14.6075   14.8225   67.0540 C.3       2 GLC5        0.0000 
     19 CA        -15.4280   14.0780   68.4500 C.3       6 GLL5        0.0000 
     20 CA        -16.1495   14.1370   66.7200 C.3       2 GLC5        0.0000 
     21 CA        -16.1890   12.7690   68.2360 C.3       6 GLL5        0.0000 
     22 CA        -16.1100   15.5050   65.2040 C.3       4 GLP5        0.0000 
     23 CA        -10.5574   12.7580   65.5389 C.3       2 GLC5        0.0000 
     24 CA        -10.4180   12.6250   63.8140 C.3       4 GLP5        0.0000 
     25 CA        -16.1045   15.0025   77.4545 C.3       2 GLC5        0.0000 
     26 CA        -15.2530   15.5260   75.7230 C.3       6 GLL5        0.0000 
     27 CA        -16.8350   13.8340   78.7940 C.3       4 GLP5        0.0000 
     28 CA        -17.1633   19.1908   74.0310 C.3       2 GLC5        0.0000 
     29 CA        -16.1660   17.8740   75.6310 C.3       6 GLL5        0.0000 
     30 CA        -18.5520   20.3670   73.0720 C.3       4 GLP5        0.0000 
     31 CA        -17.8903   11.6908   67.6697 C.3       2 GLC5        0.0000 
     32 CA        -17.2940   12.5960   69.2750 C.3       6 GLL5        0.0000 
     33 CA        -19.0390   10.6990   66.5840 C.3       4 GLP5        0.0000 
     34 CA        -19.0147   12.7963   70.0018 C.3       2 GLC5        0.0000 
     35 CA        -21.0080   12.9430   70.0160 C.3       4 GLP5        0.0000 
     36 CA        -17.7592   11.0087   70.5667 C.3       2 GLC5        0.0000 
     37 CA        -18.4970    9.3680   71.1460 C.3       4 GLP5        0.0000 
@<TRIPOS>BOND
@<TRIPOS>SUBSTRUCTURE
     1 ALC1        1 GROUP        1 X    ALC  0     ROOT ALC X 1
     2 GLC5        6 GROUP        1 X    GLC  0     **** GLC X 6
     3 ALP1        3 GROUP        1 Y    ALP  0     ROOT ALP Y 8
     4 GLP5        8 GROUP        1 Y    GLP  0     **** GLP Y 13
     5 ALL1        2 GROUP        1 Z    ALL  0     ROOT ALL Z 15
     6 GLL5        7 GROUP        1 Z    GLL  0     **** GLL Z 20
@<TRIPOS>SET

