#    Name: 3odu_ITD_2_ligand
#    Modification time : Tue Mar 25 04:10:47 2014

@<TRIPOS>MOLECULE
3odu_ITD_2_ligand
   63    66     1     0     0
SMALL
NO_CHARGES


@<TRIPOS>ATOM
      1 C1         -9.1120   13.0630   67.3330 C.3       1 ITD1500     0.0000 
      2 N1        -10.8110   14.7380   67.8160 N.pl3     1 ITD1500     0.0000 
      3 S1        -11.8880   16.4990   69.6960 S.3       1 ITD1500     0.0000 
      4 C2        -10.5330   13.3050   67.8140 C.3       1 ITD1500     0.0000 
      5 N2        -11.1960   14.0500   69.8620 N.pl3     1 ITD1500     0.0000 
      6 S2        -13.3540   12.6630   72.3370 S.3       1 ITD1500     0.0000 
      7 C3        -11.5710   12.5980   66.9540 C.3       1 ITD1500     0.0000 
      8 N3        -13.8310   14.6620   73.8470 N.pl3     1 ITD1500     0.0000 
      9 C4        -11.1740   15.0820   69.0580 C.2       1 ITD1500     0.0000 
     10 N4        -15.5300   14.1550   72.3120 N.pl3     1 ITD1500     0.0000 
     11 C5        -12.0750   15.6900   71.2310 C.2       1 ITD1500     0.0000 
     12 C6        -10.6800   12.8330   69.2670 C.3       1 ITD1500     0.0000 
     13 C7        -11.6500   14.3450   71.1050 C.2       1 ITD1500     0.0000 
     14 C8        -11.7140   13.3120   72.2100 C.3       1 ITD1500     0.0000 
     15 C9        -14.3280   13.9190   72.8510 C.2       1 ITD1500     0.0000 
     16 C10       -14.3750   15.8360   74.5140 C.3       1 ITD1500     0.0000 
     17 C11       -15.2530   15.5260   75.7230 C.3       1 ITD1500     0.0000 
     18 C12       -15.4950   16.8160   76.5070 C.3       1 ITD1500     0.0000 
     19 C13       -16.1660   17.8740   75.6310 C.3       1 ITD1500     0.0000 
     20 C14       -15.3830   18.1550   74.3490 C.3       1 ITD1500     0.0000 
     21 C15       -14.9930   16.8860   73.5920 C.3       1 ITD1500     0.0000 
     22 C16       -15.9380   13.9800   70.9200 C.3       1 ITD1500     0.0000 
     23 C17       -14.8540   14.1860   69.8630 C.3       1 ITD1500     0.0000 
     24 C18       -15.4280   14.0780   68.4500 C.3       1 ITD1500     0.0000 
     25 C19       -16.1890   12.7690   68.2360 C.3       1 ITD1500     0.0000 
     26 C20       -17.2940   12.5960   69.2750 C.3       1 ITD1500     0.0000 
     27 C21       -16.7490   12.7030   70.7000 C.3       1 ITD1500     0.0000 
     28 H         -10.7286   15.2687   67.0400 H         1 ITD1500     0.0000 
     29 H         -12.8497   14.3692   74.2575 H         1 ITD1500     0.0000 
     30 H         -16.3269   14.5209   72.9472 H         1 ITD1500     0.0000 
     31 H         -12.4035   16.1983   71.8898 H         1 ITD1500     0.0000 
     32 H          -9.7266   12.5826   69.6376 H         1 ITD1500     0.0000 
     33 H         -11.3812   12.0479   69.2965 H         1 ITD1500     0.0000 
     34 H         -11.1221   12.4471   72.0153 H         1 ITD1500     0.0000 
     35 H         -11.5348   13.7178   73.1793 H         1 ITD1500     0.0000 
     36 H         -13.4575   16.3904   74.9824 H         1 ITD1500     0.0000 
     37 H         -14.7521   14.8087   76.3583 H         1 ITD1500     0.0000 
     38 H         -16.2003   15.1266   75.3881 H         1 ITD1500     0.0000 
     39 H         -14.5416   17.2008   76.8678 H         1 ITD1500     0.0000 
     40 H         -16.1338   16.6011   77.3631 H         1 ITD1500     0.0000 
     41 H         -16.2626   18.8038   76.2030 H         1 ITD1500     0.0000 
     42 H         -17.1741   17.5342   75.3680 H         1 ITD1500     0.0000 
     43 H         -14.4721   18.7153   74.6015 H         1 ITD1500     0.0000 
     44 H         -15.9904   18.7918   73.6910 H         1 ITD1500     0.0000 
     45 H         -15.8829   16.4654   73.1150 H         1 ITD1500     0.0000 
     46 H         -14.2745   17.1427   72.8083 H         1 ITD1500     0.0000 
     47 H         -16.7094   14.8266   70.7055 H         1 ITD1500     0.0000 
     48 H         -14.0774   13.4313   69.9931 H         1 ITD1500     0.0000 
     49 H         -14.4073   15.1723   69.9941 H         1 ITD1500     0.0000 
     50 H         -14.6106   14.1397   67.7254 H         1 ITD1500     0.0000 
     51 H         -16.1050   14.9190   68.2729 H         1 ITD1500     0.0000 
     52 H         -15.4921   11.9336   68.3093 H         1 ITD1500     0.0000 
     53 H         -16.6297   12.7700   67.2386 H         1 ITD1500     0.0000 
     54 H         -17.7618   11.6180   69.1434 H         1 ITD1500     0.0000 
     55 H         -18.0538   13.3657   69.1238 H         1 ITD1500     0.0000 
     56 H         -17.5865   12.6842   71.4058 H         1 ITD1500     0.0000 
     57 H         -16.1136   11.8349   70.9063 H         1 ITD1500     0.0000 
     58 H          -8.4394   13.5142   67.9196 H         1 ITD1500     0.0000 
     59 H          -8.8845   12.0893   67.3216 H         1 ITD1500     0.0000 
     60 H          -8.9701   13.4080   66.4052 H         1 ITD1500     0.0000 
     61 H         -11.5350   12.9031   66.0024 H         1 ITD1500     0.0000 
     62 H         -11.4368   11.6071   66.9493 H         1 ITD1500     0.0000 
     63 H         -12.5010   12.7663   67.2808 H         1 ITD1500     0.0000 
@<TRIPOS>BOND
     1    4    1 1    
     2   58    1 1    
     3   59    1 1    
     4   60    1 1    
     5    4    2 1    
     6    9    2 1    
     7   28    2 1    
     8    9    3 1    
     9   11    3 1    
    10    7    4 1    
    11   12    4 1    
    12    9    5 2    
    13   12    5 1    
    14   13    5 1    
    15   14    6 1    
    16   15    6 1    
    17   61    7 1    
    18   62    7 1    
    19   63    7 1    
    20   15    8 2    
    21   16    8 1    
    22   29    8 1    
    23   15   10 1    
    24   22   10 1    
    25   30   10 1    
    26   13   11 2    
    27   31   11 1    
    28   32   12 1    
    29   33   12 1    
    30   14   13 1    
    31   34   14 1    
    32   35   14 1    
    33   17   16 1    
    34   21   16 1    
    35   36   16 1    
    36   18   17 1    
    37   37   17 1    
    38   38   17 1    
    39   19   18 1    
    40   39   18 1    
    41   40   18 1    
    42   20   19 1    
    43   41   19 1    
    44   42   19 1    
    45   21   20 1    
    46   43   20 1    
    47   44   20 1    
    48   45   21 1    
    49   46   21 1    
    50   23   22 1    
    51   27   22 1    
    52   47   22 1    
    53   24   23 1    
    54   48   23 1    
    55   49   23 1    
    56   25   24 1    
    57   50   24 1    
    58   51   24 1    
    59   26   25 1    
    60   52   25 1    
    61   53   25 1    
    62   27   26 1    
    63   54   26 1    
    64   55   26 1    
    65   56   27 1    
    66   57   27 1    
@<TRIPOS>SUBSTRUCTURE
     1 ITD1500     1 GROUP   
@<TRIPOS>SET

