#    Name: 3r03_ADP_1_INTS_M
#    Modification time : Tue Mar 25 10:24:28 2014

@<TRIPOS>MOLECULE
3r03_ADP_1_INTS_M
   40     0    12     0     0
SMALL
NO_CHARGES


@<TRIPOS>ATOM
      1 NZ         42.4805   13.0335   36.4420 N.4       3 LYC4        0.0000 
      2 NZ         41.6200   14.0010   37.2710 N.4      11 LYL4        0.0000 
      3 NZ         42.4220   11.3090   35.0200 N.4       7 LYP4        0.0000 
      4 N          42.4805   13.0335   36.4420 N.am      2 SEC2        0.0000 
      5 N          41.6200   14.0010   37.2710 N.am     10 SEL2        0.0000 
      6 N          43.3410   12.0660   35.6130 N.am      6 SEP2        0.0000 
      7 N          41.3780   12.7340   36.2960 N.am      2 SEC2        0.0000 
      8 N          41.1360   11.4670   35.3210 N.am      6 SEP2        0.0000 
      9 N          43.2395   13.7195   35.6745 N.am      2 SEC2        0.0000 
     10 N          43.1380   15.3730   35.7360 N.am     10 SEL2        0.0000 
     11 NZ         41.2465   18.9025   35.5445 N.4       3 LYC4        0.0000 
     12 NZ         42.3860   17.4560   34.7650 N.4      11 LYL4        0.0000 
     13 NZ         40.1070   20.3490   36.3240 N.4       7 LYP4        0.0000 
     14 CA         39.4480   17.3965   31.8800 C.3       4 GLC5        0.0000 
     15 CA         40.0700   16.2100   33.6020 C.3      12 GLL5        0.0000 
     16 CA         38.8260   18.5830   30.1580 C.3       8 GLP5        0.0000 
     17 CA         37.4615   17.5385   33.7005 C.3       4 GLC5        0.0000 
     18 CA         38.6520   15.9150   33.9670 C.3      12 GLL5        0.0000 
     19 CA         36.2710   19.1620   33.4340 C.3       8 GLP5        0.0000 
     20 N          38.5605   13.4155   36.4345 N.am      2 SEC2        0.0000 
     21 N          38.2560   14.9100   35.6350 N.am     10 SEL2        0.0000 
     22 N          38.8650   11.9210   37.2340 N.am      6 SEP2        0.0000 
     23 CA         35.4555   15.2640   33.3825 C.3       4 GLC5        0.0000 
     24 CA         37.3930   14.6250   32.7450 C.3      12 GLL5        0.0000 
     25 CA         33.5180   15.9030   34.0200 C.3       8 GLP5        0.0000 
     26 CA         41.7510   11.6225   28.9005 C.3       4 GLC5        0.0000 
     27 CA         40.2370   12.9980   29.0620 C.3      12 GLL5        0.0000 
     28 CA         43.2650   10.2470   28.7390 C.3       8 GLP5        0.0000 
     29 O          39.6195   11.2310   26.9680 O.2       1 ALC1        0.0000 
     30 O          40.1900   12.1130   27.9100 O.2       9 ALL1        0.0000 
     31 O          39.0490   10.3490   26.0260 O.2       5 ALP1        0.0000 
     32 CA         40.9795   16.0535   29.6095 C.3       4 GLC5        0.0000 
     33 CA         41.3700   14.4650   30.5440 C.3      12 GLL5        0.0000 
     34 CA         40.5890   17.6420   28.6750 C.3       8 GLP5        0.0000 
     35 CA         40.9695   14.6635   28.5460 C.3       4 GLC5        0.0000 
     36 CA         40.5690   14.8620   26.5480 C.3       8 GLP5        0.0000 
     37 CA         39.7725   17.8628   34.3927 C.3       4 GLC5        0.0000 
     38 CA         40.1840   19.6630   35.0010 C.3       8 GLP5        0.0000 
     39 CA         40.0985   13.9770   28.0155 C.3       4 GLC5        0.0000 
     40 CA         39.0190   13.1860   29.9040 C.3      12 GLL5        0.0000 
@<TRIPOS>BOND
@<TRIPOS>SUBSTRUCTURE
     1 ALC1       29 GROUP        1 X    ALC  0     ROOT ALC X 1
     2 SEC2        4 GROUP        1 X    SEC  0     **** SEC X 2
     3 LYC4        1 GROUP        1 X    LYC  0     **** LYC X 4
     4 GLC5       14 GROUP        1 X    GLC  0     **** GLC X 6
     5 ALP1       31 GROUP        1 Y    ALP  0     ROOT ALP Y 8
     6 SEP2        6 GROUP        1 Y    SEP  0     **** SEP Y 9
     7 LYP4        3 GROUP        1 Y    LYP  0     **** LYP Y 11
     8 GLP5       16 GROUP        1 Y    GLP  0     **** GLP Y 13
     9 ALL1       30 GROUP        1 Z    ALL  0     ROOT ALL Z 15
    10 SEL2        5 GROUP        1 Z    SEL  0     **** SEL Z 16
    11 LYL4        2 GROUP        1 Z    LYL  0     **** LYL Z 18
    12 GLL5       15 GROUP        1 Z    GLL  0     **** GLL Z 20
@<TRIPOS>SET

