#    Name: 3r03_ADP_1_ligand
#    Modification time : Tue Mar 25 10:24:28 2014

@<TRIPOS>MOLECULE
3r03_ADP_1_ligand
   39    41     1     0     0
SMALL
NO_CHARGES


@<TRIPOS>ATOM
      1 PB         41.2360   15.2610   37.9220 P.3       1 ADP1        0.0000 
      2 O1B        41.6200   14.0010   37.2710 O.co2     1 ADP1        0.0000 
      3 O2B        42.2600   15.6610   38.8940 O.co2     1 ADP1        0.0000 
      4 O3B        39.7970   15.0480   38.7110 O.co2     1 ADP1        0.0000 
      5 PA         41.9700   16.1940   35.3990 P.3       1 ADP1        0.0000 
      6 O1A        43.1380   15.3730   35.7360 O.co2     1 ADP1        0.0000 
      7 O2A        42.3860   17.4560   34.7650 O.co2     1 ADP1        0.0000 
      8 O3A        41.0960   16.4320   36.7710 O.3       1 ADP1        0.0000 
      9 O5'        40.9700   15.4200   34.3360 O.3       1 ADP1        0.0000 
     10 C5'        40.0700   16.2100   33.6020 C.3       1 ADP1        0.0000 
     11 C4'        38.6520   15.9150   33.9670 C.3       1 ADP1        0.0000 
     12 O4'        37.8650   15.8320   32.8160 O.3       1 ADP1        0.0000 
     13 C3'        38.5680   14.7970   34.5850 C.3       1 ADP1        0.0000 
     14 O3'        38.2560   14.9100   35.6350 O.3       1 ADP1        0.0000 
     15 C2'        37.8740   13.9440   33.9120 C.3       1 ADP1        0.0000 
     16 O2'        36.8050   13.4210   34.6950 O.3       1 ADP1        0.0000 
     17 C1'        37.3930   14.6250   32.7450 C.3       1 ADP1        0.0000 
     18 N9         37.7900   13.9400   31.5450 N.pl3     1 ADP1        0.0000 
     19 C8         36.9470   13.0820   30.7690 C.2       1 ADP1        0.0000 
     20 N7         37.6340   12.6200   29.7930 N.2       1 ADP1        0.0000 
     21 C5         39.0190   13.1860   29.9040 C.ar      1 ADP1        0.0000 
     22 C6         40.2370   12.9980   29.0620 C.ar      1 ADP1        0.0000 
     23 N6         40.1900   12.1130   27.9100 N.pl3     1 ADP1        0.0000 
     24 N1         41.3120   13.5820   29.3530 N.ar      1 ADP1        0.0000 
     25 C2         41.3700   14.4650   30.5440 C.ar      1 ADP1        0.0000 
     26 N3         40.3160   14.6210   31.2660 N.ar      1 ADP1        0.0000 
     27 C4         39.0650   13.9520   30.9420 C.ar      1 ADP1        0.0000 
     28 H          40.1832   16.0487   32.5091 H         1 ADP1        0.0000 
     29 H          40.2485   17.2934   33.7687 H         1 ADP1        0.0000 
     30 H          38.3035   16.7670   34.5752 H         1 ADP1        0.0000 
     31 H          39.6825   14.3597   34.5398 H         1 ADP1        0.0000 
     32 H          38.4978   13.0961   33.5615 H         1 ADP1        0.0000 
     33 H          36.2852   14.6161   32.8010 H         1 ADP1        0.0000 
     34 H          36.0254   12.9335   31.0142 H         1 ADP1        0.0000 
     35 H          39.3240   11.6373   27.7556 H         1 ADP1        0.0000 
     36 H          41.0275   12.0528   27.3669 H         1 ADP1        0.0000 
     37 H          42.2837   14.9073   30.7153 H         1 ADP1        0.0000 
     38 H          37.3403   14.5103   35.6772 H         1 ADP1        0.0000 
     39 H          35.9726   13.7050   34.2190 H         1 ADP1        0.0000 
@<TRIPOS>BOND
     1    2    1 ar   
     2    3    1 ar   
     3    4    1 ar   
     4    8    1 1    
     5    6    5 ar   
     6    7    5 ar   
     7    8    5 1    
     8    9    5 1    
     9   10    9 1    
    10   11   10 1    
    11   28   10 1    
    12   29   10 1    
    13   12   11 1    
    14   13   11 1    
    15   30   11 1    
    16   17   12 1    
    17   14   13 1    
    18   15   13 1    
    19   31   13 1    
    20   38   14 1    
    21   16   15 1    
    22   17   15 1    
    23   32   15 1    
    24   39   16 1    
    25   18   17 1    
    26   33   17 1    
    27   19   18 1    
    28   27   18 1    
    29   20   19 2    
    30   34   19 1    
    31   21   20 1    
    32   22   21 ar   
    33   27   21 ar   
    34   23   22 1    
    35   24   22 ar   
    36   35   23 1    
    37   36   23 1    
    38   25   24 ar   
    39   26   25 ar   
    40   37   25 1    
    41   27   26 ar   
@<TRIPOS>SUBSTRUCTURE
     1 ADP1        1 GROUP   
@<TRIPOS>SET

