#    Name: 3oe4_610_1_INTS_M
#    Modification time : Tue Mar 25 04:11:29 2014

@<TRIPOS>MOLECULE
3oe4_610_1_INTS_M
   94     0    15     0     0
SMALL
NO_CHARGES


@<TRIPOS>ATOM
      1 CA         22.3055  -30.0975   14.0285 C.3       5 GLC5        0.0000 
      2 CA         20.3680  -30.8330   13.2990 C.3      15 GLL5        0.0000 
      3 CA         24.2430  -29.3620   14.7580 C.3      10 GLP5        0.0000 
      4 CA         18.3355  -33.0275   11.9745 C.3       5 GLC5        0.0000 
      5 CA         19.0550  -31.5850   13.4000 C.3      15 GLL5        0.0000 
      6 CA         17.6160  -34.4700   10.5490 C.3      10 GLP5        0.0000 
      7 CA         17.5565  -28.5155   13.3360 C.3       5 GLC5        0.0000 
      8 CA         17.9480  -30.5060   13.4060 C.3      15 GLL5        0.0000 
      9 CA         17.1650  -26.5250   13.2660 C.3      10 GLP5        0.0000 
     10 CA         18.5420  -28.1120   12.7760 C.3       5 GLC5        0.0000 
     11 CA         19.9190  -29.6990   12.2860 C.3      15 GLL5        0.0000 
     12 CA         21.4000  -28.4705   13.4235 C.3       5 GLC5        0.0000 
     13 CA         22.8810  -27.2420   14.5610 C.3      10 GLP5        0.0000 
     14 O          19.8065  -29.6120   15.3685 O.2       1 ALC1        0.0000 
     15 O          20.6790  -30.2280   14.5520 O.2      11 ALL1        0.0000 
     16 O          18.9340  -28.9960   16.1850 O.2       6 ALP1        0.0000 
     17 O          19.5810  -30.6195   15.6660 O.2       1 ALC1        0.0000 
     18 O          18.4830  -31.0110   16.7800 O.2       6 ALP1        0.0000 
     19 O          18.6895  -31.6975   15.6755 O.2       1 ALC1        0.0000 
     20 O          18.8960  -32.3840   14.5710 O.2      11 ALL1        0.0000 
     21 CA         20.5730  -29.0210    6.7125 C.3       5 GLC5        0.0000 
     22 CA         20.8300  -29.9760    8.5590 C.3      15 GLL5        0.0000 
     23 CA         20.3160  -28.0660    4.8660 C.3      10 GLP5        0.0000 
     24 CA         24.9220  -28.5335    7.7490 C.3       5 GLC5        0.0000 
     25 CA         23.6650  -28.8720    6.2440 C.3      15 GLL5        0.0000 
     26 CA         26.1790  -28.1950    9.2540 C.3      10 GLP5        0.0000 
     27 CA         21.9905  -28.4690    5.5550 C.3       5 GLC5        0.0000 
     28 CA         26.6355  -26.1300    3.7700 C.3       5 GLC5        0.0000 
     29 CA         25.7270  -27.3360    5.0710 C.3      15 GLL5        0.0000 
     30 CA         27.5440  -24.9240    2.4690 C.3      10 GLP5        0.0000 
     31 CA         25.0255  -30.3080    7.3270 C.3       5 GLC5        0.0000 
     32 CA         24.6470  -29.4920    5.5110 C.3      15 GLL5        0.0000 
     33 CA         25.4040  -31.1240    9.1430 C.3      10 GLP5        0.0000 
     34 NZ         21.4615  -26.9185    6.5590 N.4       3 LYC4        0.0000 
     35 NZ         22.7810  -26.7590    7.1430 N.4      13 LYL4        0.0000 
     36 NZ         20.1420  -27.0780    5.9750 N.4       8 LYP4        0.0000 
     37 Zn         22.8540  -25.7195    6.9850 Zn        4 ZIC7        0.0000 
     38 Zn         22.7810  -26.7590    7.1430 Zn       14 ZIL7        0.0000 
     39 Zn         22.9270  -24.6800    6.8270 Zn        9 ZIP7        0.0000 
     40 N          21.4615  -26.9185    6.5590 N.am      2 SEC2        0.0000 
     41 N          22.7810  -26.7590    7.1430 N.am     12 SEL2        0.0000 
     42 N          20.1420  -27.0780    5.9750 N.am      7 SEP2        0.0000 
     43 Zn         23.8690  -25.0450    6.4455 Zn        4 ZIC7        0.0000 
     44 Zn         24.8110  -25.4100    6.0640 Zn       14 ZIL7        0.0000 
     45 N          24.3140  -25.1155    4.8070 N.am      2 SEC2        0.0000 
     46 N          24.8110  -25.4100    6.0640 N.am     12 SEL2        0.0000 
     47 N          23.8170  -24.8210    3.5500 N.am      7 SEP2        0.0000 
     48 O          25.9525  -25.1810    6.4295 O.2       1 ALC1        0.0000 
     49 O          24.8110  -25.4100    6.0640 O.2      11 ALL1        0.0000 
     50 O          27.0940  -24.9520    6.7950 O.2       6 ALP1        0.0000 
     51 CA         11.8255  -31.7380   13.9340 C.3       5 GLC5        0.0000 
     52 CA         13.2220  -30.9850   12.3980 C.3      15 GLL5        0.0000 
     53 CA         10.4290  -32.4910   15.4700 C.3      10 GLP5        0.0000 
     54 CA         11.5955  -29.8140   12.4995 C.3       5 GLC5        0.0000 
     55 CA          9.9690  -28.6430   12.6010 C.3      10 GLP5        0.0000 
     56 CA         13.2960  -29.7345   11.0030 C.3       5 GLC5        0.0000 
     57 CA         13.3700  -28.4840    9.6080 C.3      10 GLP5        0.0000 
     58 N          11.4045  -30.4600   13.8610 N.am      2 SEC2        0.0000 
     59 N          12.7710  -30.4450   13.5460 N.am     12 SEL2        0.0000 
     60 N          10.0380  -30.4750   14.1760 N.am      7 SEP2        0.0000 
     61 CA         12.8760  -28.1935   15.3835 C.3       5 GLC5        0.0000 
     62 CA         13.6800  -30.0480   14.4920 C.3      15 GLL5        0.0000 
     63 CA         12.0720  -26.3390   16.2750 C.3      10 GLP5        0.0000 
     64 CA         14.7070  -29.4795   16.0565 C.3       5 GLC5        0.0000 
     65 CA         15.7340  -28.9110   17.6210 C.3      10 GLP5        0.0000 
     66 CA         14.1370  -31.6980   15.2615 C.3       5 GLC5        0.0000 
     67 CA         14.5940  -33.3480   16.0310 C.3      10 GLP5        0.0000 
     68 CA         12.0545  -31.2695   14.9810 C.3       5 GLC5        0.0000 
     69 CA         11.8245  -29.3455   13.5465 C.3       5 GLC5        0.0000 
     70 N          15.2075  -30.7285   15.7755 N.am      2 SEC2        0.0000 
     71 N          15.0100  -30.1620   14.3570 N.am     12 SEL2        0.0000 
     72 N          15.4050  -31.2950   17.1940 N.am      7 SEP2        0.0000 
     73 CA         17.1683  -32.3252   14.3355 C.3       5 GLC5        0.0000 
     74 CA         15.8350  -33.6050   15.2680 C.3      10 GLP5        0.0000 
     75 CA         18.5717  -29.0188   10.4297 C.3       5 GLC5        0.0000 
     76 CA         17.1280  -28.0790    9.2580 C.3      10 GLP5        0.0000 
     77 CA         18.9230  -28.9023    9.2592 C.3       5 GLC5        0.0000 
     78 CA         22.4477  -29.9776    9.7811 C.3       5 GLC5        0.0000 
     79 CA         24.3010  -30.0440   10.0630 C.3      10 GLP5        0.0000 
     80 CA         19.5482  -31.5816    9.1916 C.3       5 GLC5        0.0000 
     81 CA         20.6060  -29.4750    9.9620 C.3      15 GLL5        0.0000 
     82 CA         18.5020  -33.2520    8.8840 C.3      10 GLP5        0.0000 
     83 CA         24.4932  -27.5837    3.6463 C.3       5 GLC5        0.0000 
     84 CA         24.7600  -26.7690    5.8440 C.3      15 GLL5        0.0000 
     85 CA         23.7430  -28.1150    1.8350 C.3      10 GLP5        0.0000 
     86 CA         25.8189  -28.0514    7.2239 C.3       5 GLC5        0.0000 
     87 CA         24.4095  -29.3202    3.6584 C.3       5 GLC5        0.0000 
     88 CA         25.6740  -28.7630    4.9300 C.3      15 GLL5        0.0000 
     89 CA         23.9040  -29.6680    1.9130 C.3      10 GLP5        0.0000 
     90 CA         15.4300  -32.2608   13.9775 C.3       5 GLC5        0.0000 
     91 CA         14.5670  -31.1260   12.1690 C.3      15 GLL5        0.0000 
     92 CA         15.4595  -29.5748   11.3850 C.3       5 GLC5        0.0000 
     93 CA         15.4830  -30.7070   13.2050 C.3      15 GLL5        0.0000 
     94 CA         15.8940  -28.2330   10.0830 C.3      10 GLP5        0.0000 
@<TRIPOS>BOND
@<TRIPOS>SUBSTRUCTURE
     1 ALC1       14 GROUP        1 X    ALC  0     ROOT ALC X 1
     2 SEC2       40 GROUP        1 X    SEC  0     **** SEC X 2
     3 LYC4       34 GROUP        1 X    LYC  0     **** LYC X 4
     4 ZIC7       37 GROUP        1 X    ZIC  0     **** ZIC X 5
     5 GLC5        1 GROUP        1 X    GLC  0     **** GLC X 6
     6 ALP1       16 GROUP        1 Y    ALP  0     ROOT ALP Y 8
     7 SEP2       42 GROUP        1 Y    SEP  0     **** SEP Y 9
     8 LYP4       36 GROUP        1 Y    LYP  0     **** LYP Y 11
     9 ZIP7       39 GROUP        1 Y    ZIP  0     **** ZIP Y 12
    10 GLP5        3 GROUP        1 Y    GLP  0     **** GLP Y 13
    11 ALL1       15 GROUP        1 Z    ALL  0     ROOT ALL Z 15
    12 SEL2       41 GROUP        1 Z    SEL  0     **** SEL Z 16
    13 LYL4       35 GROUP        1 Z    LYL  0     **** LYL Z 18
    14 ZIL7       38 GROUP        1 Z    ZIL  0     **** ZIL Z 19
    15 GLL5        2 GROUP        1 Z    GLL  0     **** GLL Z 20
@<TRIPOS>SET

