#    Name: 3oe4_610_1_ligand
#    Modification time : Tue Mar 25 04:11:29 2014

@<TRIPOS>MOLECULE
3oe4_610_1_ligand
   50    53     1     0     0
SMALL
NO_CHARGES


@<TRIPOS>ATOM
      1 C1         20.3680  -30.8330   13.2990 C.3       1 610223      0.0000 
      2 C2         19.0550  -31.5850   13.4000 C.3       1 610223      0.0000 
      3 C3         17.9480  -30.5060   13.4060 C.3       1 610223      0.0000 
      4 O4         18.5380  -29.4770   12.5630 O.3       1 610223      0.0000 
      5 C5         19.9190  -29.6990   12.2860 C.3       1 610223      0.0000 
      6 C6         20.1120  -30.2180   10.9170 C.2       1 610223      0.0000 
      7 N7         16.7500  -30.9170   12.7460 N.pl3     1 610223      0.0000 
      8 O8         20.6790  -30.2280   14.5520 O.3       1 610223      0.0000 
      9 O9         18.8960  -32.3840   14.5710 O.3       1 610223      0.0000 
     10 C10        20.6060  -29.4750    9.9620 C.2       1 610223      0.0000 
     11 C11        16.5960  -31.4860   11.4470 C.2       1 610223      0.0000 
     12 N12        15.3130  -31.5890   11.1080 N.2       1 610223      0.0000 
     13 C13        20.8300  -29.9760    8.5590 C.3       1 610223      0.0000 
     14 N14        21.8230  -29.2160    7.8310 N.am      1 610223      0.0000 
     15 C15        22.6290  -29.6950    6.8770 C.2       1 610223      0.0000 
     16 C16        23.6650  -28.8720    6.2440 C.ar      1 610223      0.0000 
     17 C17        23.7050  -27.4560    6.4640 C.ar      1 610223      0.0000 
     18 C18        24.7600  -26.7690    5.8440 C.ar      1 610223      0.0000 
     19 C19        25.7270  -27.3360    5.0710 C.ar      1 610223      0.0000 
     20 C20        25.6740  -28.7630    4.9300 C.ar      1 610223      0.0000 
     21 C21        24.6470  -29.4920    5.5110 C.ar      1 610223      0.0000 
     22 N22        26.6590  -29.3870    4.1400 N.pl3     1 610223      0.0000 
     23 O23        22.7810  -26.7590    7.1430 O.co2     1 610223      0.0000 
     24 O24        24.8110  -25.4100    6.0640 O.3       1 610223      0.0000 
     25 O25        22.5020  -30.8900    6.4760 O.2       1 610223      0.0000 
     26 O26        27.4260  -28.7540    3.4750 O.2       1 610223      0.0000 
     27 O27        26.6000  -30.6250    4.1570 O.2       1 610223      0.0000 
     28 C28        15.4830  -30.7070   13.2050 C.ar      1 610223      0.0000 
     29 C29        14.5670  -31.1260   12.1690 C.ar      1 610223      0.0000 
     30 C30        13.2220  -30.9850   12.3980 C.ar      1 610223      0.0000 
     31 N31        12.7710  -30.4450   13.5460 N.ar      1 610223      0.0000 
     32 C32        13.6800  -30.0480   14.4920 C.ar      1 610223      0.0000 
     33 N33        15.0100  -30.1620   14.3570 N.ar      1 610223      0.0000 
     34 H          21.0788  -31.3975   12.8538 H         1 610223      0.0000 
     35 H          18.9104  -32.1535   12.4924 H         1 610223      0.0000 
     36 H          17.8172  -30.1517   14.3727 H         1 610223      0.0000 
     37 H          20.5194  -28.8610   12.4800 H         1 610223      0.0000 
     38 H          19.8244  -31.2118   10.7823 H         1 610223      0.0000 
     39 H          20.8855  -28.4723   10.0956 H         1 610223      0.0000 
     40 H          17.3687  -31.7504   10.9132 H         1 610223      0.0000 
     41 H          19.8561  -29.9573    8.0247 H         1 610223      0.0000 
     42 H          21.1229  -31.0462    8.6159 H         1 610223      0.0000 
     43 H          21.8853  -28.1855    8.1110 H         1 610223      0.0000 
     44 H          26.4495  -26.8176    4.6119 H         1 610223      0.0000 
     45 H          24.6256  -30.5233    5.3862 H         1 610223      0.0000 
     46 H          12.5486  -31.3037   11.6662 H         1 610223      0.0000 
     47 H          13.2920  -29.6209   15.3924 H         1 610223      0.0000 
     48 H          19.8139  -29.8453   14.8763 H         1 610223      0.0000 
     49 H          18.7157  -31.7314   15.3069 H         1 610223      0.0000 
     50 H          25.4970  -25.2897    6.7816 H         1 610223      0.0000 
@<TRIPOS>BOND
     1    2    1 1    
     2    5    1 1    
     3    8    1 1    
     4   34    1 1    
     5    3    2 1    
     6    9    2 1    
     7   35    2 1    
     8    4    3 1    
     9    7    3 1    
    10   36    3 1    
    11    5    4 1    
    12    6    5 1    
    13   37    5 1    
    14   10    6 2    
    15   38    6 1    
    16   11    7 1    
    17   28    7 1    
    18   48    8 1    
    19   49    9 1    
    20   13   10 1    
    21   39   10 1    
    22   12   11 2    
    23   40   11 1    
    24   29   12 1    
    25   14   13 1    
    26   41   13 1    
    27   42   13 1    
    28   15   14 am   
    29   43   14 1    
    30   16   15 1    
    31   25   15 2    
    32   17   16 ar   
    33   21   16 ar   
    34   18   17 ar   
    35   23   17 ar   
    36   19   18 ar   
    37   24   18 1    
    38   20   19 ar   
    39   44   19 1    
    40   21   20 ar   
    41   22   20 1    
    42   45   21 1    
    43   26   22 2    
    44   27   22 2    
    45   50   24 1    
    46   29   28 ar   
    47   33   28 ar   
    48   30   29 ar   
    49   31   30 ar   
    50   46   30 1    
    51   32   31 ar   
    52   33   32 ar   
    53   47   32 1    
@<TRIPOS>SUBSTRUCTURE
     1 610223      1 GROUP   
@<TRIPOS>SET

