#    Name: 4b1c_1B1_1_INTS_M
#    Modification time : Tue Mar 25 06:32:59 2014

@<TRIPOS>MOLECULE
4b1c_1B1_1_INTS_M
   54     0     6     0     0
SMALL
NO_CHARGES


@<TRIPOS>ATOM
      1 O           3.0465    3.0245  -21.0665 O.2       1 ALC1        0.0000 
      2 O           4.1790    2.8010  -20.3620 O.2       5 ALL1        0.0000 
      3 O           1.9140    3.2480  -21.7710 O.2       3 ALP1        0.0000 
      4 CA          2.5390    1.8350  -18.5265 C.3       2 GLC5        0.0000 
      5 CA          4.1540    3.1200  -19.1080 C.3       6 GLL5        0.0000 
      6 CA          0.9240    0.5500  -17.9450 C.3       4 GLP5        0.0000 
      7 O           1.8500    3.3820  -19.1555 O.2       1 ALC1        0.0000 
      8 O           3.0640    3.4890  -18.3610 O.2       5 ALL1        0.0000 
      9 O           0.6360    3.2750  -19.9500 O.2       3 ALP1        0.0000 
     10 CA          4.6460    2.4070  -23.7400 C.3       2 GLC5        0.0000 
     11 CA          5.2470    4.1570  -22.6500 C.3       6 GLL5        0.0000 
     12 CA          4.0450    0.6570  -24.8300 C.3       4 GLP5        0.0000 
     13 CA          2.4660   -0.8885  -18.5265 C.3       2 GLC5        0.0000 
     14 CA          4.0080   -2.3270  -19.1080 C.3       6 GLL5        0.0000 
     15 CA          4.0405   -6.2625  -18.2625 C.3       2 GLC5        0.0000 
     16 CA          4.6330   -4.4310  -18.1440 C.3       6 GLL5        0.0000 
     17 CA          3.4480   -8.0940  -18.3810 C.3       4 GLP5        0.0000 
     18 CA          6.9360   -4.7290  -20.7075 C.3       2 GLC5        0.0000 
     19 CA          6.0140   -3.4410  -19.6000 C.3       6 GLL5        0.0000 
     20 CA          7.8580   -6.0170  -21.8150 C.3       4 GLP5        0.0000 
     21 CA          1.6205   -3.2925  -19.5505 C.3       2 GLC5        0.0000 
     22 CA          2.5450   -3.4330  -17.5170 C.3       6 GLL5        0.0000 
     23 CA          0.6960   -3.1520  -21.5840 C.3       4 GLP5        0.0000 
     24 CA          2.1810   -1.6205  -15.7570 C.3       2 GLC5        0.0000 
     25 CA          1.5470   -3.4700  -16.8540 C.3       6 GLL5        0.0000 
     26 CA          2.8150    0.2290  -14.6600 C.3       4 GLP5        0.0000 
     27 CA          0.0465   -5.2865  -15.0680 C.3       2 GLC5        0.0000 
     28 CA          0.3430   -3.5170  -16.0580 C.3       6 GLL5        0.0000 
     29 CA         -0.2500   -7.0560  -14.0780 C.3       4 GLP5        0.0000 
     30 CA          0.4340   -4.6750  -17.6490 C.3       2 GLC5        0.0000 
     31 CA          0.5250   -5.8330  -19.2400 C.3       4 GLP5        0.0000 
     32 CA         -1.5810   -4.5410  -16.4200 C.3       2 GLC5        0.0000 
     33 CA         -3.5050   -5.5650  -16.7820 C.3       4 GLP5        0.0000 
     34 CA         -0.5650   -3.4245  -14.5970 C.3       2 GLC5        0.0000 
     35 CA         -1.4730   -3.3320  -13.1360 C.3       4 GLP5        0.0000 
     36 CA          5.1238    0.7993  -23.2623 C.3       2 GLC5        0.0000 
     37 CA          6.5630    0.8030  -22.2660 C.3       6 GLL5        0.0000 
     38 CA          3.6865   -0.8295  -21.4100 C.3       2 GLC5        0.0000 
     39 CA          5.4060    0.0310  -20.3510 C.3       6 GLL5        0.0000 
     40 CA          1.8540   -1.0330  -22.3020 C.3       4 GLP5        0.0000 
     41 CA          5.3022   -0.1872  -23.5318 C.3       2 GLC5        0.0000 
     42 CA          6.3290   -1.5540  -21.8440 C.3       6 GLL5        0.0000 
     43 CA          3.9555    5.5275  -22.3677 C.3       2 GLC5        0.0000 
     44 CA          2.3950    6.5160  -22.6790 C.3       4 GLP5        0.0000 
     45 CA          7.0488    4.7551  -22.9220 C.3       2 GLC5        0.0000 
     46 CA          8.4960    5.3350  -23.7420 C.3       4 GLP5        0.0000 
     47 CA          3.2278   -1.6855  -20.8782 C.3       2 GLC5        0.0000 
     48 CA          5.1950   -2.3490  -19.8010 C.3       6 GLL5        0.0000 
     49 CA          2.3545   -4.8730  -18.7240 C.3       2 GLC5        0.0000 
     50 CA          3.7350   -3.3950  -18.2720 C.3       6 GLL5        0.0000 
     51 CA          1.2855   -4.6423  -18.2127 C.3       2 GLC5        0.0000 
     52 CA          1.4850   -1.4507  -17.5652 C.3       2 GLC5        0.0000 
     53 CA          1.8775   -3.2737  -14.6005 C.3       2 GLC5        0.0000 
     54 CA          2.8100   -3.0540  -12.7450 C.3       4 GLP5        0.0000 
@<TRIPOS>BOND
@<TRIPOS>SUBSTRUCTURE
     1 ALC1        1 GROUP        1 X    ALC  0     ROOT ALC X 1
     2 GLC5        4 GROUP        1 X    GLC  0     **** GLC X 6
     3 ALP1        3 GROUP        1 Y    ALP  0     ROOT ALP Y 8
     4 GLP5        6 GROUP        1 Y    GLP  0     **** GLP Y 13
     5 ALL1        2 GROUP        1 Z    ALL  0     ROOT ALL Z 15
     6 GLL5        5 GROUP        1 Z    GLL  0     **** GLL Z 20
@<TRIPOS>SET

