#    Name: 4b1c_1B1_1_ligand
#    Modification time : Tue Mar 25 06:32:59 2014

@<TRIPOS>MOLECULE
4b1c_1B1_1_ligand
   45    48     1     0     0
SMALL
NO_CHARGES


@<TRIPOS>ATOM
      1 C1          5.5840    2.4870  -20.6520 C.3       1 1B11504     0.0000 
      2 N1          4.1790    2.8010  -20.3620 N.pl3     1 1B11504     0.0000 
      3 C2          4.1540    3.1200  -19.1080 C.2       1 1B11504     0.0000 
      4 C4          6.1270    3.4660  -21.6450 C.3       1 1B11504     0.0000 
      5 C5          5.8420    1.0800  -21.1230 C.ar      1 1B11504     0.0000 
      6 C6          5.4060    0.0310  -20.3510 C.ar      1 1B11504     0.0000 
      7 C7          5.6320   -1.2830  -20.6850 C.ar      1 1B11504     0.0000 
      8 C8          6.3290   -1.5540  -21.8440 C.ar      1 1B11504     0.0000 
      9 C9          6.7900   -0.5090  -22.6230 C.ar      1 1B11504     0.0000 
     10 C10         6.5630    0.8030  -22.2660 C.ar      1 1B11504     0.0000 
     11 N3          3.0640    3.4890  -18.3610 N.pl3     1 1B11504     0.0000 
     12 C11         5.8580    3.2720  -17.0860 C.3       1 1B11504     0.0000 
     13 C13         5.7850    4.9210  -21.4630 C.3       1 1B11504     0.0000 
     14 C12         5.2470    4.1570  -22.6500 C.3       1 1B11504     0.0000 
     15 C14         5.1950   -2.3490  -19.8010 C.ar      1 1B11504     0.0000 
     16 C15         4.0080   -2.3270  -19.1080 C.ar      1 1B11504     0.0000 
     17 C16         3.7350   -3.3950  -18.2720 C.ar      1 1B11504     0.0000 
     18 C17         4.6330   -4.4310  -18.1440 C.ar      1 1B11504     0.0000 
     19 C19         6.0140   -3.4410  -19.6000 C.ar      1 1B11504     0.0000 
     20 C21         2.5450   -3.4330  -17.5170 C.1       1 1B11504     0.0000 
     21 N17         6.3760    2.6490  -19.4060 N.2       1 1B11504     0.0000 
     22 N5          5.7930   -4.4860  -18.8000 N.ar      1 1B11504     0.0000 
     23 C18         5.5190    3.0110  -18.5250 C.2       1 1B11504     0.0000 
     24 C22         1.5470   -3.4700  -16.8540 C.1       1 1B11504     0.0000 
     25 C23         0.3430   -3.5170  -16.0580 C.3       1 1B11504     0.0000 
     26 H           3.5169    2.7490  -21.0223 H         1 1B11504     0.0000 
     27 H           7.0340    3.4595  -22.0331 H         1 1B11504     0.0000 
     28 H           4.8761    0.2419  -19.4656 H         1 1B11504     0.0000 
     29 H           6.5054   -2.5266  -22.1281 H         1 1B11504     0.0000 
     30 H           7.3179   -0.7185  -23.4945 H         1 1B11504     0.0000 
     31 H           6.9280    1.5692  -22.8467 H         1 1B11504     0.0000 
     32 H           6.5241    5.4376  -21.7580 H         1 1B11504     0.0000 
     33 H           5.0929    4.9835  -20.8171 H         1 1B11504     0.0000 
     34 H           4.3456    3.9248  -22.4646 H         1 1B11504     0.0000 
     35 H           5.7768    4.3789  -23.4056 H         1 1B11504     0.0000 
     36 H           3.3529   -1.5572  -19.2033 H         1 1B11504     0.0000 
     37 H           4.3709   -5.2220  -17.4815 H         1 1B11504     0.0000 
     38 H           6.9461   -3.4335  -20.1685 H         1 1B11504     0.0000 
     39 H           6.8332    3.1444  -16.9051 H         1 1B11504     0.0000 
     40 H           5.6293    4.2068  -16.8142 H         1 1B11504     0.0000 
     41 H           5.3631    2.6585  -16.4707 H         1 1B11504     0.0000 
     42 H           0.0334   -4.4559  -15.9080 H         1 1B11504     0.0000 
     43 H           0.4773   -3.1052  -15.1567 H         1 1B11504     0.0000 
     44 H          -0.4106   -3.0261  -16.4952 H         1 1B11504     0.0000 
     45 H           2.2850    3.4089  -18.9829 H         1 1B11504     0.0000 
@<TRIPOS>BOND
     1    2    1 1    
     2    4    1 1    
     3    5    1 1    
     4   21    1 1    
     5    3    2 1    
     6   26    2 1    
     7   11    3 2    
     8   23    3 1    
     9   13    4 1    
    10   14    4 1    
    11   27    4 1    
    12    6    5 ar   
    13   10    5 ar   
    14    7    6 ar   
    15   28    6 1    
    16    8    7 ar   
    17   15    7 1    
    18    9    8 ar   
    19   29    8 1    
    20   10    9 ar   
    21   30    9 1    
    22   31   10 1    
    23   45   11 1    
    24   23   12 1    
    25   39   12 1    
    26   40   12 1    
    27   41   12 1    
    28   14   13 1    
    29   32   13 1    
    30   33   13 1    
    31   34   14 1    
    32   35   14 1    
    33   16   15 ar   
    34   19   15 ar   
    35   17   16 ar   
    36   36   16 1    
    37   18   17 ar   
    38   20   17 1    
    39   22   18 ar   
    40   37   18 1    
    41   22   19 ar   
    42   38   19 1    
    43   24   20 3    
    44   23   21 2    
    45   25   24 1    
    46   42   25 1    
    47   43   25 1    
    48   44   25 1    
@<TRIPOS>SUBSTRUCTURE
     1 1B11504     1 GROUP   
@<TRIPOS>SET

