#    Name: 1cde_GAR_7_INTS_M
#    Modification time : Mon Mar 24 20:30:53 2014

@<TRIPOS>MOLECULE
1cde_GAR_7_INTS_M
   38     0     9     0     0
SMALL
NO_CHARGES


@<TRIPOS>ATOM
      1 N          37.5975   27.0510   21.4300 N.am      2 SEC2        0.0000 
      2 N          37.0780   26.9010   20.1120 N.am      8 SEL2        0.0000 
      3 N          38.1170   27.2010   22.7480 N.am      5 SEP2        0.0000 
      4 O          36.0700   26.1885   20.4335 O.2       1 ALC1        0.0000 
      5 O          37.0780   26.9010   20.1120 O.2       7 ALL1        0.0000 
      6 O          35.0620   25.4760   20.7550 O.2       4 ALP1        0.0000 
      7 CA         36.2835   24.2460   17.2345 C.3       3 GLC5        0.0000 
      8 CA         37.1820   26.0190   17.7310 C.3       9 GLL5        0.0000 
      9 CA         35.3850   22.4730   16.7380 C.3       6 GLP5        0.0000 
     10 O          35.4600   25.9915   19.1925 O.2       1 ALC1        0.0000 
     11 O          35.8580   26.5070   17.6300 O.2       7 ALL1        0.0000 
     12 O          34.8320   26.3055   18.3500 O.2       1 ALC1        0.0000 
     13 O          33.8060   26.1040   19.0700 O.2       4 ALP1        0.0000 
     14 CA         39.6875   25.3825   16.6835 C.3       3 GLC5        0.0000 
     15 CA         38.0910   26.9480   16.9220 C.3       9 GLL5        0.0000 
     16 CA         41.2840   23.8170   16.4450 C.3       6 GLP5        0.0000 
     17 CA         40.7695   27.5265   13.2970 C.3       3 GLC5        0.0000 
     18 CA         38.7610   26.8990   13.0230 C.3       9 GLL5        0.0000 
     19 CA         42.7780   28.1540   13.5710 C.3       6 GLP5        0.0000 
     20 CA         36.7880   27.7605   12.3830 C.3       3 GLC5        0.0000 
     21 CA         34.8150   28.6220   11.7430 C.3       6 GLP5        0.0000 
     22 N          39.4260   22.0410   22.3510 N.am      2 SEC2        0.0000 
     23 N          40.1240   23.0140   21.3640 N.am      8 SEL2        0.0000 
     24 N          38.7280   21.0680   23.3380 N.am      5 SEP2        0.0000 
     25 N          38.4025   22.9925   21.4140 N.am      2 SEC2        0.0000 
     26 N          36.6810   22.9710   21.4640 N.am      5 SEP2        0.0000 
     27 N          40.9535   23.3050   23.8855 N.am      2 SEC2        0.0000 
     28 N          40.6590   24.6680   23.3150 N.am      8 SEL2        0.0000 
     29 N          41.2480   21.9420   24.4560 N.am      5 SEP2        0.0000 
     30 N          39.7050   24.1590   24.0615 N.am      2 SEC2        0.0000 
     31 N          38.7510   23.6500   24.8080 N.am      5 SEP2        0.0000 
     32 N          42.9555   23.4735   22.2440 N.am      2 SEC2        0.0000 
     33 N          42.1420   24.4570   21.3830 N.am      8 SEL2        0.0000 
     34 N          43.7690   22.4900   23.1050 N.am      5 SEP2        0.0000 
     35 CA         36.2927   27.5427   16.1943 C.3       3 GLC5        0.0000 
     36 CA         34.9490   28.6020   15.0620 C.3       6 GLP5        0.0000 
     37 CA         40.4610   24.9388   17.8508 C.3       3 GLC5        0.0000 
     38 CA         39.1370   26.5650   18.9720 C.3       9 GLL5        0.0000 
@<TRIPOS>BOND
@<TRIPOS>SUBSTRUCTURE
     1 ALC1        4 GROUP        1 X    ALC  0     ROOT ALC X 1
     2 SEC2        1 GROUP        1 X    SEC  0     **** SEC X 2
     3 GLC5        7 GROUP        1 X    GLC  0     **** GLC X 6
     4 ALP1        6 GROUP        1 Y    ALP  0     ROOT ALP Y 8
     5 SEP2        3 GROUP        1 Y    SEP  0     **** SEP Y 9
     6 GLP5        9 GROUP        1 Y    GLP  0     **** GLP Y 13
     7 ALL1        5 GROUP        1 Z    ALL  0     ROOT ALL Z 15
     8 SEL2        2 GROUP        1 Z    SEL  0     **** SEL Z 16
     9 GLL5        8 GROUP        1 Z    GLL  0     **** GLL Z 20
@<TRIPOS>SET

