#    Name: 1cde_GAR_7_ligand
#    Modification time : Mon Mar 24 20:30:53 2014

@<TRIPOS>MOLECULE
1cde_GAR_7_ligand
   32    32     1     0     0
SMALL
NO_CHARGES


@<TRIPOS>ATOM
      1 C1         37.7440   26.0380   19.1690 C.3       1 GAR222      0.0000 
      2 O6         37.0780   26.9010   20.1120 O.3       1 GAR222      0.0000 
      3 C2         37.1820   26.0190   17.7310 C.3       1 GAR222      0.0000 
      4 O8         35.8580   26.5070   17.6300 O.3       1 GAR222      0.0000 
      5 C3         38.0910   26.9480   16.9220 C.3       1 GAR222      0.0000 
      6 O4         39.3360   26.7280   17.5640 O.3       1 GAR222      0.0000 
      7 C5         39.1370   26.5650   18.9720 C.3       1 GAR222      0.0000 
      8 C10        40.1390   25.5560   19.5410 C.3       1 GAR222      0.0000 
      9 O12        39.9070   25.3500   20.9380 O.3       1 GAR222      0.0000 
     10 N19        38.2340   26.6080   15.4690 N.am      1 GAR222      0.0000 
     11 C21        38.6350   27.4440   14.4780 C.2       1 GAR222      0.0000 
     12 O22        38.8180   28.6410   14.6940 O.2       1 GAR222      0.0000 
     13 C23        38.7610   26.8990   13.0230 C.3       1 GAR222      0.0000 
     14 N24        37.7050   27.1930   12.0000 N.4       1 GAR222      0.0000 
     15 P15        40.7990   24.3870   21.7590 P.3       1 GAR222      0.0000 
     16 O16        40.1240   23.0140   21.3640 O.co2     1 GAR222      0.0000 
     17 O17        40.6590   24.6680   23.3150 O.co2     1 GAR222      0.0000 
     18 O18        42.1420   24.4570   21.3830 O.co2     1 GAR222      0.0000 
     19 H          37.8313   25.0289   19.5082 H         1 GAR222      0.0000 
     20 H          37.3033   25.0337   17.3359 H         1 GAR222      0.0000 
     21 H          37.7710   27.9461   17.0660 H         1 GAR222      0.0000 
     22 H          39.2382   27.4871   19.4961 H         1 GAR222      0.0000 
     23 H          41.1485   25.9459   19.3506 H         1 GAR222      0.0000 
     24 H          40.0325   24.6231   18.9702 H         1 GAR222      0.0000 
     25 H          37.9833   25.5964   15.2462 H         1 GAR222      0.0000 
     26 H          38.8967   25.7763   13.1037 H         1 GAR222      0.0000 
     27 H          39.7659   27.2455   12.6286 H         1 GAR222      0.0000 
     28 H          37.6001   28.1755   11.8463 H         1 GAR222      0.0000 
     29 H          37.9196   26.7792   11.1153 H         1 GAR222      0.0000 
     30 H          36.8106   26.8427   12.2782 H         1 GAR222      0.0000 
     31 H          36.5784   26.2836   20.7196 H         1 GAR222      0.0000 
     32 H          35.3758   26.1104   18.4111 H         1 GAR222      0.0000 
@<TRIPOS>BOND
     1    2    1 1    
     2    3    1 1    
     3    7    1 1    
     4   19    1 1    
     5   31    2 1    
     6    4    3 1    
     7    5    3 1    
     8   20    3 1    
     9   32    4 1    
    10    6    5 1    
    11   10    5 1    
    12   21    5 1    
    13    7    6 1    
    14    8    7 1    
    15   22    7 1    
    16    9    8 1    
    17   23    8 1    
    18   24    8 1    
    19   15    9 1    
    20   11   10 am   
    21   25   10 1    
    22   12   11 2    
    23   13   11 1    
    24   14   13 1    
    25   26   13 1    
    26   27   13 1    
    27   28   14 1    
    28   29   14 1    
    29   30   14 1    
    30   16   15 ar   
    31   17   15 ar   
    32   18   15 ar   
@<TRIPOS>SUBSTRUCTURE
     1 GAR222      1 GROUP   
@<TRIPOS>SET

