#    Name: 3NY9_3_CAVITY_N1_6.mol2
#    Modification time : Tue Mar 11 18:45:10 2014

@<TRIPOS>MOLECULE
3NY9_3_CAVITY_N1_6.mol2
  114     0     6     0     0
SMALL
NO_CHARGES


@<TRIPOS>ATOM
      1 CA          5.6986   11.3490   58.8750 C.3       5 GLY6        0.0000 
      2 N           3.7666   10.6151   58.3968 N.2       2 ALA2        0.0000 
      3 NZ          5.0890    9.9869   58.7231 N.2       3 LYS4        0.0000 
      4 CA          6.4115    9.3587   59.0494 C.3       5 GLY6        0.0000 
      5 N           1.8345    9.8812   57.9186 N.2       2 ALA2        0.0000 
      6 O           3.1570    9.2530   58.2449 O.2       2 ALA2        0.0000 
      7 O           4.4795    8.6248   58.5712 O.2       2 ALA2        0.0000 
      8 O           5.3456   13.3407   57.2444 O.2       2 ALA2        0.0000 
      9 O           3.4136   12.6067   56.7663 O.2       2 ALA2        0.0000 
     10 O           4.7360   11.9785   57.0925 O.2       2 ALA2        0.0000 
     11 CA          6.0585   11.3503   57.4188 C.3       5 GLY6        0.0000 
     12 CZ          2.8040   11.2446   56.6144 C.ar      4 PHE5        0.0000 
     13 DU          4.1265   10.6164   56.9406 H         6 CUB7        0.0000 
     14 CA          5.4489    9.9882   57.2669 C.3       5 GLY6        0.0000 
     15 CA          6.7714    9.3600   57.5932 C.3       5 GLY6        0.0000 
     16 CZ          2.1944    9.8825   56.4625 C.ar      4 PHE5        0.0000 
     17 CA          3.5169    9.2543   56.7887 C.3       5 GLY6        0.0000 
     18 CZ          4.8394    8.6261   57.1150 C.ar      4 PHE5        0.0000 
     19 CA          1.5849    8.5204   56.3105 C.3       5 GLY6        0.0000 
     20 CZ          4.2298    7.2640   56.9631 C.ar      4 PHE5        0.0000 
     21 CA          3.1140    1.1873   56.6817 C.3       5 GLY6        0.0000 
     22 OG          2.5044   -0.1748   56.5298 O.2       1 SER1        0.0000 
     23 O           4.3830   13.9702   55.4620 O.2       2 ALA2        0.0000 
     24 O           5.7055   13.3420   55.7883 O.2       2 ALA2        0.0000 
     25 CA          7.0279   12.7138   56.1145 C.3       5 GLY6        0.0000 
     26 CZ          3.7735   12.6081   55.3101 C.ar      4 PHE5        0.0000 
     27 CZ          5.0959   11.9799   55.6364 C.ar      4 PHE5        0.0000 
     28 CA          6.4184   11.3517   55.9626 C.3       5 GLY6        0.0000 
     29 CZ          4.4864   10.6178   55.4844 C.ar      4 PHE5        0.0000 
     30 CA          5.8088    9.9896   55.8107 C.3       5 GLY6        0.0000 
     31 CA          7.1313    9.3614   56.1370 C.3       5 GLY6        0.0000 
     32 CZ          2.5543    9.8839   55.0063 C.ar      4 PHE5        0.0000 
     33 N           3.8768    9.2557   55.3325 N.2       2 ALA2        0.0000 
     34 CZ          5.1993    8.6275   55.6588 C.ar      4 PHE5        0.0000 
     35 CZ          0.6223    9.1499   54.5281 C.ar      4 PHE5        0.0000 
     36 CA          1.9448    8.5217   54.8544 C.3       5 GLY6        0.0000 
     37 CA          3.2672    7.8935   55.1806 C.3       5 GLY6        0.0000 
     38 CZ          4.5897    7.2653   55.5069 C.ar      4 PHE5        0.0000 
     39 CZ          1.3352    7.1596   54.7025 C.ar      4 PHE5        0.0000 
     40 CZ          2.6577    6.5314   55.0287 C.ar      4 PHE5        0.0000 
     41 CZ          2.1514    1.8169   54.8993 C.ar      4 PHE5        0.0000 
     42 N           3.4739    1.1887   55.2255 N.2       2 ALA2        0.0000 
     43 CZ          0.2194    1.0830   54.4211 C.ar      4 PHE5        0.0000 
     44 CZ          1.5419    0.4548   54.7474 C.ar      4 PHE5        0.0000 
     45 O           2.8643   -0.1734   55.0736 O.2       2 ALA2        0.0000 
     46 NZ          2.1652    5.8029   48.7258 N.2       3 LYS4        0.0000 
     47 CZ          3.4877    5.1747   49.0521 C.ar      4 PHE5        0.0000 
     48 CA          1.5557    4.4408   48.5739 C.3       5 GLY6        0.0000 
     49 CZ          2.8781    3.8126   48.9002 C.ar      4 PHE5        0.0000 
     50 CA          0.9461    3.0786   48.4220 C.3       5 GLY6        0.0000 
     51 CA          0.3365    1.7165   48.2701 C.3       5 GLY6        0.0000 
     52 CZ          1.6590    1.0883   48.5964 C.ar      4 PHE5        0.0000 
     53 CA          4.7429   13.9715   54.0058 C.3       5 GLY6        0.0000 
     54 O           6.0654   13.3433   54.3321 O.2       2 ALA2        0.0000 
     55 CA          7.3878   12.7151   54.6583 C.3       5 GLY6        0.0000 
     56 CZ          4.1333   12.6094   53.8539 C.ar      4 PHE5        0.0000 
     57 OG          5.4558   11.9812   54.1802 O.2       1 SER1        0.0000 
     58 CA          6.7783   11.3530   54.5064 C.3       5 GLY6        0.0000 
     59 OG          3.5238   11.2473   53.7020 O.2       1 SER1        0.0000 
     60 N           4.8462   10.6191   54.0283 N.2       2 ALA2        0.0000 
     61 N           6.1687    9.9909   54.3545 N.2       2 ALA2        0.0000 
     62 CZ          1.5918   10.5134   53.2238 C.ar      4 PHE5        0.0000 
     63 OG          2.9142    9.8852   53.5501 O.2       1 SER1        0.0000 
     64 NZ          0.9822    9.1513   53.0719 N.2       3 LYS4        0.0000 
     65 N           2.3047    8.5231   53.3982 N.2       2 ALA2        0.0000 
     66 N           3.6271    7.8949   53.7244 N.2       2 ALA2        0.0000 
     67 CA          0.3726    7.7892   52.9200 C.3       5 GLY6        0.0000 
     68 CZ          1.6951    7.1610   53.2463 C.ar      4 PHE5        0.0000 
     69 N           3.0176    6.5328   53.5725 N.2       2 ALA2        0.0000 
     70 CA         -0.2369    6.4271   52.7681 C.3       5 GLY6        0.0000 
     71 CZ          1.0855    5.7989   53.0944 C.ar      4 PHE5        0.0000 
     72 CZ          2.4080    5.1706   53.4206 C.ar      4 PHE5        0.0000 
     73 CZ          0.4760    4.4367   52.9425 C.ar      4 PHE5        0.0000 
     74 CZ          1.7984    3.8085   53.2687 C.ar      4 PHE5        0.0000 
     75 OG          3.1209    3.1803   53.5950 O.2       1 SER1        0.0000 
     76 CZ         -0.1336    3.0746   52.7906 C.ar      4 PHE5        0.0000 
     77 CZ          1.1889    2.4464   53.1168 C.ar      4 PHE5        0.0000 
     78 CZ          2.5113    1.8182   53.4431 C.ar      4 PHE5        0.0000 
     79 OG         -0.7431    1.7125   52.6386 O.2       1 SER1        0.0000 
     80 CZ          0.5793    1.0843   52.9649 C.ar      4 PHE5        0.0000 
     81 O           1.9018    0.4561   53.2912 O.2       2 ALA2        0.0000 
     82 CA         -0.0302   -0.2778   52.8130 C.3       5 GLY6        0.0000 
     83 OG          1.2922   -0.9060   53.1393 O.2       1 SER1        0.0000 
     84 CZ          5.8157   11.9826   52.7240 C.ar      4 PHE5        0.0000 
     85 NZ          2.6646    8.5244   51.9420 N.2       3 LYS4        0.0000 
     86 NZ          0.7325    7.7905   51.4638 N.2       3 LYS4        0.0000 
     87 NZ          2.0550    7.1623   51.7901 N.2       3 LYS4        0.0000 
     88 N           3.3775    6.5341   52.1164 N.2       2 ALA2        0.0000 
     89 CA          1.4454    5.8002   51.6382 C.3       5 GLY6        0.0000 
     90 CZ          2.7679    5.1720   51.9644 C.ar      4 PHE5        0.0000 
     91 CA          0.8359    4.4381   51.4863 C.3       5 GLY6        0.0000 
     92 DU          2.1583    3.8099   51.8125 H         6 CUB7        0.0000 
     93 CZ          3.4808    3.1817   52.1388 C.ar      4 PHE5        0.0000 
     94 CA          0.2263    3.0760   51.3344 C.3       5 GLY6        0.0000 
     95 DU          1.5488    2.4478   51.6606 H         6 CUB7        0.0000 
     96 O           2.8712    1.8196   51.9869 O.2       2 ALA2        0.0000 
     97 OG         -0.3833    1.7138   51.1825 O.2       1 SER1        0.0000 
     98 OG          0.9392    1.0856   51.5087 O.2       1 SER1        0.0000 
     99 OG          2.2617    0.4574   51.8350 O.2       1 SER1        0.0000 
    100 OG          1.6521   -0.9047   51.6831 O.2       1 SER1        0.0000 
    101 NZ          2.4149    7.1637   50.3339 N.2       3 LYS4        0.0000 
    102 N           3.7374    6.5354   50.6602 N.2       2 ALA2        0.0000 
    103 NZ          0.4829    6.4297   49.8557 N.2       3 LYS4        0.0000 
    104 NZ          1.8053    5.8015   50.1820 N.2       3 LYS4        0.0000 
    105 CZ          3.1278    5.1733   50.5083 C.ar      4 PHE5        0.0000 
    106 CA          1.1958    4.4394   50.0301 C.3       5 GLY6        0.0000 
    107 CZ          2.5182    3.8112   50.3564 C.ar      4 PHE5        0.0000 
    108 CZ          3.8407    3.1830   50.6826 C.ar      4 PHE5        0.0000 
    109 CA          0.5862    3.0773   49.8782 C.3       5 GLY6        0.0000 
    110 CZ          1.9087    2.4491   50.2044 C.ar      4 PHE5        0.0000 
    111 CZ          3.2311    1.8209   50.5307 C.ar      4 PHE5        0.0000 
    112 CA         -0.0234    1.7152   49.7263 C.3       5 GLY6        0.0000 
    113 CZ          1.2991    1.0870   50.0525 C.ar      4 PHE5        0.0000 
    114 OG          0.6895   -0.2751   49.9006 O.2       1 SER1        0.0000 
@<TRIPOS>BOND
@<TRIPOS>SUBSTRUCTURE
     1 SER1       22 GROUP   
     2 ALA2        2 GROUP   
     3 LYS4        3 GROUP   
     4 PHE5       12 GROUP   
     5 GLY6        1 GROUP   
     6 CUB7       13 GROUP   
@<TRIPOS>SET

