#    Name: 3ny9_JSZ_3_INTS_M
#    Modification time : Tue Mar 25 02:57:06 2014

@<TRIPOS>MOLECULE
3ny9_JSZ_3_INTS_M
   64     0    12     0     0
SMALL
NO_CHARGES


@<TRIPOS>ATOM
      1 OD1         2.3560    9.1275   49.8710 O.co2     3 ASC3        0.0000 
      2 OD1         2.5850    8.4060   52.1110 O.co2    11 ASL3        0.0000 
      3 OD1         0.9130    8.7560   48.7610 O.co2     7 ASP3        0.0000 
      4 OD1         1.9510    9.3050   51.2205 O.co2     3 ASC3        0.0000 
      5 OD1         1.3170   10.2040   50.3300 O.co2     7 ASP3        0.0000 
      6 CA          1.8325    1.9560   55.6150 C.3       4 GLC5        0.0000 
      7 CA          3.3000    0.3450   55.8030 C.3      12 GLL5        0.0000 
      8 CA          0.3650    3.5670   55.4270 C.3       8 GLP5        0.0000 
      9 CA          2.9715   -1.5695   56.3115 C.3       4 GLC5        0.0000 
     10 CA          2.6430   -3.4840   56.8200 C.3       8 GLP5        0.0000 
     11 N           4.2095    0.1675   53.8750 N.am      2 SEC2        0.0000 
     12 N           3.1650    0.7940   54.4480 N.am     10 SEL2        0.0000 
     13 N           5.2540   -0.4590   53.3020 N.am      6 SEP2        0.0000 
     14 CA          2.4525    2.9930   56.3900 C.3       4 GLC5        0.0000 
     15 CA          3.7210    1.5050   56.6810 C.3      12 GLL5        0.0000 
     16 CA          1.1840    4.4810   56.0990 C.3       8 GLP5        0.0000 
     17 CA          5.1155    3.1205   56.2435 C.3       4 GLC5        0.0000 
     18 CA          6.5100    4.7360   55.8060 C.3       8 GLP5        0.0000 
     19 N           4.8070    8.4465   49.6905 N.am      2 SEC2        0.0000 
     20 N           3.3950    8.0510   49.4120 N.am     10 SEL2        0.0000 
     21 N           6.2190    8.8420   49.9690 N.am      6 SEP2        0.0000 
     22 O           2.1540    8.4035   49.0865 O.2       1 ALC1        0.0000 
     23 O           3.3950    8.0510   49.4120 O.2       9 ALL1        0.0000 
     24 O           0.9130    8.7560   48.7610 O.2       5 ALP1        0.0000 
     25 O           2.3560    9.1275   49.8710 O.2       1 ALC1        0.0000 
     26 O           1.3170   10.2040   50.3300 O.2       5 ALP1        0.0000 
     27 CA          1.4495    3.6465   54.0855 C.3       4 GLC5        0.0000 
     28 CA          2.5340    3.7260   52.7440 C.3      12 GLL5        0.0000 
     29 CA          4.4195    4.2175   52.3125 C.3       4 GLC5        0.0000 
     30 CA          6.3050    4.7090   51.8810 C.3       8 GLP5        0.0000 
     31 CA          2.6825    6.1590   47.5230 C.3       4 GLC5        0.0000 
     32 CA          3.1720    5.6400   49.5280 C.3      12 GLL5        0.0000 
     33 CA          2.1930    6.6780   45.5180 C.3       8 GLP5        0.0000 
     34 CA          4.6980    4.7895   50.1250 C.3       4 GLC5        0.0000 
     35 CA          6.2240    3.9390   50.7220 C.3       8 GLP5        0.0000 
     36 CA          4.8515    5.8230   51.0950 C.3       4 GLC5        0.0000 
     37 CA          3.3980    6.9370   50.3090 C.3      12 GLL5        0.0000 
     38 CA          0.6640    8.4390   50.6245 C.3       4 GLC5        0.0000 
     39 CA          2.3140    7.1680   51.3580 C.3      12 GLL5        0.0000 
     40 CA         -0.9860    9.7100   49.8910 C.3       8 GLP5        0.0000 
     41 CA          2.1555   11.1410   54.4270 C.3       4 GLC5        0.0000 
     42 CA          2.9570    9.4320   54.3170 C.3      12 GLL5        0.0000 
     43 CA          1.3540   12.8500   54.5370 C.3       8 GLP5        0.0000 
     44 CA         -0.5465    7.4740   54.3955 C.3       4 GLC5        0.0000 
     45 CA          1.3080    7.5640   54.0740 C.3      12 GLL5        0.0000 
     46 CA         -2.4010    7.3840   54.7170 C.3       8 GLP5        0.0000 
     47 CA          1.2460    6.0225   55.0865 C.3       4 GLC5        0.0000 
     48 CA          1.7463    1.1425   57.2070 C.3       4 GLC5        0.0000 
     49 CA         -0.0180    1.3600   58.1720 C.3       8 GLP5        0.0000 
     50 CA         -0.0585    4.0485   50.5165 C.3       4 GLC5        0.0000 
     51 CA          1.6300    2.6950   50.6270 C.3      12 GLL5        0.0000 
     52 CA         -1.7250    4.8880   50.8820 C.3       8 GLP5        0.0000 
     53 CA         -0.8167    2.3045   49.4005 C.3       4 GLC5        0.0000 
     54 CA          1.2150    1.4050   50.2760 C.3      12 GLL5        0.0000 
     55 CA         -2.6170    3.3410   49.1660 C.3       8 GLP5        0.0000 
     56 CA          0.0275    0.2563   47.5910 C.3       4 GLC5        0.0000 
     57 CA          0.7520    1.1310   48.9940 C.3      12 GLL5        0.0000 
     58 CA         -0.6740   -1.1320   46.6600 C.3       8 GLP5        0.0000 
     59 CA         -0.8528    3.0713   48.6930 C.3       4 GLC5        0.0000 
     60 CA          0.7060    2.1580   48.0500 C.3      12 GLL5        0.0000 
     61 CA          1.6507    3.5048   46.6285 C.3       4 GLC5        0.0000 
     62 CA          2.3900    4.2080   45.0370 C.3       8 GLP5        0.0000 
     63 CA          4.7725    6.3918   48.6317 C.3       4 GLC5        0.0000 
     64 CA          6.2600    6.4950   47.3450 C.3       8 GLP5        0.0000 
@<TRIPOS>BOND
@<TRIPOS>SUBSTRUCTURE
     1 ALC1       22 GROUP        1 X    ALC  0     ROOT ALC X 1
     2 SEC2       11 GROUP        1 X    SEC  0     **** SEC X 2
     3 ASC3        1 GROUP        1 X    ASC  0     **** ASC X 3
     4 GLC5        6 GROUP        1 X    GLC  0     **** GLC X 6
     5 ALP1       24 GROUP        1 Y    ALP  0     ROOT ALP Y 8
     6 SEP2       13 GROUP        1 Y    SEP  0     **** SEP Y 9
     7 ASP3        3 GROUP        1 Y    ASP  0     **** ASP Y 10
     8 GLP5        8 GROUP        1 Y    GLP  0     **** GLP Y 13
     9 ALL1       23 GROUP        1 Z    ALL  0     ROOT ALL Z 15
    10 SEL2       12 GROUP        1 Z    SEL  0     **** SEL Z 16
    11 ASL3        2 GROUP        1 Z    ASL  0     **** ASL Z 17
    12 GLL5        7 GROUP        1 Z    GLL  0     **** GLL Z 20
@<TRIPOS>SET

