#    Name: 3ny9_JSZ_3_ligand
#    Modification time : Tue Mar 25 02:57:06 2014

@<TRIPOS>MOLECULE
3ny9_JSZ_3_ligand
   48    49     1     0     0
SMALL
NO_CHARGES


@<TRIPOS>ATOM
      1 C1          2.0170    0.4330   53.6230 C.2       1 JSZ1203     0.0000 
      2 N1          2.5850    8.4060   52.1110 N.4       1 JSZ1203     0.0000 
      3 O1          1.2340   -0.4270   53.9870 O.2       1 JSZ1203     0.0000 
      4 C2          3.3000    0.3450   55.8030 C.3       1 JSZ1203     0.0000 
      5 O2          3.1650    0.7940   54.4480 O.3       1 JSZ1203     0.0000 
      6 C3          3.7210    1.5050   56.6810 C.3       1 JSZ1203     0.0000 
      7 O3          1.2950    0.4860   51.2400 O.3       1 JSZ1203     0.0000 
      8 C4          1.7900    1.1250   52.3330 C.2       1 JSZ1203     0.0000 
      9 O4          1.9680    5.0080   49.9790 O.3       1 JSZ1203     0.0000 
     10 C5          2.0130    2.5450   51.9700 C.2       1 JSZ1203     0.0000 
     11 O5          3.3950    8.0510   49.4120 O.3       1 JSZ1203     0.0000 
     12 C6          2.5340    3.7260   52.7440 C.3       1 JSZ1203     0.0000 
     13 C7          1.6300    2.6950   50.6270 C.ar      1 JSZ1203     0.0000 
     14 C8          1.2150    1.4050   50.2760 C.ar      1 JSZ1203     0.0000 
     15 C9          0.7520    1.1310   48.9940 C.ar      1 JSZ1203     0.0000 
     16 C10         0.7060    2.1580   48.0500 C.ar      1 JSZ1203     0.0000 
     17 C11         1.1170    3.4450   48.3900 C.ar      1 JSZ1203     0.0000 
     18 C12         1.5860    3.7230   49.6750 C.ar      1 JSZ1203     0.0000 
     19 C13         3.1720    5.6400   49.5280 C.3       1 JSZ1203     0.0000 
     20 C14         3.3980    6.9370   50.3090 C.3       1 JSZ1203     0.0000 
     21 C15         2.3140    7.1680   51.3580 C.3       1 JSZ1203     0.0000 
     22 C16         2.6280    8.1420   53.5720 C.3       1 JSZ1203     0.0000 
     23 C17         2.9570    9.4320   54.3170 C.3       1 JSZ1203     0.0000 
     24 C18         1.3080    7.5640   54.0740 C.3       1 JSZ1203     0.0000 
     25 H           4.0567   -0.4427   55.8907 H         1 JSZ1203     0.0000 
     26 H           2.3545   -0.0514   56.1899 H         1 JSZ1203     0.0000 
     27 H           0.4477    0.1875   48.7429 H         1 JSZ1203     0.0000 
     28 H           0.3665    1.9624   47.0982 H         1 JSZ1203     0.0000 
     29 H           1.0749    4.1985   47.6882 H         1 JSZ1203     0.0000 
     30 H           3.1218    5.8950   48.4642 H         1 JSZ1203     0.0000 
     31 H           4.0476    5.0005   49.6819 H         1 JSZ1203     0.0000 
     32 H           4.3495    6.8651   50.8205 H         1 JSZ1203     0.0000 
     33 H           1.3481    7.2309   50.8502 H         1 JSZ1203     0.0000 
     34 H           2.2930    6.3064   52.0302 H         1 JSZ1203     0.0000 
     35 H           3.4169    7.4249   53.7855 H         1 JSZ1203     0.0000 
     36 H           3.8242    1.2291   57.6366 H         1 JSZ1203     0.0000 
     37 H           4.5966    1.8914   56.3912 H         1 JSZ1203     0.0000 
     38 H           3.0518    2.2479   56.6610 H         1 JSZ1203     0.0000 
     39 H           3.4646    3.5713   53.0758 H         1 JSZ1203     0.0000 
     40 H           2.5559    4.5555   52.1859 H         1 JSZ1203     0.0000 
     41 H           1.9672    3.9255   53.5434 H         1 JSZ1203     0.0000 
     42 H           3.8416    9.8063   54.0388 H         1 JSZ1203     0.0000 
     43 H           2.2728   10.1420   54.1503 H         1 JSZ1203     0.0000 
     44 H           2.9969    9.2899   55.3060 H         1 JSZ1203     0.0000 
     45 H           1.0838    6.7015   53.6204 H         1 JSZ1203     0.0000 
     46 H           1.3327    7.3806   55.0567 H         1 JSZ1203     0.0000 
     47 H           0.5436    8.1880   53.9115 H         1 JSZ1203     0.0000 
     48 H           2.4286    8.2434   49.2417 H         1 JSZ1203     0.0000 
@<TRIPOS>BOND
     1    3    1 2    
     2    5    1 1    
     3    8    1 1    
     4   21    2 1    
     5   22    2 1    
     6    5    4 1    
     7    6    4 1    
     8   25    4 1    
     9   26    4 1    
    10   36    6 1    
    11   37    6 1    
    12   38    6 1    
    13    8    7 1    
    14   14    7 1    
    15   10    8 2    
    16   18    9 1    
    17   19    9 1    
    18   12   10 1    
    19   13   10 1    
    20   20   11 1    
    21   48   11 1    
    22   39   12 1    
    23   40   12 1    
    24   41   12 1    
    25   14   13 ar   
    26   18   13 ar   
    27   15   14 ar   
    28   16   15 ar   
    29   27   15 1    
    30   17   16 ar   
    31   28   16 1    
    32   18   17 ar   
    33   29   17 1    
    34   20   19 1    
    35   30   19 1    
    36   31   19 1    
    37   21   20 1    
    38   32   20 1    
    39   33   21 1    
    40   34   21 1    
    41   23   22 1    
    42   24   22 1    
    43   35   22 1    
    44   42   23 1    
    45   43   23 1    
    46   44   23 1    
    47   45   24 1    
    48   46   24 1    
    49   47   24 1    
@<TRIPOS>SUBSTRUCTURE
     1 JSZ1203     1 GROUP   
@<TRIPOS>SET

