#    Name: 3q96_0NF_1_INTS_M
#    Modification time : Tue Mar 25 09:04:59 2014

@<TRIPOS>MOLECULE
3q96_0NF_1_INTS_M
  101     0    12     0     0
SMALL
NO_CHARGES


@<TRIPOS>ATOM
      1 CA         20.5050   -6.4865  -12.9845 C.3       4 GLC5        0.0000 
      2 CA         19.9690   -8.0270  -11.8030 C.3      12 GLL5        0.0000 
      3 CA         21.0410   -4.9460  -14.1660 C.3       8 GLP5        0.0000 
      4 CA         20.4910   -9.1335  -13.4155 C.3       4 GLC5        0.0000 
      5 CA         21.0130  -10.2400  -15.0280 C.3       8 GLP5        0.0000 
      6 CA         20.5265   -7.7550   -9.7695 C.3       4 GLC5        0.0000 
      7 CA         21.0840   -7.4830   -7.7360 C.3       8 GLP5        0.0000 
      8 CA         24.7715   -1.1875   -8.7610 C.3       4 GLC5        0.0000 
      9 CA         25.6150   -2.7940   -7.4800 C.3      12 GLL5        0.0000 
     10 CA         23.9280    0.4190  -10.0420 C.3       8 GLP5        0.0000 
     11 CA         25.7355   -3.9210   -3.1585 C.3       4 GLC5        0.0000 
     12 CA         27.0820   -2.1650   -3.4050 C.3      12 GLL5        0.0000 
     13 CA         24.3890   -5.6770   -2.9120 C.3       8 GLP5        0.0000 
     14 CA         29.7580   -0.4490   -1.5725 C.3       4 GLC5        0.0000 
     15 CA         27.5500   -0.4540   -1.7680 C.3      12 GLL5        0.0000 
     16 CA         31.9660   -0.4440   -1.3770 C.3       8 GLP5        0.0000 
     17 OD1        24.4090    1.6005   -1.7925 O.co2     3 ASC3        0.0000 
     18 OD1        26.1000    2.2630   -1.3720 O.co2    11 ASL3        0.0000 
     19 OD1        22.7180    0.9380   -2.2130 O.co2     7 ASP3        0.0000 
     20 CA         30.5480    2.1295   -1.5160 C.3       4 GLC5        0.0000 
     21 CA         28.5300    2.2890   -1.4540 C.3      12 GLL5        0.0000 
     22 CA         32.5660    1.9700   -1.5780 C.3       8 GLP5        0.0000 
     23 CA         27.8155    2.0495   -5.1895 C.3       4 GLC5        0.0000 
     24 CA         27.1690    2.9480   -3.4640 C.3      12 GLL5        0.0000 
     25 CA         28.4620    1.1510   -6.9150 C.3       8 GLP5        0.0000 
     26 CA         30.1145   -1.3680   -0.6930 C.3       4 GLC5        0.0000 
     27 CA         28.2630   -2.2920   -0.0090 C.3      12 GLL5        0.0000 
     28 CA         29.6300   -1.5765    1.1870 C.3       4 GLC5        0.0000 
     29 CA         30.9970   -0.8610    2.3830 C.3       8 GLP5        0.0000 
     30 CA         25.8765   -5.2540    0.0385 C.3       4 GLC5        0.0000 
     31 CA         26.8270   -3.6610   -0.9560 C.3      12 GLL5        0.0000 
     32 CA         24.9260   -6.8470    1.0330 C.3       8 GLP5        0.0000 
     33 CA         25.6080   -4.6690   -1.9340 C.3       4 GLC5        0.0000 
     34 CA         30.4350   -2.0080   -1.5145 C.3       4 GLC5        0.0000 
     35 CA         28.9040   -3.5720   -1.6520 C.3      12 GLL5        0.0000 
     36 CA         29.5005   -3.7480   -3.4115 C.3       4 GLC5        0.0000 
     37 CA         30.0970   -3.9240   -5.1710 C.3       8 GLP5        0.0000 
     38 O          26.2860   -0.5370   -6.5405 O.2       1 ALC1        0.0000 
     39 O          26.3110   -1.5200   -5.5610 O.2       9 ALL1        0.0000 
     40 O          26.2610    0.4460   -7.5200 O.2       5 ALP1        0.0000 
     41 N          24.9205   -3.6375   -4.5085 N.am      2 SEC2        0.0000 
     42 N          26.1720   -3.7920   -5.3720 N.am     10 SEL2        0.0000 
     43 N          23.6690   -3.4830   -3.6450 N.am      6 SEP2        0.0000 
     44 CA         28.5395   -2.7470   -7.7785 C.3       4 GLC5        0.0000 
     45 CA         26.8460   -3.0280   -8.3630 C.3      12 GLL5        0.0000 
     46 CA         30.2330   -2.4660   -7.1940 C.3       8 GLP5        0.0000 
     47 CA         26.3130   -5.2895   -9.6785 C.3       4 GLC5        0.0000 
     48 CA         24.4520   -4.3780   -9.1310 C.3      12 GLL5        0.0000 
     49 CA         28.1740   -6.2010  -10.2260 C.3       8 GLP5        0.0000 
     50 CA         24.2530  -11.4235  -11.8080 C.3       4 GLC5        0.0000 
     51 CA         23.5290  -10.0160  -10.3800 C.3      12 GLL5        0.0000 
     52 CA         24.9770  -12.8310  -13.2360 C.3       8 GLP5        0.0000 
     53 CA         23.1810  -11.8385   -9.7195 C.3       4 GLC5        0.0000 
     54 CA         22.8330  -13.6610   -9.0590 C.3       8 GLP5        0.0000 
     55 N          22.9720  -12.0920  -11.0755 N.am      2 SEC2        0.0000 
     56 N          22.4580  -10.7110  -10.7270 N.am     10 SEL2        0.0000 
     57 N          23.4860  -13.4730  -11.4240 N.am      6 SEP2        0.0000 
     58 CA         22.0845  -11.8890  -10.1165 C.3       4 GLC5        0.0000 
     59 CA         21.3360  -10.1170  -11.1740 C.3      12 GLL5        0.0000 
     60 CA         19.2345   -9.8730  -13.3170 C.3       4 GLC5        0.0000 
     61 CA         18.7060   -8.8590  -11.5750 C.3      12 GLL5        0.0000 
     62 CA         19.7630  -10.8870  -15.0590 C.3       8 GLP5        0.0000 
     63 O          20.4890  -12.5465  -11.4360 O.2       1 ALC1        0.0000 
     64 O          20.2430  -10.9230  -11.5090 O.2       9 ALL1        0.0000 
     65 O          20.7350  -14.1700  -11.3630 O.2       5 ALP1        0.0000 
     66 CA         23.2622   -8.3652  -12.3878 C.3       4 GLC5        0.0000 
     67 CA         21.2410   -8.7270  -11.2920 C.3      12 GLL5        0.0000 
     68 CA         24.7200   -8.3750  -13.6650 C.3       8 GLP5        0.0000 
     69 CA         24.1217   -8.8485  -12.0442 C.3       4 GLC5        0.0000 
     70 CA         23.5180   -8.6280  -10.4670 C.3      12 GLL5        0.0000 
     71 CA         24.5183   -9.5100   -8.9638 C.3       4 GLC5        0.0000 
     72 CA         25.5130   -9.6980   -7.5040 C.3       8 GLP5        0.0000 
     73 CA         18.0292   -7.7525  -13.0925 C.3       4 GLC5        0.0000 
     74 CA         16.7210   -7.0620  -14.4960 C.3       8 GLP5        0.0000 
     75 CA         22.3885   -5.2570  -12.7050 C.3       4 GLC5        0.0000 
     76 CA         23.2950   -5.7770  -10.7450 C.3      12 GLL5        0.0000 
     77 CA         24.2280   -6.9715  -12.4545 C.3       4 GLC5        0.0000 
     78 CA         24.1770   -5.3590  -11.7430 C.3      12 GLL5        0.0000 
     79 CA         24.6875   -3.1445  -12.2665 C.3       4 GLC5        0.0000 
     80 CA         24.6870   -1.3760  -12.9480 C.3       8 GLP5        0.0000 
     81 CA         26.4310   -5.5570  -10.9055 C.3       4 GLC5        0.0000 
     82 CA         25.1990   -4.4670  -11.4270 C.3      12 GLL5        0.0000 
     83 CA         25.2995   -2.4315  -11.4685 C.3       4 GLC5        0.0000 
     84 CA         25.3410   -3.9740  -10.1300 C.3      12 GLL5        0.0000 
     85 CA         25.0669   -5.9908   -8.4366 C.3       4 GLC5        0.0000 
     86 CA         25.9720   -7.2560   -7.3340 C.3       8 GLP5        0.0000 
     87 CA         28.4975   -2.8020   -4.5183 C.3       4 GLC5        0.0000 
     88 CA         26.7140   -1.1950   -4.3260 C.3      12 GLL5        0.0000 
     89 CA         26.0696   -3.1611    0.4502 C.3       4 GLC5        0.0000 
     90 CA         24.6880   -3.2010    1.6680 C.3       8 GLP5        0.0000 
     91 CA         29.3949   -3.8634    0.4208 C.3       4 GLC5        0.0000 
     92 CA         27.8880   -2.8710   -1.1490 C.3      12 GLL5        0.0000 
     93 CA         30.3000   -4.6500    1.9570 C.3       8 GLP5        0.0000 
     94 CA         27.6543    0.3626   -5.3680 C.3       4 GLC5        0.0000 
     95 CA         25.9680   -5.2204   -7.6525 C.3       4 GLC5        0.0000 
     96 CA         24.5490   -3.8890   -7.6780 C.3      12 GLL5        0.0000 
     97 CA         28.1707   -2.6000  -10.1582 C.3       4 GLC5        0.0000 
     98 CA         29.6770   -2.1860  -11.2110 C.3       8 GLP5        0.0000 
     99 CA         27.2765   -4.7293   -9.7010 C.3       4 GLC5        0.0000 
    100 CA         25.1887   -0.8163   -3.4431 C.3       4 GLC5        0.0000 
    101 CA         23.3870   -1.0110   -3.4540 C.3       8 GLP5        0.0000 
@<TRIPOS>BOND
@<TRIPOS>SUBSTRUCTURE
     1 ALC1       38 GROUP        1 X    ALC  0     ROOT ALC X 1
     2 SEC2       41 GROUP        1 X    SEC  0     **** SEC X 2
     3 ASC3       17 GROUP        1 X    ASC  0     **** ASC X 3
     4 GLC5        1 GROUP        1 X    GLC  0     **** GLC X 6
     5 ALP1       40 GROUP        1 Y    ALP  0     ROOT ALP Y 8
     6 SEP2       43 GROUP        1 Y    SEP  0     **** SEP Y 9
     7 ASP3       19 GROUP        1 Y    ASP  0     **** ASP Y 10
     8 GLP5        3 GROUP        1 Y    GLP  0     **** GLP Y 13
     9 ALL1       39 GROUP        1 Z    ALL  0     ROOT ALL Z 15
    10 SEL2       42 GROUP        1 Z    SEL  0     **** SEL Z 16
    11 ASL3       18 GROUP        1 Z    ASL  0     **** ASL Z 17
    12 GLL5        2 GROUP        1 Z    GLL  0     **** GLL Z 20
@<TRIPOS>SET

