#    Name: 3q96_0NF_1_ligand
#    Modification time : Tue Mar 25 09:04:59 2014

@<TRIPOS>MOLECULE
3q96_0NF_1_ligand
   69    73     1     0     0
SMALL
NO_CHARGES


@<TRIPOS>ATOM
      1 C4         21.2410   -8.7270  -11.2920 C.ar      1 0NF1        0.0000 
      2 C5         22.3680   -7.9840  -10.9290 C.ar      1 0NF1        0.0000 
      3 C6         23.5180   -8.6280  -10.4670 C.ar      1 0NF1        0.0000 
      4 C8         18.9570  -10.3740  -11.6970 C.2       1 0NF1        0.0000 
      5 C10        19.9690   -8.0270  -11.8030 C.3       1 0NF1        0.0000 
      6 C13        24.1770   -5.3590  -11.7430 C.ar      1 0NF1        0.0000 
      7 C15        25.3410   -3.9740  -10.1300 C.ar      1 0NF1        0.0000 
      8 C17        23.4270   -5.2750   -9.4480 C.ar      1 0NF1        0.0000 
      9 C20        25.6150   -2.7940   -7.4800 C.3       1 0NF1        0.0000 
     10 C21        24.5490   -3.8890   -7.6780 C.3       1 0NF1        0.0000 
     11 C22        26.0590   -2.7520   -6.0190 C.2       1 0NF1        0.0000 
     12 C26        27.0820   -2.1650   -3.4050 C.ar      1 0NF1        0.0000 
     13 C28        27.5500   -0.4540   -1.7680 C.ar      1 0NF1        0.0000 
     14 N33        26.1000    2.2630   -1.3720 N.4       1 0NF1        0.0000 
     15 C32        27.2500    2.0160   -2.2500 C.3       1 0NF1        0.0000 
     16 C38        28.5300    2.2890   -1.4540 C.3       1 0NF1        0.0000 
     17 C39        27.1690    2.9480   -3.4640 C.3       1 0NF1        0.0000 
     18 C29        27.1910    0.5350   -2.6780 C.ar      1 0NF1        0.0000 
     19 C30        26.7670    0.1520   -3.9540 C.ar      1 0NF1        0.0000 
     20 C27        27.4980   -1.7920   -2.1370 C.ar      1 0NF1        0.0000 
     21 C34        27.8880   -2.8710   -1.1490 C.3       1 0NF1        0.0000 
     22 F37        28.2630   -2.2920   -0.0090 F         1 0NF1        0.0000 
     23 F35        26.8270   -3.6610   -0.9560 F         1 0NF1        0.0000 
     24 F36        28.9040   -3.5720   -1.6520 F         1 0NF1        0.0000 
     25 C25        26.7140   -1.1950   -4.3260 C.ar      1 0NF1        0.0000 
     26 N24        26.3110   -1.5200   -5.5610 N.am      1 0NF1        0.0000 
     27 O23        26.1720   -3.7920   -5.3720 O.2       1 0NF1        0.0000 
     28 C19        26.8460   -3.0280   -8.3630 C.3       1 0NF1        0.0000 
     29 C18        26.4830   -3.0000   -9.8480 C.3       1 0NF1        0.0000 
     30 C16        24.4520   -4.3780   -9.1310 C.ar      1 0NF1        0.0000 
     31 C14        25.1990   -4.4670  -11.4270 C.ar      1 0NF1        0.0000 
     32 C12        23.2950   -5.7770  -10.7450 C.ar      1 0NF1        0.0000 
     33 O11        22.2730   -6.6300  -11.0490 O.3       1 0NF1        0.0000 
     34 C1         23.5290  -10.0160  -10.3800 C.ar      1 0NF1        0.0000 
     35 N2         22.4580  -10.7110  -10.7270 N.ar      1 0NF1        0.0000 
     36 C3         21.3360  -10.1170  -11.1740 C.ar      1 0NF1        0.0000 
     37 C9         18.7060   -8.8590  -11.5750 C.3       1 0NF1        0.0000 
     38 O31        18.0150  -11.1220  -11.9670 O.2       1 0NF1        0.0000 
     39 N7         20.2430  -10.9230  -11.5090 N.am      1 0NF1        0.0000 
     40 H          24.3393   -8.0840  -10.1971 H         1 0NF1        0.0000 
     41 H          20.0811   -7.8282  -12.8743 H         1 0NF1        0.0000 
     42 H          19.8644   -7.0651  -11.2897 H         1 0NF1        0.0000 
     43 H          24.0722   -5.7066  -12.7003 H         1 0NF1        0.0000 
     44 H          22.7625   -5.5683   -8.7168 H         1 0NF1        0.0000 
     45 H          25.1842   -1.8385   -7.7324 H         1 0NF1        0.0000 
     46 H          23.5746   -3.4949   -7.3675 H         1 0NF1        0.0000 
     47 H          24.7901   -4.7393   -7.0299 H         1 0NF1        0.0000 
     48 H          27.0458   -3.1604   -3.6640 H         1 0NF1        0.0000 
     49 H          27.8544   -0.1929   -0.8202 H         1 0NF1        0.0000 
     50 H          26.4874    0.8781   -4.6354 H         1 0NF1        0.0000 
     51 H          26.1745   -0.6977   -6.2641 H         1 0NF1        0.0000 
     52 H          27.2821   -3.9972   -8.1176 H         1 0NF1        0.0000 
     53 H          27.5845   -2.2517   -8.1586 H         1 0NF1        0.0000 
     54 H          26.1756   -1.9954  -10.1232 H         1 0NF1        0.0000 
     55 H          27.3515   -3.2839  -10.4350 H         1 0NF1        0.0000 
     56 H          25.8601   -4.1665  -12.1614 H         1 0NF1        0.0000 
     57 H          24.3954  -10.4799  -10.0379 H         1 0NF1        0.0000 
     58 H          18.3097   -8.6464  -10.5755 H         1 0NF1        0.0000 
     59 H          17.9449   -8.5674  -12.3078 H         1 0NF1        0.0000 
     60 H          20.3747  -11.9413  -11.6222 H         1 0NF1        0.0000 
     61 H          26.1155    1.6729   -0.5648 H         1 0NF1        0.0000 
     62 H          26.0791    3.2075   -1.0442 H         1 0NF1        0.0000 
     63 H          25.2324    2.0961   -1.8405 H         1 0NF1        0.0000 
     64 H          29.3500    2.1381   -2.0061 H         1 0NF1        0.0000 
     65 H          28.5682    3.2323   -1.1242 H         1 0NF1        0.0000 
     66 H          28.6028    1.6952   -0.6527 H         1 0NF1        0.0000 
     67 H          27.1772    3.9109   -3.1942 H         1 0NF1        0.0000 
     68 H          27.9381    2.8121   -4.0885 H         1 0NF1        0.0000 
     69 H          26.3329    2.7986   -3.9918 H         1 0NF1        0.0000 
@<TRIPOS>BOND
     1    2    1 ar   
     2    5    1 1    
     3   36    1 ar   
     4    3    2 ar   
     5   33    2 1    
     6   34    3 ar   
     7   40    3 1    
     8   37    4 1    
     9   38    4 2    
    10   39    4 am   
    11   37    5 1    
    12   41    5 1    
    13   42    5 1    
    14   31    6 ar   
    15   32    6 ar   
    16   43    6 1    
    17   29    7 1    
    18   30    7 ar   
    19   31    7 ar   
    20   30    8 ar   
    21   32    8 ar   
    22   44    8 1    
    23   10    9 1    
    24   11    9 1    
    25   28    9 1    
    26   45    9 1    
    27   30   10 1    
    28   46   10 1    
    29   47   10 1    
    30   26   11 am   
    31   27   11 2    
    32   20   12 ar   
    33   25   12 ar   
    34   48   12 1    
    35   18   13 ar   
    36   20   13 ar   
    37   49   13 1    
    38   15   14 1    
    39   61   14 1    
    40   62   14 1    
    41   63   14 1    
    42   16   15 1    
    43   17   15 1    
    44   18   15 1    
    45   64   16 1    
    46   65   16 1    
    47   66   16 1    
    48   67   17 1    
    49   68   17 1    
    50   69   17 1    
    51   19   18 ar   
    52   25   19 ar   
    53   50   19 1    
    54   21   20 1    
    55   22   21 1    
    56   23   21 1    
    57   24   21 1    
    58   26   25 1    
    59   51   26 1    
    60   29   28 1    
    61   52   28 1    
    62   53   28 1    
    63   54   29 1    
    64   55   29 1    
    65   56   31 1    
    66   33   32 1    
    67   35   34 ar   
    68   57   34 1    
    69   36   35 ar   
    70   39   36 1    
    71   58   37 1    
    72   59   37 1    
    73   60   39 1    
@<TRIPOS>SUBSTRUCTURE
     1 0NF1        1 GROUP   
@<TRIPOS>SET

