#    Name: 3o26_NDP_1_INTS_M
#    Modification time : Tue Mar 25 03:09:23 2014

@<TRIPOS>MOLECULE
3o26_NDP_1_INTS_M
  108     0    12     0     0
SMALL
NO_CHARGES


@<TRIPOS>ATOM
      1 CA         17.4345   74.5935   -2.9885 C.3       4 GLC5        0.0000 
      2 CA         17.7880   73.7420   -5.0370 C.3      12 GLL5        0.0000 
      3 CA         17.0810   75.4450   -0.9400 C.3       8 GLP5        0.0000 
      4 CA         18.6785   76.2275   -3.0255 C.3       4 GLC5        0.0000 
      5 CA         17.9010   76.2200   -4.8870 C.3      12 GLL5        0.0000 
      6 CA         19.4560   76.2350   -1.1640 C.3       8 GLP5        0.0000 
      7 O          18.8835   78.6475   -4.8220 O.2       1 ALC1        0.0000 
      8 O          18.8340   77.2510   -5.1260 O.2       9 ALL1        0.0000 
      9 O          18.9330   80.0440   -4.5180 O.2       5 ALP1        0.0000 
     10 CA         18.5390   76.9605   -7.5780 C.3       4 GLC5        0.0000 
     11 CA         16.8810   76.3930   -6.9130 C.3      12 GLL5        0.0000 
     12 CA         20.1970   77.5280   -8.2430 C.3       8 GLP5        0.0000 
     13 CA         17.4570   75.9310   -8.8860 C.3       4 GLC5        0.0000 
     14 CA         18.0330   75.4690  -10.8590 C.3       8 GLP5        0.0000 
     15 CA         14.0500   79.8360  -11.5290 C.3       4 GLC5        0.0000 
     16 CA         13.7280   77.8970  -10.4890 C.3      12 GLL5        0.0000 
     17 CA         14.3720   81.7750  -12.5690 C.3       8 GLP5        0.0000 
     18 CA         14.2230   77.3030  -12.2390 C.3       4 GLC5        0.0000 
     19 CA         14.7180   76.7090  -13.9890 C.3       8 GLP5        0.0000 
     20 O          12.1770   79.0125  -11.7755 O.2       1 ALC1        0.0000 
     21 O          12.3810   77.8120  -10.9690 O.2       9 ALL1        0.0000 
     22 O          11.9730   80.2130  -12.5820 O.2       5 ALP1        0.0000 
     23 N          14.6740   79.2730  -12.4550 N.am      2 SEC2        0.0000 
     24 N          14.6760   78.8230  -11.0850 N.am     10 SEL2        0.0000 
     25 N          14.6720   79.7230  -13.8250 N.am      6 SEP2        0.0000 
     26 CA         15.1575   80.5570   -9.6140 C.3       4 GLC5        0.0000 
     27 CA         16.0540   78.9550  -10.5830 C.3      12 GLL5        0.0000 
     28 CA         14.2610   82.1590   -8.6450 C.3       8 GLP5        0.0000 
     29 CA         15.2130   80.3650  -11.5760 C.3       4 GLC5        0.0000 
     30 CA         16.4870   78.4275  -12.3455 C.3       4 GLC5        0.0000 
     31 CA         16.9200   77.9000  -14.1080 C.3       8 GLP5        0.0000 
     32 CA         17.0435   77.2120  -10.7210 C.3       4 GLC5        0.0000 
     33 N          22.4315   71.7345   -3.4935 N.am      2 SEC2        0.0000 
     34 N          21.1110   71.3460   -3.9080 N.am     10 SEL2        0.0000 
     35 N          23.7520   72.1230   -3.0790 N.am      6 SEP2        0.0000 
     36 N          19.9160   68.9445   -2.0620 N.am      2 SEC2        0.0000 
     37 N          20.1140   68.9850   -3.3240 N.am     10 SEL2        0.0000 
     38 N          19.7180   68.9040   -0.8000 N.am      6 SEP2        0.0000 
     39 CA         22.0190   68.8380   -8.9460 C.3       4 GLC5        0.0000 
     40 CA         20.5990   69.7850   -7.9890 C.3      12 GLL5        0.0000 
     41 CA         23.4390   67.8910   -9.9030 C.3       8 GLP5        0.0000 
     42 CA         17.6200   70.4695   -9.0215 C.3       4 GLC5        0.0000 
     43 CA         19.1670   69.4490   -8.4180 C.3      12 GLL5        0.0000 
     44 CA         16.0730   71.4900   -9.6250 C.3       8 GLP5        0.0000 
     45 N          18.6685   68.3425  -10.7595 N.am      2 SEC2        0.0000 
     46 N          19.0810   69.4120   -9.8110 N.am     10 SEL2        0.0000 
     47 N          18.2560   67.2730  -11.7080 N.am      6 SEP2        0.0000 
     48 O          19.6470   70.7030   -9.7970 O.2       1 ALC1        0.0000 
     49 O          19.0810   69.4120   -9.8110 O.2       9 ALL1        0.0000 
     50 O          20.2130   71.9940   -9.7830 O.2       5 ALP1        0.0000 
     51 CA         18.2015   67.0520   -9.7115 C.3       4 GLC5        0.0000 
     52 CA         18.9280   68.0710   -7.8730 C.3      12 GLL5        0.0000 
     53 CA         17.4750   66.0330  -11.5500 C.3       8 GLP5        0.0000 
     54 N          17.6095   66.0105   -8.3690 N.am      2 SEC2        0.0000 
     55 N          17.9730   67.3440   -8.6000 N.am     10 SEL2        0.0000 
     56 N          17.2460   64.6770   -8.1380 N.am      6 SEP2        0.0000 
     57 N          18.1145   67.3085  -10.1540 N.am      2 SEC2        0.0000 
     58 CA         21.8770   67.6825   -8.9995 C.3       4 GLC5        0.0000 
     59 CA         20.3150   67.4740   -8.0960 C.3      12 GLL5        0.0000 
     60 CA         18.4715   66.7335   -5.3605 C.3       4 GLC5        0.0000 
     61 CA         20.3890   66.3470   -5.8300 C.3      12 GLL5        0.0000 
     62 CA         16.5540   67.1200   -4.8910 C.3       8 GLP5        0.0000 
     63 N          21.7285   63.9185   -2.0890 N.am      2 SEC2        0.0000 
     64 N          20.5580   64.1800   -2.8480 N.am     10 SEL2        0.0000 
     65 N          22.8990   63.6570   -1.3300 N.am      6 SEP2        0.0000 
     66 N          19.7430   64.2555   -1.7205 N.am      2 SEC2        0.0000 
     67 N          18.9280   64.3310   -0.5930 N.am      6 SEP2        0.0000 
     68 O          20.9250   66.0360   -1.3305 O.2       1 ALC1        0.0000 
     69 O          20.4130   66.4770   -2.8420 O.2       9 ALL1        0.0000 
     70 O          21.4370   65.5950    0.1810 O.2       5 ALP1        0.0000 
     71 CA         22.1530   66.4430   -8.9325 C.3       4 GLC5        0.0000 
     72 CA         20.8670   64.9950   -7.9620 C.3      12 GLL5        0.0000 
     73 NZ         13.0650   77.4685   -4.6000 N.4       3 LYC4        0.0000 
     74 NZ         14.2580   77.3390   -3.7610 N.4      11 LYL4        0.0000 
     75 NZ         11.8790   78.4400   -6.4670 N.4       7 LYP4        0.0000 
     76 N          13.0650   77.4685   -4.6000 N.am      2 SEC2        0.0000 
     77 N          14.2580   77.3390   -3.7610 N.am     10 SEL2        0.0000 
     78 N          11.8720   77.5980   -5.4390 N.am      6 SEP2        0.0000 
     79 NZ         16.0455   77.0055   -1.4015 N.4       3 LYC4        0.0000 
     80 NZ         16.2790   78.4380   -2.6240 N.4      11 LYL4        0.0000 
     81 NZ         15.8120   75.5730   -0.1790 N.4       7 LYP4        0.0000 
     82 N          17.4510   79.1810   -2.4595 N.am      2 SEC2        0.0000 
     83 N          16.2790   78.4380   -2.6240 N.am     10 SEL2        0.0000 
     84 N          18.6230   79.9240   -2.2950 N.am      6 SEP2        0.0000 
     85 NZ         13.6980   79.6015   -5.4305 N.4       3 LYC4        0.0000 
     86 NZ         14.6380   79.7690   -4.3560 N.4      11 LYL4        0.0000 
     87 N          13.6980   79.6015   -5.4305 N.am      2 SEC2        0.0000 
     88 N          14.6380   79.7690   -4.3560 N.am     10 SEL2        0.0000 
     89 N          12.7580   79.4340   -6.5050 N.am      6 SEP2        0.0000 
     90 CA         19.1442   76.5708   -6.7785 C.3       4 GLC5        0.0000 
     91 CA         16.4342   76.3132   -9.9713 C.3       4 GLC5        0.0000 
     92 CA         14.1580   77.0600   -9.3530 C.3      12 GLL5        0.0000 
     93 CA         13.8235   75.5983  -10.8095 C.3       4 GLC5        0.0000 
     94 CA         13.7040   73.7180  -11.6980 C.3       8 GLP5        0.0000 
     95 CA         13.7870   78.8874   -8.4772 C.3       4 GLC5        0.0000 
     96 CA         12.8460   80.4080   -7.5870 C.3       8 GLP5        0.0000 
     97 CA         22.0742   69.2682   -6.1692 C.3       4 GLC5        0.0000 
     98 CA         20.5740   70.7160   -6.7640 C.3      12 GLL5        0.0000 
     99 CA         23.5620   68.2860   -4.9620 C.3       8 GLP5        0.0000 
    100 CA         17.6608   68.7160   -6.9247 C.3       4 GLC5        0.0000 
    101 CA         16.2740   68.6720   -5.7040 C.3       8 GLP5        0.0000 
    102 CA         22.0335   67.0045   -5.1870 C.3       4 GLC5        0.0000 
    103 CA         22.4765   65.4250   -6.3220 C.3       4 GLC5        0.0000 
    104 CA         24.4480   65.1270   -7.2320 C.3       8 GLP5        0.0000 
    105 CA         20.0488   63.1668   -8.6730 C.3       4 GLC5        0.0000 
    106 CA         21.1020   63.7500   -7.1260 C.3      12 GLL5        0.0000 
    107 CA         19.1130   61.9610   -9.8020 C.3       8 GLP5        0.0000 
    108 CA         22.6997   64.7575   -7.2026 C.3       4 GLC5        0.0000 
@<TRIPOS>BOND
@<TRIPOS>SUBSTRUCTURE
     1 ALC1        7 GROUP        1 X    ALC  0     ROOT ALC X 1
     2 SEC2       23 GROUP        1 X    SEC  0     **** SEC X 2
     3 LYC4       73 GROUP        1 X    LYC  0     **** LYC X 4
     4 GLC5        1 GROUP        1 X    GLC  0     **** GLC X 6
     5 ALP1        9 GROUP        1 Y    ALP  0     ROOT ALP Y 8
     6 SEP2       25 GROUP        1 Y    SEP  0     **** SEP Y 9
     7 LYP4       75 GROUP        1 Y    LYP  0     **** LYP Y 11
     8 GLP5        3 GROUP        1 Y    GLP  0     **** GLP Y 13
     9 ALL1        8 GROUP        1 Z    ALL  0     ROOT ALL Z 15
    10 SEL2       24 GROUP        1 Z    SEL  0     **** SEL Z 16
    11 LYL4       74 GROUP        1 Z    LYL  0     **** LYL Z 18
    12 GLL5        2 GROUP        1 Z    GLL  0     **** GLL Z 20
@<TRIPOS>SET

