#    Name: 3o26_NDP_1_ligand
#    Modification time : Tue Mar 25 03:09:23 2014

@<TRIPOS>MOLECULE
3o26_NDP_1_ligand
   74    78     1     0     0
SMALL
NO_CHARGES


@<TRIPOS>ATOM
      1 PA         18.2760   72.3470   -2.8970 P.3       1 NDP312      0.0000 
      2 O1A        19.0260   72.4980   -1.6490 O.co2     1 NDP312      0.0000 
      3 O2A        16.6720   72.2010   -2.6140 O.co2     1 NDP312      0.0000 
      4 O5B        18.5730   73.6190   -3.8810 O.3       1 NDP312      0.0000 
      5 C5B        17.7880   73.7420   -5.0370 C.3       1 NDP312      0.0000 
      6 C4B        18.2820   75.0070   -5.7410 C.3       1 NDP312      0.0000 
      7 O4B        17.5510   75.1150   -6.9980 O.3       1 NDP312      0.0000 
      8 C3B        17.9010   76.2200   -4.8870 C.3       1 NDP312      0.0000 
      9 O3B        18.8340   77.2510   -5.1260 O.3       1 NDP312      0.0000 
     10 C2B        16.5570   76.5860   -5.4430 C.3       1 NDP312      0.0000 
     11 O2B        16.2660   77.9370   -5.2330 O.3       1 NDP312      0.0000 
     12 C1B        16.8810   76.3930   -6.9130 C.3       1 NDP312      0.0000 
     13 N9A        15.6640   76.3800   -7.6880 N.pl3     1 NDP312      0.0000 
     14 C8A        14.4100   75.6180   -7.4840 C.2       1 NDP312      0.0000 
     15 N7A        13.4820   76.0430   -8.5400 N.2       1 NDP312      0.0000 
     16 C5A        14.1580   77.0600   -9.3530 C.ar      1 NDP312      0.0000 
     17 C6A        13.7280   77.8970  -10.4890 C.ar      1 NDP312      0.0000 
     18 N6A        12.3810   77.8120  -10.9690 N.pl3     1 NDP312      0.0000 
     19 N1A        14.6760   78.8230  -11.0850 N.ar      1 NDP312      0.0000 
     20 C2A        16.0540   78.9550  -10.5830 C.ar      1 NDP312      0.0000 
     21 N3A        16.4500   78.1870   -9.3810 N.ar      1 NDP312      0.0000 
     22 C4A        15.5130   77.2550   -8.8140 C.ar      1 NDP312      0.0000 
     23 O3         18.5650   70.9930   -3.7370 O.3       1 NDP312      0.0000 
     24 PN         20.0260   70.3880   -4.1440 P.3       1 NDP312      0.0000 
     25 O1N        21.1110   71.3460   -3.9080 O.co2     1 NDP312      0.0000 
     26 O2N        20.1140   68.9850   -3.3240 O.co2     1 NDP312      0.0000 
     27 O5D        19.8600   70.0310   -5.7580 O.3       1 NDP312      0.0000 
     28 C5D        20.5740   70.7160   -6.7640 C.3       1 NDP312      0.0000 
     29 C4D        20.5990   69.7850   -7.9890 C.3       1 NDP312      0.0000 
     30 O4D        21.1830   68.5130   -7.5670 O.3       1 NDP312      0.0000 
     31 C3D        19.1670   69.4490   -8.4180 C.3       1 NDP312      0.0000 
     32 O3D        19.0810   69.4120   -9.8110 O.3       1 NDP312      0.0000 
     33 C2D        18.9280   68.0710   -7.8730 C.3       1 NDP312      0.0000 
     34 O2D        17.9730   67.3440   -8.6000 O.3       1 NDP312      0.0000 
     35 C1D        20.3150   67.4740   -8.0960 C.3       1 NDP312      0.0000 
     36 N1N        20.5140   66.2760   -7.3040 N.pl3     1 NDP312      0.0000 
     37 C2N        20.3890   66.3470   -5.8300 C.2       1 NDP312      0.0000 
     38 C3N        20.6210   65.0990   -4.9940 C.2       1 NDP312      0.0000 
     39 C7N        20.4980   65.1760   -3.4840 C.2       1 NDP312      0.0000 
     40 O7N        20.5580   64.1800   -2.8480 O.2       1 NDP312      0.0000 
     41 N7N        20.4130   66.4770   -2.8420 N.am      1 NDP312      0.0000 
     42 C4N        20.9700   63.8120   -5.6430 C.3       1 NDP312      0.0000 
     43 C5N        21.1020   63.7500   -7.1260 C.2       1 NDP312      0.0000 
     44 C6N        20.8670   64.9950   -7.9620 C.2       1 NDP312      0.0000 
     45 P2B        15.3160   78.3410   -3.9480 P.3       1 NDP312      0.0000 
     46 O1X        14.2580   77.3390   -3.7610 O.co2     1 NDP312      0.0000 
     47 O2X        16.2790   78.4380   -2.6240 O.co2     1 NDP312      0.0000 
     48 O3X        14.6380   79.7690   -4.3560 O.co2     1 NDP312      0.0000 
     49 H          16.7357   73.8772   -4.8185 H         1 NDP312      0.0000 
     50 H          17.9160   72.9132   -5.7226 H         1 NDP312      0.0000 
     51 H          19.3102   74.9686   -5.8787 H         1 NDP312      0.0000 
     52 H          17.8111   75.9165   -3.8981 H         1 NDP312      0.0000 
     53 H          15.8535   75.8974   -5.1628 H         1 NDP312      0.0000 
     54 H          17.5357   77.1796   -7.2133 H         1 NDP312      0.0000 
     55 H          14.2535   75.0100   -6.8326 H         1 NDP312      0.0000 
     56 H          11.7926   77.1445  -10.5127 H         1 NDP312      0.0000 
     57 H          12.1419   78.4273  -11.7202 H         1 NDP312      0.0000 
     58 H          16.7059   79.5452  -11.0382 H         1 NDP312      0.0000 
     59 H          21.6021   70.9160   -6.4854 H         1 NDP312      0.0000 
     60 H          20.0917   71.6386   -7.0654 H         1 NDP312      0.0000 
     61 H          21.1211   70.2164   -8.7722 H         1 NDP312      0.0000 
     62 H          18.5104   70.1264   -7.9537 H         1 NDP312      0.0000 
     63 H          18.7718   68.1310   -6.8379 H         1 NDP312      0.0000 
     64 H          20.4748   67.3383   -9.1151 H         1 NDP312      0.0000 
     65 H          20.1563   67.1945   -5.3756 H         1 NDP312      0.0000 
     66 H          20.3575   66.4722   -1.8436 H         1 NDP312      0.0000 
     67 H          20.4170   67.2696   -3.4517 H         1 NDP312      0.0000 
     68 H          20.2136   63.0279   -5.3199 H         1 NDP312      0.0000 
     69 H          21.9349   63.4258   -5.1833 H         1 NDP312      0.0000 
     70 H          21.3427   62.9019   -7.5778 H         1 NDP312      0.0000 
     71 H          20.9534   64.9358   -8.9488 H         1 NDP312      0.0000 
     72 H          18.2902   78.0896   -5.1585 H         1 NDP312      0.0000 
     73 H          19.8342   69.9861  -10.1320 H         1 NDP312      0.0000 
     74 H          17.1098   67.4980   -8.1192 H         1 NDP312      0.0000 
@<TRIPOS>BOND
     1    2    1 ar   
     2    3    1 ar   
     3    4    1 1    
     4   23    1 1    
     5    5    4 1    
     6    6    5 1    
     7   49    5 1    
     8   50    5 1    
     9    7    6 1    
    10    8    6 1    
    11   51    6 1    
    12   12    7 1    
    13    9    8 1    
    14   10    8 1    
    15   52    8 1    
    16   72    9 1    
    17   11   10 1    
    18   12   10 1    
    19   53   10 1    
    20   45   11 1    
    21   13   12 1    
    22   54   12 1    
    23   14   13 1    
    24   22   13 1    
    25   15   14 2    
    26   55   14 1    
    27   16   15 1    
    28   17   16 ar   
    29   22   16 ar   
    30   18   17 1    
    31   19   17 ar   
    32   56   18 1    
    33   57   18 1    
    34   20   19 ar   
    35   21   20 ar   
    36   58   20 1    
    37   22   21 ar   
    38   24   23 1    
    39   25   24 ar   
    40   26   24 ar   
    41   27   24 1    
    42   28   27 1    
    43   29   28 1    
    44   59   28 1    
    45   60   28 1    
    46   30   29 1    
    47   31   29 1    
    48   61   29 1    
    49   35   30 1    
    50   32   31 1    
    51   33   31 1    
    52   62   31 1    
    53   73   32 1    
    54   34   33 1    
    55   35   33 1    
    56   63   33 1    
    57   74   34 1    
    58   36   35 1    
    59   64   35 1    
    60   37   36 1    
    61   44   36 1    
    62   38   37 2    
    63   65   37 1    
    64   39   38 1    
    65   42   38 1    
    66   40   39 2    
    67   41   39 am   
    68   66   41 1    
    69   67   41 1    
    70   43   42 1    
    71   68   42 1    
    72   69   42 1    
    73   44   43 2    
    74   70   43 1    
    75   71   44 1    
    76   46   45 ar   
    77   47   45 ar   
    78   48   45 ar   
@<TRIPOS>SUBSTRUCTURE
     1 NDP312      1 GROUP   
@<TRIPOS>SET

