#    Name: 1l4e_RBZ_1_INTS_M
#    Modification time : Mon Apr  7 13:55:15 2014

@<TRIPOS>MOLECULE
1l4e_RBZ_1_INTS_M
   56     0     9     0     0
SMALL
NO_CHARGES


@<TRIPOS>ATOM
      1 N          55.7185   41.8805   15.1570 N.am      2 SEC2        0.0000 
      2 N          56.3540   41.7500   14.0850 N.am      8 SEL2        0.0000 
      3 N          55.0830   42.0110   16.2290 N.am      5 SEP2        0.0000 
      4 CA         57.6145   40.4190   14.6575 C.3       3 GLC5        0.0000 
      5 CA         57.5270   42.3640   13.6930 C.3       9 GLL5        0.0000 
      6 CA         57.7020   38.4740   15.6220 C.3       6 GLP5        0.0000 
      7 CA         55.7605   43.2480   13.5430 C.3       3 GLC5        0.0000 
      8 CA         53.9940   44.1320   13.3930 C.3       6 GLP5        0.0000 
      9 CA         59.1150   42.7780    9.6620 C.3       3 GLC5        0.0000 
     10 CA         59.0120   42.3680   11.7190 C.3       9 GLL5        0.0000 
     11 CA         59.2180   43.1880    7.6050 C.3       6 GLP5        0.0000 
     12 CA         61.7255   43.3550   14.5260 C.3       3 GLC5        0.0000 
     13 CA         60.4460   44.7830   14.4250 C.3       9 GLL5        0.0000 
     14 CA         63.0050   41.9270   14.6270 C.3       6 GLP5        0.0000 
     15 CA         62.5455   43.1990   10.7030 C.3       3 GLC5        0.0000 
     16 CA         61.1150   43.7710   11.6270 C.3       9 GLL5        0.0000 
     17 CA         63.9760   42.6270    9.7790 C.3       6 GLP5        0.0000 
     18 CA         62.0600   42.8490   13.1270 C.3       3 GLC5        0.0000 
     19 CA         61.7700   41.8770   11.4920 C.3       3 GLC5        0.0000 
     20 CA         62.4250   39.9830   11.3570 C.3       6 GLP5        0.0000 
     21 CA         60.1665   43.4795    9.6160 C.3       3 GLC5        0.0000 
     22 N          58.6635   36.7770    5.2210 N.am      2 SEC2        0.0000 
     23 N          59.5150   38.0620    5.3650 N.am      8 SEL2        0.0000 
     24 N          57.8120   35.4920    5.0770 N.am      5 SEP2        0.0000 
     25 N          58.5995   37.9895    4.3320 N.am      2 SEC2        0.0000 
     26 N          57.6840   37.9170    3.2990 N.am      5 SEP2        0.0000 
     27 N          58.9845   41.5545    5.3690 N.am      2 SEC2        0.0000 
     28 N          59.8890   40.4820    5.2490 N.am      8 SEL2        0.0000 
     29 N          58.0800   42.6270    5.4890 N.am      5 SEP2        0.0000 
     30 N          61.4920   37.9700    7.2560 N.am      2 SEC2        0.0000 
     31 N          60.9740   39.1860    6.9760 N.am      8 SEL2        0.0000 
     32 N          62.0100   36.7540    7.5360 N.am      5 SEP2        0.0000 
     33 N          58.2835   41.0995    6.3005 N.am      2 SEC2        0.0000 
     34 N          58.4870   39.5720    7.1120 N.am      8 SEL2        0.0000 
     35 CA         57.0530   38.2460    6.5565 C.3       3 GLC5        0.0000 
     36 CA         58.1030   38.5770    8.0860 C.3       9 GLL5        0.0000 
     37 CA         56.0030   37.9150    5.0270 C.3       6 GLP5        0.0000 
     38 CA         58.9915   36.5270   11.3575 C.3       3 GLC5        0.0000 
     39 CA         57.8340   38.1240   10.6120 C.3       9 GLL5        0.0000 
     40 CA         60.1490   34.9300   12.1030 C.3       6 GLP5        0.0000 
     41 N          58.7930   36.8450   12.2630 N.am      2 SEC2        0.0000 
     42 N          58.6180   38.1610   11.8230 N.am      8 SEL2        0.0000 
     43 N          58.9680   35.5290   12.7030 N.am      5 SEP2        0.0000 
     44 O          55.4330   37.0930   11.6555 O.2       1 ALC1        0.0000 
     45 O          55.8720   38.2960   11.9880 O.2       7 ALL1        0.0000 
     46 O          54.9940   35.8900   11.3230 O.2       4 ALP1        0.0000 
     47 O          54.4035   37.4180   11.7885 O.2       1 ALC1        0.0000 
     48 O          52.9350   36.5400   11.5890 O.2       4 ALP1        0.0000 
     49 CA         61.3573   42.7300   13.8285 C.3       3 GLC5        0.0000 
     50 CA         59.5460   43.7730   13.7030 C.3       9 GLL5        0.0000 
     51 CA         60.1929   41.0277   12.3253 C.3       3 GLC5        0.0000 
     52 CA         59.8730   43.2930   12.3570 C.3       9 GLL5        0.0000 
     53 CA         61.2400   39.3430   12.4450 C.3       6 GLP5        0.0000 
     54 CA         59.8144   42.9278   15.8560 C.3       3 GLC5        0.0000 
     55 CA         59.9250   41.6960   17.4850 C.3       6 GLP5        0.0000 
     56 CA         59.6813   38.9513   11.2573 C.3       3 GLC5        0.0000 
@<TRIPOS>BOND
@<TRIPOS>SUBSTRUCTURE
     1 ALC1       44 GROUP        1 X    ALC  0     ROOT ALC X 1
     2 SEC2        1 GROUP        1 X    SEC  0     **** SEC X 2
     3 GLC5        4 GROUP        1 X    GLC  0     **** GLC X 6
     4 ALP1       46 GROUP        1 Y    ALP  0     ROOT ALP Y 8
     5 SEP2        3 GROUP        1 Y    SEP  0     **** SEP Y 9
     6 GLP5        6 GROUP        1 Y    GLP  0     **** GLP Y 13
     7 ALL1       45 GROUP        1 Z    ALL  0     ROOT ALL Z 15
     8 SEL2        2 GROUP        1 Z    SEL  0     **** SEL Z 16
     9 GLL5        5 GROUP        1 Z    GLL  0     **** GLL Z 20
@<TRIPOS>SET

