#    Name: 1l4e_RBZ_1_ligand
#    Modification time : Mon Apr  7 13:55:15 2014

@<TRIPOS>MOLECULE
1l4e_RBZ_1_ligand
   41    43     1     0     0
SMALL
NO_CHARGES


@<TRIPOS>ATOM
      1 N3         56.3540   41.7500   14.0850 N.2       1 RBZ990      0.0000 
      2 N1         56.8020   40.9860   11.9760 N.pl3     1 RBZ990      0.0000 
      3 C2         55.9760   40.9700   13.0650 C.2       1 RBZ990      0.0000 
      4 C7A        57.8250   41.8960   12.3890 C.ar      1 RBZ990      0.0000 
      5 C3A        57.5270   42.3640   13.6930 C.ar      1 RBZ990      0.0000 
      6 C4         58.3770   43.2990   14.3550 C.ar      1 RBZ990      0.0000 
      7 C5         59.5460   43.7730   13.7030 C.ar      1 RBZ990      0.0000 
      8 C6         59.8730   43.2930   12.3570 C.ar      1 RBZ990      0.0000 
      9 C7         59.0120   42.3680   11.7190 C.ar      1 RBZ990      0.0000 
     10 C8         60.4460   44.7830   14.4250 C.3       1 RBZ990      0.0000 
     11 C9         61.1150   43.7710   11.6270 C.3       1 RBZ990      0.0000 
     12 P          59.7420   39.3170    6.1690 P.3       1 RBZ990      0.0000 
     13 O1P        59.5150   38.0620    5.3650 O.co2     1 RBZ990      0.0000 
     14 O2P        59.8890   40.4820    5.2490 O.co2     1 RBZ990      0.0000 
     15 O3P        60.9740   39.1860    6.9760 O.co2     1 RBZ990      0.0000 
     16 O5'        58.4870   39.5720    7.1120 O.3       1 RBZ990      0.0000 
     17 C5'        58.1030   38.5770    8.0860 C.3       1 RBZ990      0.0000 
     18 C4'        58.4110   38.9950    9.5270 C.3       1 RBZ990      0.0000 
     19 O4'        57.8840   40.3250    9.8840 O.3       1 RBZ990      0.0000 
     20 C3'        57.8340   38.1240   10.6120 C.3       1 RBZ990      0.0000 
     21 O3'        58.6180   38.1610   11.8230 O.3       1 RBZ990      0.0000 
     22 C2'        56.4420   38.7360   10.7500 C.3       1 RBZ990      0.0000 
     23 O2'        55.8720   38.2960   11.9880 O.3       1 RBZ990      0.0000 
     24 C1'        56.6860   40.2480   10.6630 C.3       1 RBZ990      0.0000 
     25 H          55.1401   40.4030   13.0847 H         1 RBZ990      0.0000 
     26 H          58.1444   43.6227   15.2891 H         1 RBZ990      0.0000 
     27 H          59.2213   42.0272   10.7829 H         1 RBZ990      0.0000 
     28 H          58.6218   37.6160    7.8985 H         1 RBZ990      0.0000 
     29 H          57.0182   38.3593    8.0256 H         1 RBZ990      0.0000 
     30 H          59.4966   39.0213    9.6765 H         1 RBZ990      0.0000 
     31 H          57.7130   37.1409   10.2076 H         1 RBZ990      0.0000 
     32 H          55.8782   38.4339    9.8948 H         1 RBZ990      0.0000 
     33 H          55.8615   40.6626   10.0748 H         1 RBZ990      0.0000 
     34 H          60.7986   44.4170   15.2863 H         1 RBZ990      0.0000 
     35 H          61.2372   45.0389   13.8695 H         1 RBZ990      0.0000 
     36 H          59.9562   45.6269   14.6438 H         1 RBZ990      0.0000 
     37 H          61.9499   43.5521   12.1319 H         1 RBZ990      0.0000 
     38 H          61.1999   43.3504   10.7238 H         1 RBZ990      0.0000 
     39 H          61.1069   44.7615   11.4895 H         1 RBZ990      0.0000 
     40 H          57.9771   38.4414   12.5376 H         1 RBZ990      0.0000 
     41 H          55.5214   37.3786   11.7998 H         1 RBZ990      0.0000 
@<TRIPOS>BOND
     1    3    1 2    
     2    5    1 1    
     3    3    2 1    
     4    4    2 1    
     5   24    2 1    
     6   25    3 1    
     7    5    4 ar   
     8    9    4 ar   
     9    6    5 ar   
    10    7    6 ar   
    11   26    6 1    
    12    8    7 ar   
    13   10    7 1    
    14    9    8 ar   
    15   11    8 1    
    16   27    9 1    
    17   34   10 1    
    18   35   10 1    
    19   36   10 1    
    20   37   11 1    
    21   38   11 1    
    22   39   11 1    
    23   13   12 ar   
    24   14   12 ar   
    25   15   12 ar   
    26   16   12 1    
    27   17   16 1    
    28   18   17 1    
    29   28   17 1    
    30   29   17 1    
    31   19   18 1    
    32   20   18 1    
    33   30   18 1    
    34   24   19 1    
    35   21   20 1    
    36   22   20 1    
    37   31   20 1    
    38   40   21 1    
    39   23   22 1    
    40   24   22 1    
    41   32   22 1    
    42   41   23 1    
    43   33   24 1    
@<TRIPOS>SUBSTRUCTURE
     1 RBZ990      1 GROUP   
@<TRIPOS>SET

