#    Name: 1k74_544_2_INTS_M
#    Modification time : Tue Mar 25 09:40:40 2014

@<TRIPOS>MOLECULE
1k74_544_2_INTS_M
  115     0     6     0     0
SMALL
NO_CHARGES


@<TRIPOS>ATOM
      1 CA         13.6135   19.6165   11.6010 C.3       2 GLC5        0.0000 
      2 CA         14.5880   20.0790   13.5200 C.3       6 GLL5        0.0000 
      3 CA         12.6390   19.1540    9.6820 C.3       4 GLP5        0.0000 
      4 CA         14.9335   22.0725   15.4235 C.3       2 GLC5        0.0000 
      5 CA         13.6120   21.2520   13.9040 C.3       6 GLL5        0.0000 
      6 CA         16.2550   22.8930   16.9430 C.3       4 GLP5        0.0000 
      7 CA         12.4455   22.0080   15.2410 C.3       2 GLC5        0.0000 
      8 CA         11.2790   22.7640   16.5780 C.3       4 GLP5        0.0000 
      9 CA         14.9690   22.4935   11.5420 C.3       2 GLC5        0.0000 
     10 CA         12.8940   22.2380   11.6280 C.3       6 GLL5        0.0000 
     11 CA         17.0440   22.7490   11.4560 C.3       4 GLP5        0.0000 
     12 CA          8.5680   20.1235   12.2505 C.3       2 GLC5        0.0000 
     13 CA         10.2210   21.2890   12.0120 C.3       6 GLL5        0.0000 
     14 CA          6.9150   18.9580   12.4890 C.3       4 GLP5        0.0000 
     15 CA         12.9020   23.1630    8.9690 C.3       2 GLC5        0.0000 
     16 CA         11.9220   22.4690   10.6530 C.3       6 GLL5        0.0000 
     17 CA         13.8820   23.8570    7.2850 C.3       4 GLP5        0.0000 
     18 CA          9.1795   23.4485   11.0145 C.3       2 GLC5        0.0000 
     19 CA         10.5530   21.9960   10.8260 C.3       6 GLL5        0.0000 
     20 CA          7.8060   24.9010   11.2030 C.3       4 GLP5        0.0000 
     21 CA         14.1350   14.8210   11.8635 C.3       2 GLC5        0.0000 
     22 CA         13.2430   16.6480   12.2570 C.3       6 GLL5        0.0000 
     23 CA         15.0270   12.9940   11.4700 C.3       4 GLP5        0.0000 
     24 CA         15.9565   15.0795   12.2345 C.3       2 GLC5        0.0000 
     25 CA         15.6850   17.1920   12.2920 C.3       6 GLL5        0.0000 
     26 CA         16.2280   12.9670   12.1770 C.3       4 GLP5        0.0000 
     27 CA         17.2785   17.3910   11.2330 C.3       2 GLC5        0.0000 
     28 CA         18.8720   17.5900   10.1740 C.3       4 GLP5        0.0000 
     29 CA          8.1860   17.5440   12.0150 C.3       2 GLC5        0.0000 
     30 CA          9.4570   16.1300   11.5410 C.3       6 GLL5        0.0000 
     31 CA          6.7305   15.6655    9.9530 C.3       2 GLC5        0.0000 
     32 CA          8.5140   15.1500   11.1500 C.3       6 GLL5        0.0000 
     33 CA          4.9470   16.1810    8.7560 C.3       4 GLP5        0.0000 
     34 CA          7.0880   16.4220   11.6710 C.3       2 GLC5        0.0000 
     35 CA          5.6620   17.6940   12.1920 C.3       4 GLP5        0.0000 
     36 CA         11.9185   13.1330   10.5410 C.3       2 GLC5        0.0000 
     37 CA         10.1290   13.3750   11.7540 C.3       6 GLL5        0.0000 
     38 CA         13.7080   12.8910    9.3280 C.3       4 GLP5        0.0000 
     39 CA          9.0895   19.3525    8.9920 C.3       2 GLC5        0.0000 
     40 CA          7.2690   19.8030    8.7640 C.3       6 GLL5        0.0000 
     41 CA         10.9100   18.9020    9.2200 C.3       4 GLP5        0.0000 
     42 CA          5.5335   20.7975    8.5405 C.3       2 GLC5        0.0000 
     43 CA          3.7980   21.7920    8.3170 C.3       4 GLP5        0.0000 
     44 CA          6.1080   17.9920    8.7600 C.3       2 GLC5        0.0000 
     45 CA          6.6495   20.1160   10.4300 C.3       2 GLC5        0.0000 
     46 CA          6.0300   20.4290   12.0960 C.3       4 GLP5        0.0000 
     47 CA         10.3045   20.9660    8.9760 C.3       2 GLC5        0.0000 
     48 CA          9.6990   23.0300    8.7320 C.3       6 GLL5        0.0000 
     49 CA         11.4315   24.0685    8.2180 C.3       2 GLC5        0.0000 
     50 CA         13.1640   25.1070    7.7040 C.3       4 GLP5        0.0000 
     51 CA          6.6200   23.4325    8.1350 C.3       2 GLC5        0.0000 
     52 CA          8.5550   22.7630    7.7470 C.3       6 GLL5        0.0000 
     53 CA          4.6850   24.1020    8.5230 C.3       4 GLP5        0.0000 
     54 CA          7.3505   22.2390    6.1455 C.3       2 GLC5        0.0000 
     55 CA          6.1460   21.7150    4.5440 C.3       4 GLP5        0.0000 
     56 N          16.7860   21.8235   13.6335 N.am      1 SEC2        0.0000 
     57 N          16.6900   20.6420   14.4420 N.am      5 SEL2        0.0000 
     58 N          16.8820   23.0050   12.8250 N.am      3 SEP2        0.0000 
     59 N          17.0530   21.4770   15.4690 N.am      1 SEC2        0.0000 
     60 N          17.4160   22.3120   16.4960 N.am      3 SEP2        0.0000 
     61 N          16.7515   20.1660   15.9580 N.am      1 SEC2        0.0000 
     62 N          16.8130   19.6900   17.4740 N.am      3 SEP2        0.0000 
     63 N          14.5030   18.5195   16.0130 N.am      1 SEC2        0.0000 
     64 N          15.6170   18.9840   15.3970 N.am      5 SEL2        0.0000 
     65 N          13.3890   18.0550   16.6290 N.am      3 SEP2        0.0000 
     66 N          16.2150   19.3370   16.4355 N.am      1 SEC2        0.0000 
     67 CA         15.5720   21.7073   12.5840 C.3       2 GLC5        0.0000 
     68 CA         12.2583   20.2200   11.2995 C.3       2 GLC5        0.0000 
     69 CA         12.5520   21.5230   12.8220 C.3       6 GLL5        0.0000 
     70 CA         12.9170   23.8282   12.9945 C.3       2 GLC5        0.0000 
     71 CA         13.1110   25.7760   13.7640 C.3       4 GLP5        0.0000 
     72 CA          9.2485   22.5205   12.9905 C.3       2 GLC5        0.0000 
     73 CA         11.2030   21.0490   13.0120 C.3       6 GLL5        0.0000 
     74 CA          7.7850   23.8720   13.4690 C.3       4 GLP5        0.0000 
     75 CA         12.5235   20.7538   10.4113 C.3       2 GLC5        0.0000 
     76 CA         10.6485   20.2722   10.3195 C.3       2 GLC5        0.0000 
     77 CA         13.6754   18.1526   11.0160 C.3       2 GLC5        0.0000 
     78 CA         12.0813   14.6585   10.4563 C.3       2 GLC5        0.0000 
     79 CA         10.7580   15.7490   12.0520 C.3       6 GLL5        0.0000 
     80 CA         13.2450   14.2650    8.8130 C.3       4 GLP5        0.0000 
     81 CA         10.5087   17.4207   10.5083 C.3       2 GLC5        0.0000 
     82 CA          9.1988   15.4123   13.3827 C.3       2 GLC5        0.0000 
     83 CA          8.2900   14.8850   14.9690 C.3       4 GLP5        0.0000 
     84 CA          7.4220   13.2975   10.2443 C.3       2 GLC5        0.0000 
     85 CA          6.1640   12.1340    9.2840 C.3       4 GLP5        0.0000 
     86 CA          8.4850   14.6730   13.0868 C.3       2 GLC5        0.0000 
     87 CA          8.8460   13.7720   11.2590 C.3       6 GLL5        0.0000 
     88 CA          8.8939   15.1095    9.4791 C.3       2 GLC5        0.0000 
     89 CA          8.8720   15.5130    7.6560 C.3       4 GLP5        0.0000 
     90 CA          9.0048   11.5403   11.7658 C.3       2 GLC5        0.0000 
     91 CA          8.5220    9.5070   12.0250 C.3       4 GLP5        0.0000 
     92 CA          9.4465   14.3750   13.4597 C.3       2 GLC5        0.0000 
     93 CA          9.6460   19.8210    8.2563 C.3       2 GLC5        0.0000 
     94 CA          8.1090   20.1160    7.5100 C.3       6 GLL5        0.0000 
     95 CA          7.2640   21.2275    5.9182 C.3       2 GLC5        0.0000 
     96 CA         12.0170   18.8310    4.5492 C.3       2 GLC5        0.0000 
     97 CA          9.7190   19.1060    4.4870 C.3       6 GLL5        0.0000 
     98 CA         13.9250   18.2230    5.1200 C.3       4 GLP5        0.0000 
     99 CA          8.5105   20.8195    3.6498 C.3       2 GLC5        0.0000 
    100 CA         10.4990   19.7720    3.4700 C.3       6 GLL5        0.0000 
    101 CA          6.9120   22.2000    3.3210 C.3       4 GLP5        0.0000 
    102 CA         10.2257   17.7430    0.4613 C.3       2 GLC5        0.0000 
    103 CA         11.0110   19.0490    2.3630 C.3       6 GLL5        0.0000 
    104 CA          9.5650   17.1300   -1.3810 C.3       4 GLP5        0.0000 
    105 CA         12.0648   18.6775    0.5223 C.3       2 GLC5        0.0000 
    106 CA         10.7620   17.6630    2.2440 C.3       6 GLL5        0.0000 
    107 CA         13.2430   18.9990   -1.2590 C.3       4 GLP5        0.0000 
    108 CA         12.4058   18.2895    3.7118 C.3       2 GLC5        0.0000 
    109 CA         10.2135   16.0568    4.9307 C.3       2 GLC5        0.0000 
    110 CA         10.0030   16.9880    3.2360 C.3       6 GLL5        0.0000 
    111 CA         10.6830   14.7680    6.0690 C.3       4 GLP5        0.0000 
    112 CA          7.7625   17.2752    3.5317 C.3       2 GLC5        0.0000 
    113 CA          9.4850   17.7030    4.3490 C.3       6 GLL5        0.0000 
    114 CA          5.7810   17.2050    3.2710 C.3       4 GLP5        0.0000 
    115 CA          8.4665   23.8987    9.7212 C.3       2 GLC5        0.0000 
@<TRIPOS>BOND
@<TRIPOS>SUBSTRUCTURE
     1 SEC2       56 GROUP        1 X    SEC  0     ROOT SEC X 2
     2 GLC5        1 GROUP        1 X    GLC  0     **** GLC X 6
     3 SEP2       58 GROUP        1 Y    SEP  0     ROOT SEP Y 9
     4 GLP5        3 GROUP        1 Y    GLP  0     **** GLP Y 13
     5 SEL2       57 GROUP        1 Z    SEL  0     ROOT SEL Z 16
     6 GLL5        2 GROUP        1 Z    GLL  0     **** GLL Z 20
@<TRIPOS>SET

