#    Name: 1k74_544_2_ligand
#    Modification time : Tue Mar 25 09:40:40 2014

@<TRIPOS>MOLECULE
1k74_544_2_ligand
   68    71     1     0     0
SMALL
NO_CHARGES


@<TRIPOS>ATOM
      1 N          13.8080   18.8420   13.1020 N.4       1 544478      0.0000 
      2 CA         14.5880   20.0790   13.5200 C.3       1 544478      0.0000 
      3 CB         13.6120   21.2520   13.9040 C.3       1 544478      0.0000 
      4 CG         12.5520   21.5230   12.8220 C.ar      1 544478      0.0000 
      5 CD1        11.2030   21.0490   13.0120 C.ar      1 544478      0.0000 
      6 CD2        12.8940   22.2380   11.6280 C.ar      1 544478      0.0000 
      7 CE1        10.2210   21.2890   12.0120 C.ar      1 544478      0.0000 
      8 CE2        11.9220   22.4690   10.6530 C.ar      1 544478      0.0000 
      9 CZ         10.5530   21.9960   10.8260 C.ar      1 544478      0.0000 
     10 OH          9.4930   22.1760    9.8960 O.3       1 544478      0.0000 
     11 C1A        14.2340   17.5730   12.5590 C.3       1 544478      0.0000 
     12 C1F        13.2430   16.6480   12.2570 C.3       1 544478      0.0000 
     13 C1B        15.6850   17.1920   12.2920 C.3       1 544478      0.0000 
     14 C1H        10.7580   15.7490   12.0520 C.ar      1 544478      0.0000 
     15 C1I         9.4570   16.1300   11.5410 C.ar      1 544478      0.0000 
     16 C1J         8.5140   15.1500   11.1500 C.ar      1 544478      0.0000 
     17 C1K         8.8460   13.7720   11.2590 C.ar      1 544478      0.0000 
     18 C1L        10.1290   13.3750   11.7540 C.ar      1 544478      0.0000 
     19 C1M        11.0770   14.3550   12.1470 C.ar      1 544478      0.0000 
     20 C1G        11.6840   16.7840   12.4410 C.2       1 544478      0.0000 
     21 O1G        11.2330   17.8270   12.9510 O.2       1 544478      0.0000 
     22 O3F         8.4500   19.1640    6.5920 O.3       1 544478      0.0000 
     23 C3G         9.2060   19.7800    5.6050 C.2       1 544478      0.0000 
     24 N3H         9.3400   21.1640    5.8780 N.2       1 544478      0.0000 
     25 C3C         8.6550   21.3640    7.0750 C.2       1 544478      0.0000 
     26 C3D         8.1090   20.1160    7.5100 C.2       1 544478      0.0000 
     27 C3E         7.2690   19.8030    8.7640 C.3       1 544478      0.0000 
     28 C3I         9.7190   19.1060    4.4870 C.ar      1 544478      0.0000 
     29 C3N        10.4990   19.7720    3.4700 C.ar      1 544478      0.0000 
     30 C3M        11.0110   19.0490    2.3630 C.ar      1 544478      0.0000 
     31 C3L        10.7620   17.6630    2.2440 C.ar      1 544478      0.0000 
     32 C3K        10.0030   16.9880    3.2360 C.ar      1 544478      0.0000 
     33 C3J         9.4850   17.7030    4.3490 C.ar      1 544478      0.0000 
     34 C3A         9.6990   23.0300    8.7320 C.3       1 544478      0.0000 
     35 C3B         8.5550   22.7630    7.7470 C.3       1 544478      0.0000 
     36 O2         16.6900   20.6420   14.4420 O.co2     1 544478      0.0000 
     37 O1         15.6170   18.9840   15.3970 O.co2     1 544478      0.0000 
     38 C          15.7040   19.8850   14.5270 C.2       1 544478      0.0000 
     39 H          15.0894   20.4635   12.5578 H         1 544478      0.0000 
     40 H          14.2081   22.1517   14.0642 H         1 544478      0.0000 
     41 H          13.1182   20.9905   14.8411 H         1 544478      0.0000 
     42 H          10.9647   20.5470   13.8594 H         1 544478      0.0000 
     43 H          13.8501   22.5706   11.5064 H         1 544478      0.0000 
     44 H           9.2662   20.9487   12.1490 H         1 544478      0.0000 
     45 H          12.1470   22.9766    9.7920 H         1 544478      0.0000 
     46 H          14.3422   17.0246   13.8909 H         1 544478      0.0000 
     47 H          13.4882   15.6086   12.7681 H         1 544478      0.0000 
     48 H          13.3545   16.2848   11.1357 H         1 544478      0.0000 
     49 H           9.2312   17.1232   11.4675 H         1 544478      0.0000 
     50 H           7.6036   15.4268   10.7928 H         1 544478      0.0000 
     51 H           8.1707   13.0606   10.9847 H         1 544478      0.0000 
     52 H          10.3570   12.3850   11.8223 H         1 544478      0.0000 
     53 H          11.9903   14.0727   12.4991 H         1 544478      0.0000 
     54 H          10.6767   20.7718    3.5595 H         1 544478      0.0000 
     55 H          11.5606   19.5326    1.6513 H         1 544478      0.0000 
     56 H          11.1270   17.1439    1.4449 H         1 544478      0.0000 
     57 H           9.8289   15.9869    3.1497 H         1 544478      0.0000 
     58 H           8.9392   17.2125    5.0599 H         1 544478      0.0000 
     59 H          10.6352   22.8016    8.2362 H         1 544478      0.0000 
     60 H           9.6763   24.0789    9.0036 H         1 544478      0.0000 
     61 H           7.5995   22.8269    8.2747 H         1 544478      0.0000 
     62 H           8.5653   23.5257    6.9636 H         1 544478      0.0000 
     63 H          16.1170   17.8113   11.6364 H         1 544478      0.0000 
     64 H          16.2354   17.2181   13.1265 H         1 544478      0.0000 
     65 H          15.7635   16.2679   11.9179 H         1 544478      0.0000 
     66 H           7.7132   19.1240    9.3486 H         1 544478      0.0000 
     67 H           7.1189   20.6182    9.3234 H         1 544478      0.0000 
     68 H           6.3678   19.4406    8.5264 H         1 544478      0.0000 
@<TRIPOS>BOND
     1    2    1 1    
     2   11    1 1    
     3    3    2 1    
     4   38    2 1    
     5   39    2 1    
     6    4    3 1    
     7   40    3 1    
     8   41    3 1    
     9    5    4 ar   
    10    6    4 ar   
    11    7    5 ar   
    12   42    5 1    
    13    8    6 ar   
    14   43    6 1    
    15    9    7 ar   
    16   44    7 1    
    17    9    8 ar   
    18   45    8 1    
    19   10    9 1    
    20   34   10 1    
    21   12   11 1    
    22   13   11 1    
    23   46   11 1    
    24   20   12 1    
    25   47   12 1    
    26   48   12 1    
    27   63   13 1    
    28   64   13 1    
    29   65   13 1    
    30   15   14 ar   
    31   19   14 ar   
    32   20   14 1    
    33   16   15 ar   
    34   49   15 1    
    35   17   16 ar   
    36   50   16 1    
    37   18   17 ar   
    38   51   17 1    
    39   19   18 ar   
    40   52   18 1    
    41   53   19 1    
    42   21   20 2    
    43   23   22 1    
    44   26   22 1    
    45   24   23 2    
    46   28   23 1    
    47   25   24 1    
    48   26   25 2    
    49   35   25 1    
    50   27   26 1    
    51   66   27 1    
    52   67   27 1    
    53   68   27 1    
    54   29   28 ar   
    55   33   28 ar   
    56   30   29 ar   
    57   54   29 1    
    58   31   30 ar   
    59   55   30 1    
    60   32   31 ar   
    61   56   31 1    
    62   33   32 ar   
    63   57   32 1    
    64   58   33 1    
    65   35   34 1    
    66   59   34 1    
    67   60   34 1    
    68   61   35 1    
    69   62   35 1    
    70   38   36 ar   
    71   38   37 ar   
@<TRIPOS>SUBSTRUCTURE
     1 544478      1 GROUP   
@<TRIPOS>SET

