#    Name: 2wkz_5AH_1_INTS_M
#    Modification time : Tue Mar 25 04:26:22 2014

@<TRIPOS>MOLECULE
2wkz_5AH_1_INTS_M
  116     0     9     0     0
SMALL
NO_CHARGES


@<TRIPOS>ATOM
      1 CA         14.5360   16.1120    2.6695 C.3       3 GLC5        0.0000 
      2 CA         14.7130   17.6030    3.9000 C.3       9 GLL5        0.0000 
      3 CA         14.3590   14.6210    1.4390 C.3       6 GLP5        0.0000 
      4 CA         14.5115   17.5515    9.3575 C.3       3 GLC5        0.0000 
      5 CA         16.1860   17.0200   10.7330 C.3       9 GLL5        0.0000 
      6 CA         12.8370   18.0830    7.9820 C.3       6 GLP5        0.0000 
      7 O          13.3495   25.0640    2.8520 O.2       1 ALC1        0.0000 
      8 O          12.3990   25.3120    3.7940 O.2       7 ALL1        0.0000 
      9 O          14.3000   24.8160    1.9100 O.2       4 ALP1        0.0000 
     10 CA          6.5770   24.1510    0.3680 C.3       3 GLC5        0.0000 
     11 CA          6.9710   24.6570    2.2300 C.3       9 GLL5        0.0000 
     12 CA          6.1830   23.6450   -1.4940 C.3       6 GLP5        0.0000 
     13 O          10.7415   26.4990    4.3375 O.2       1 ALC1        0.0000 
     14 O          10.1970   25.3620    5.3820 O.2       7 ALL1        0.0000 
     15 O          11.2860   27.6360    3.2930 O.2       4 ALP1        0.0000 
     16 N           9.0065   28.9560    5.4030 N.am      2 SEC2        0.0000 
     17 N           8.4030   27.6380    5.0650 N.am      8 SEL2        0.0000 
     18 N           9.6100   30.2740    5.7410 N.am      5 SEP2        0.0000 
     19 CA          7.3290   29.1440    6.4500 C.3       3 GLC5        0.0000 
     20 CA          7.3680   27.1510    7.2180 C.3       9 GLL5        0.0000 
     21 CA          7.2900   31.1370    5.6820 C.3       6 GLP5        0.0000 
     22 CA          8.3775   29.7425    9.8695 C.3       3 GLC5        0.0000 
     23 CA          8.7170   27.7890    9.3950 C.3       9 GLL5        0.0000 
     24 CA          8.0380   31.6960   10.3440 C.3       6 GLP5        0.0000 
     25 CA          9.6025   29.7730    9.8250 C.3       3 GLC5        0.0000 
     26 CA          9.9150   27.5820   10.1360 C.3       9 GLL5        0.0000 
     27 CA          9.2900   31.9640    9.5140 C.3       6 GLP5        0.0000 
     28 CA         17.3595   24.0895    8.0710 C.3       3 GLC5        0.0000 
     29 CA         15.4030   23.0680    7.7440 C.3       9 GLL5        0.0000 
     30 CA         19.3160   25.1110    8.3980 C.3       6 GLP5        0.0000 
     31 CA         13.1360   21.7000    9.7850 C.3       3 GLC5        0.0000 
     32 CA         14.8510   20.9840    9.1250 C.3       9 GLL5        0.0000 
     33 CA         11.4210   22.4160   10.4450 C.3       6 GLP5        0.0000 
     34 CA         14.5250   19.2560   11.5285 C.3       3 GLC5        0.0000 
     35 CA         15.2360   19.8010    9.8140 C.3       9 GLL5        0.0000 
     36 CA         13.8140   18.7110   13.2430 C.3       6 GLP5        0.0000 
     37 CA         13.0255   19.8885   10.2015 C.3       3 GLC5        0.0000 
     38 CA         10.8150   19.9760   10.5890 C.3       6 GLP5        0.0000 
     39 CA         18.2615   23.2690    8.4840 C.3       3 GLC5        0.0000 
     40 CA         17.2070   21.4270    8.5700 C.3       9 GLL5        0.0000 
     41 O          17.0765   22.4690    5.4630 O.2       1 ALC1        0.0000 
     42 O          15.6220   21.8140    5.6460 O.2       7 ALL1        0.0000 
     43 O          18.5310   23.1240    5.2800 O.2       4 ALP1        0.0000 
     44 CA         17.3140   20.9835    3.5655 C.3       3 GLC5        0.0000 
     45 CA         16.2440   19.6780    4.4860 C.3       9 GLL5        0.0000 
     46 CA         18.3840   22.2890    2.6450 C.3       6 GLP5        0.0000 
     47 O          16.1355   17.9635    6.4215 O.2       1 ALC1        0.0000 
     48 O          16.9110   18.8600    5.4930 O.2       7 ALL1        0.0000 
     49 O          15.3600   17.0670    7.3500 O.2       4 ALP1        0.0000 
     50 CA         20.9190   18.5190    5.1390 C.3       3 GLC5        0.0000 
     51 CA         20.0000   18.1780    7.0990 C.3       9 GLL5        0.0000 
     52 CA         21.8380   18.8600    3.1790 C.3       6 GLP5        0.0000 
     53 N          19.5650   20.2195    3.9590 N.am      2 SEC2        0.0000 
     54 N          18.9580   19.8110    5.2010 N.am      8 SEL2        0.0000 
     55 N          20.1720   20.6280    2.7170 N.am      5 SEP2        0.0000 
     56 CA         14.0140   18.7680    0.5450 C.3       3 GLC5        0.0000 
     57 CA         14.7040   19.6450    2.4070 C.3       9 GLL5        0.0000 
     58 CA         13.3240   17.8910   -1.3170 C.3       6 GLP5        0.0000 
     59 CA         13.3995   20.4770    1.3600 C.3       3 GLC5        0.0000 
     60 CA         12.0950   21.3090    0.3130 C.3       6 GLP5        0.0000 
     61 CA         18.1640   17.4700    1.0065 C.3       3 GLC5        0.0000 
     62 CA         16.7430   18.1360    2.5050 C.3       9 GLL5        0.0000 
     63 CA         19.5850   16.8040   -0.4920 C.3       6 GLP5        0.0000 
     64 CA         15.5510   16.3785    1.9720 C.3       3 GLC5        0.0000 
     65 CA         15.5575   15.6253    9.3882 C.3       3 GLC5        0.0000 
     66 CA         14.6940   14.7970    7.6920 C.3       6 GLP5        0.0000 
     67 CA         16.3851   17.5249   12.6481 C.3       3 GLC5        0.0000 
     68 CA         16.6560   15.8870   11.4360 C.3       9 GLL5        0.0000 
     69 CA         15.2660   18.8850   13.6000 C.3       6 GLP5        0.0000 
     70 CA         11.2578   22.4608    1.5470 C.3       3 GLC5        0.0000 
     71 CA         11.1600   23.3930    2.9010 C.3       9 GLL5        0.0000 
     72 CA          9.9428   26.1128    0.8633 C.3       3 GLC5        0.0000 
     73 CA          9.3860   25.1380    2.1440 C.3       9 GLL5        0.0000 
     74 CA         11.1720   26.8840   -0.3110 C.3       6 GLP5        0.0000 
     75 CA          8.7151   24.1650    0.5274 C.3       3 GLC5        0.0000 
     76 CA          8.0410   25.5450    1.9310 C.3       9 GLL5        0.0000 
     77 CA          8.6430   23.3150   -1.1120 C.3       6 GLP5        0.0000 
     78 CA          7.9415   22.1605    4.5465 C.3       3 GLC5        0.0000 
     79 CA          8.5950   22.9430    2.9570 C.3       9 GLL5        0.0000 
     80 CA          7.9600   21.1710    6.2430 C.3       6 GLP5        0.0000 
     81 CA          6.7345   21.6940    2.0775 C.3       3 GLC5        0.0000 
     82 CA          5.5460   20.2380    1.3050 C.3       6 GLP5        0.0000 
     83 CA          8.2830   23.2325    0.8690 C.3       3 GLC5        0.0000 
     84 CA          7.2510   23.3570    2.7430 C.3       9 GLL5        0.0000 
     85 CA         10.1248   27.5463    5.8985 C.3       3 GLC5        0.0000 
     86 CA          9.1240   25.5850    6.3640 C.3       9 GLL5        0.0000 
     87 CA         11.7040   29.0270    5.6520 C.3       6 GLP5        0.0000 
     88 CA          8.8310   24.7209    8.3931 C.3       3 GLC5        0.0000 
     89 CA          8.5540   27.0890    8.1720 C.3       9 GLL5        0.0000 
     90 CA          8.7160   22.9500    9.1870 C.3       6 GLP5        0.0000 
     91 CA          8.3335   26.7347   11.1178 C.3       3 GLC5        0.0000 
     92 CA          7.3510   25.7840   12.4700 C.3       6 GLP5        0.0000 
     93 CA         10.9800   26.9688   11.5098 C.3       3 GLC5        0.0000 
     94 CA         10.9250   26.6890    9.6550 C.3       9 GLL5        0.0000 
     95 CA         11.5400   26.8020   13.1240 C.3       6 GLP5        0.0000 
     96 CA         12.5530   25.7205    9.7775 C.3       3 GLC5        0.0000 
     97 CA         14.2670   25.1010   10.5140 C.3       6 GLP5        0.0000 
     98 CA          9.7775   24.6450    9.1140 C.3       3 GLC5        0.0000 
     99 CA         16.4237   22.1820   10.3880 C.3       3 GLC5        0.0000 
    100 CA         15.8340   21.8000    8.4990 C.3       9 GLL5        0.0000 
    101 CA         17.5050   22.9720   11.9640 C.3       6 GLP5        0.0000 
    102 CA         14.7509   23.4050    9.5686 C.3       3 GLC5        0.0000 
    103 CA         16.7145   21.2903   10.9080 C.3       3 GLC5        0.0000 
    104 CA         15.9380   18.6951   11.9409 C.3       3 GLC5        0.0000 
    105 CA         16.6120   19.4160    9.8900 C.3       9 GLL5        0.0000 
    106 CA         14.3324   18.9936    8.8309 C.3       3 GLC5        0.0000 
    107 CA         17.4528   21.9043   10.4407 C.3       3 GLC5        0.0000 
    108 CA         17.5940   20.2460    9.2650 C.3       9 GLL5        0.0000 
    109 CA         13.0975   18.7289    3.1634 C.3       3 GLC5        0.0000 
    110 CA         11.2670   18.5400    3.3110 C.3       6 GLP5        0.0000 
    111 CA         16.6511   20.4394    2.1037 C.3       3 GLC5        0.0000 
    112 CA         15.5910   18.7780    3.3490 C.3       9 GLL5        0.0000 
    113 CA         17.3570   22.2050    1.5160 C.3       6 GLP5        0.0000 
    114 CA         11.3238   27.7796    7.9941 C.3       3 GLC5        0.0000 
    115 CA         10.7530   25.9910    8.4270 C.3       9 GLL5        0.0000 
    116 CA         12.4860   28.8320    6.9510 C.3       6 GLP5        0.0000 
@<TRIPOS>BOND
@<TRIPOS>SUBSTRUCTURE
     1 ALC1        7 GROUP        1 X    ALC  0     ROOT ALC X 1
     2 SEC2       16 GROUP        1 X    SEC  0     **** SEC X 2
     3 GLC5        1 GROUP        1 X    GLC  0     **** GLC X 6
     4 ALP1        9 GROUP        1 Y    ALP  0     ROOT ALP Y 8
     5 SEP2       18 GROUP        1 Y    SEP  0     **** SEP Y 9
     6 GLP5        3 GROUP        1 Y    GLP  0     **** GLP Y 13
     7 ALL1        8 GROUP        1 Z    ALL  0     ROOT ALL Z 15
     8 SEL2       17 GROUP        1 Z    SEL  0     **** SEL Z 16
     9 GLL5        2 GROUP        1 Z    GLL  0     **** GLL Z 20
@<TRIPOS>SET

