#    Name: 2wkz_5AH_1_ligand
#    Modification time : Tue Mar 25 04:26:22 2014

@<TRIPOS>MOLECULE
2wkz_5AH_1_ligand
   98   102     1     0     0
SMALL
NO_CHARGES


@<TRIPOS>ATOM
      1 C1         14.7130   17.6030    3.9000 C.3       1 5AH1200     0.0000 
      2 C2         18.7520   16.9940   11.8960 C.ar      1 5AH1200     0.0000 
      3 N3         18.3210   18.1090   11.2180 N.ar      1 5AH1200     0.0000 
      4 C4         17.0300   18.1690   10.6140 C.ar      1 5AH1200     0.0000 
      5 C5         16.1860   17.0200   10.7330 C.ar      1 5AH1200     0.0000 
      6 C6         16.6560   15.8870   11.4360 C.ar      1 5AH1200     0.0000 
      7 C7         17.9530   15.8910   12.0170 C.ar      1 5AH1200     0.0000 
      8 C8         11.8820   24.0040    4.1690 C.3       1 5AH1200     0.0000 
      9 C9         13.0830   23.0990    4.5970 C.3       1 5AH1200     0.0000 
     10 C10        14.0080   23.7170    5.6820 C.3       1 5AH1200     0.0000 
     11 O11        12.3990   25.3120    3.7940 O.3       1 5AH1200     0.0000 
     12 C12        11.1600   23.3930    2.9010 C.3       1 5AH1200     0.0000 
     13 C13         9.6810   23.8320    2.6610 C.ar      1 5AH1200     0.0000 
     14 C14         9.3860   25.1380    2.1440 C.ar      1 5AH1200     0.0000 
     15 C15         8.0410   25.5450    1.9310 C.ar      1 5AH1200     0.0000 
     16 C16         6.9710   24.6570    2.2300 C.ar      1 5AH1200     0.0000 
     17 C17         7.2510   23.3570    2.7430 C.ar      1 5AH1200     0.0000 
     18 C18         8.5950   22.9430    2.9570 C.ar      1 5AH1200     0.0000 
     19 C19        10.8180   24.1580    5.2730 C.2       1 5AH1200     0.0000 
     20 N20        10.1970   25.3620    5.3820 N.am      1 5AH1200     0.0000 
     21 C21         9.1240   25.5850    6.3640 C.3       1 5AH1200     0.0000 
     22 C22         7.9670   26.5460    5.9260 C.3       1 5AH1200     0.0000 
     23 O23         8.4030   27.6380    5.0650 O.3       1 5AH1200     0.0000 
     24 C24         7.3680   27.1510    7.2180 C.3       1 5AH1200     0.0000 
     25 C25         8.5540   27.0890    8.1720 C.ar      1 5AH1200     0.0000 
     26 C26         8.7170   27.7890    9.3950 C.ar      1 5AH1200     0.0000 
     27 C27         9.9150   27.5820   10.1360 C.ar      1 5AH1200     0.0000 
     28 C28        10.9250   26.6890    9.6550 C.ar      1 5AH1200     0.0000 
     29 C29        10.7530   25.9910    8.4270 C.ar      1 5AH1200     0.0000 
     30 C30         9.5520   26.2040    7.6890 C.ar      1 5AH1200     0.0000 
     31 O31        10.5210   23.2110    5.9890 O.2       1 5AH1200     0.0000 
     32 N32        14.6840   22.6790    6.5010 N.3       1 5AH1200     0.0000 
     33 C33        15.4030   23.0680    7.7440 C.3       1 5AH1200     0.0000 
     34 C34        15.8340   21.8000    8.4990 C.ar      1 5AH1200     0.0000 
     35 C35        14.8510   20.9840    9.1250 C.ar      1 5AH1200     0.0000 
     36 C36        15.2360   19.8010    9.8140 C.ar      1 5AH1200     0.0000 
     37 C37        16.6120   19.4160    9.8900 C.ar      1 5AH1200     0.0000 
     38 C38        17.5940   20.2460    9.2650 C.ar      1 5AH1200     0.0000 
     39 C39        17.2070   21.4270    8.5700 C.ar      1 5AH1200     0.0000 
     40 N40        15.6220   21.8140    5.6460 N.am      1 5AH1200     0.0000 
     41 C41        15.2840   20.5340    5.3210 C.2       1 5AH1200     0.0000 
     42 C42        16.2440   19.6780    4.4860 C.3       1 5AH1200     0.0000 
     43 N51        16.9110   18.8600    5.4930 N.am      1 5AH1200     0.0000 
     44 C43        18.2200   19.0000    5.7600 C.2       1 5AH1200     0.0000 
     45 O44        18.6090   18.1290    6.7220 O.3       1 5AH1200     0.0000 
     46 C45        20.0000   18.1780    7.0990 C.3       1 5AH1200     0.0000 
     47 O46        18.9580   19.8110    5.2010 O.2       1 5AH1200     0.0000 
     48 C47        15.5910   18.7780    3.3490 C.3       1 5AH1200     0.0000 
     49 C48        14.7040   19.6450    2.4070 C.3       1 5AH1200     0.0000 
     50 C49        16.7430   18.1360    2.5050 C.3       1 5AH1200     0.0000 
     51 O50        14.2120   20.0550    5.7120 O.2       1 5AH1200     0.0000 
     52 H          19.7021   16.9921   12.3231 H         1 5AH1200     0.0000 
     53 H          15.2635   17.0256   10.3157 H         1 5AH1200     0.0000 
     54 H          16.0633   15.0603   11.5286 H         1 5AH1200     0.0000 
     55 H          18.2677   15.0542   12.5225 H         1 5AH1200     0.0000 
     56 H          13.6844   22.8748    3.7047 H         1 5AH1200     0.0000 
     57 H          12.6836   22.1464    4.9728 H         1 5AH1200     0.0000 
     58 H          13.3932   24.3676    6.3160 H         1 5AH1200     0.0000 
     59 H          14.7472   24.3476    5.1730 H         1 5AH1200     0.0000 
     60 H          11.1931   22.2922    2.9888 H         1 5AH1200     0.0000 
     61 H          11.7571   23.6573    2.0098 H         1 5AH1200     0.0000 
     62 H          10.1529   25.7754    1.9294 H         1 5AH1200     0.0000 
     63 H           7.8426   26.4741    1.5636 H         1 5AH1200     0.0000 
     64 H           6.0092   24.9472    2.0788 H         1 5AH1200     0.0000 
     65 H           6.4831   22.7214    2.9573 H         1 5AH1200     0.0000 
     66 H           8.7921   22.0136    3.3213 H         1 5AH1200     0.0000 
     67 H          10.4478   26.1658    4.7867 H         1 5AH1200     0.0000 
     68 H           8.6145   24.6381    6.6285 H         1 5AH1200     0.0000 
     69 H           7.1992   25.9537    5.4676 H         1 5AH1200     0.0000 
     70 H           6.5895   26.5343    7.5628 H         1 5AH1200     0.0000 
     71 H           7.0944   28.1504    7.0401 H         1 5AH1200     0.0000 
     72 H           8.0062   28.4157    9.7320 H         1 5AH1200     0.0000 
     73 H          10.0581   28.0734   11.0189 H         1 5AH1200     0.0000 
     74 H          11.7769   26.5539   10.2017 H         1 5AH1200     0.0000 
     75 H          11.4605   25.3627    8.0870 H         1 5AH1200     0.0000 
     76 H          14.7559   23.6521    8.3914 H         1 5AH1200     0.0000 
     77 H          16.2906   23.6462    7.5056 H         1 5AH1200     0.0000 
     78 H          13.8677   21.2483    9.0794 H         1 5AH1200     0.0000 
     79 H          14.5264   19.2180   10.2601 H         1 5AH1200     0.0000 
     80 H          18.5795   19.9879    9.3188 H         1 5AH1200     0.0000 
     81 H          17.9142   22.0073    8.1219 H         1 5AH1200     0.0000 
     82 H          16.4842   22.2680    5.3569 H         1 5AH1200     0.0000 
     83 H          16.9720   20.3360    4.0307 H         1 5AH1200     0.0000 
     84 H          16.3173   18.1677    5.9877 H         1 5AH1200     0.0000 
     85 H          15.2441   16.9803    4.4746 H         1 5AH1200     0.0000 
     86 H          13.9517   17.9372    4.4557 H         1 5AH1200     0.0000 
     87 H          14.3188   17.0560    3.1615 H         1 5AH1200     0.0000 
     88 H          20.6018   17.9831    6.3245 H         1 5AH1200     0.0000 
     89 H          20.2578   19.0776    7.4514 H         1 5AH1200     0.0000 
     90 H          20.2152   17.5111    7.8124 H         1 5AH1200     0.0000 
     91 H          15.2118   20.4176    2.0259 H         1 5AH1200     0.0000 
     92 H          14.3538   19.1149    1.6348 H         1 5AH1200     0.0000 
     93 H          13.9119   20.0228    2.8865 H         1 5AH1200     0.0000 
     94 H          17.3503   18.8295    2.1174 H         1 5AH1200     0.0000 
     95 H          17.3106   17.5243    3.0561 H         1 5AH1200     0.0000 
     96 H          16.3878   17.5973    1.7410 H         1 5AH1200     0.0000 
     97 H          13.1008   25.1254    3.1065 H         1 5AH1200     0.0000 
     98 H           7.6848   28.3296    5.1407 H         1 5AH1200     0.0000 
@<TRIPOS>BOND
     1   48    1 1    
     2   85    1 1    
     3   86    1 1    
     4   87    1 1    
     5    3    2 ar   
     6    7    2 ar   
     7   52    2 1    
     8    4    3 ar   
     9    5    4 ar   
    10   37    4 1    
    11    6    5 ar   
    12   53    5 1    
    13    7    6 ar   
    14   54    6 1    
    15   55    7 1    
    16    9    8 1    
    17   11    8 1    
    18   12    8 1    
    19   19    8 1    
    20   10    9 1    
    21   56    9 1    
    22   57    9 1    
    23   32   10 1    
    24   58   10 1    
    25   59   10 1    
    26   97   11 1    
    27   13   12 1    
    28   60   12 1    
    29   61   12 1    
    30   14   13 ar   
    31   18   13 ar   
    32   15   14 ar   
    33   62   14 1    
    34   16   15 ar   
    35   63   15 1    
    36   17   16 ar   
    37   64   16 1    
    38   18   17 ar   
    39   65   17 1    
    40   66   18 1    
    41   20   19 am   
    42   31   19 2    
    43   21   20 1    
    44   67   20 1    
    45   22   21 1    
    46   30   21 1    
    47   68   21 1    
    48   23   22 1    
    49   24   22 1    
    50   69   22 1    
    51   98   23 1    
    52   25   24 1    
    53   70   24 1    
    54   71   24 1    
    55   26   25 ar   
    56   30   25 ar   
    57   27   26 ar   
    58   72   26 1    
    59   28   27 ar   
    60   73   27 1    
    61   29   28 ar   
    62   74   28 1    
    63   30   29 ar   
    64   75   29 1    
    65   33   32 1    
    66   40   32 1    
    67   34   33 1    
    68   76   33 1    
    69   77   33 1    
    70   35   34 ar   
    71   39   34 ar   
    72   36   35 ar   
    73   78   35 1    
    74   37   36 ar   
    75   79   36 1    
    76   38   37 ar   
    77   39   38 ar   
    78   80   38 1    
    79   81   39 1    
    80   41   40 am   
    81   82   40 1    
    82   42   41 1    
    83   51   41 2    
    84   43   42 1    
    85   48   42 1    
    86   83   42 1    
    87   44   43 am   
    88   84   43 1    
    89   45   44 1    
    90   47   44 2    
    91   46   45 1    
    92   88   46 1    
    93   89   46 1    
    94   90   46 1    
    95   49   48 1    
    96   50   48 1    
    97   91   49 1    
    98   92   49 1    
    99   93   49 1    
   100   94   50 1    
   101   95   50 1    
   102   96   50 1    
@<TRIPOS>SUBSTRUCTURE
     1 5AH1200     1 GROUP   
@<TRIPOS>SET

