#    Name: 2z02_ATP_2_INTS_M
#    Modification time : Tue Mar 25 09:52:17 2014

@<TRIPOS>MOLECULE
2z02_ATP_2_INTS_M
   73     0    12     0     0
SMALL
NO_CHARGES


@<TRIPOS>ATOM
      1 NZ         -8.8140   34.9440    7.2050 N.4       3 LYC4        0.0000 
      2 NZ         -7.5470   33.7570    7.0610 N.4      11 LYL4        0.0000 
      3 NZ        -10.0810   36.1310    7.3490 N.4       7 LYP4        0.0000 
      4 NZ         -6.4465   32.8910    5.7660 N.4       3 LYC4        0.0000 
      5 NZ         -5.3460   32.0250    4.4710 N.4       7 LYP4        0.0000 
      6 NZ         -5.4590   32.0575    6.2445 N.4       3 LYC4        0.0000 
      7 NZ         -5.5720   32.0900    8.0180 N.4      11 LYL4        0.0000 
      8 NZ         -9.3260   35.6265    8.6925 N.4       3 LYC4        0.0000 
      9 NZ         -8.5710   35.1220   10.0360 N.4      11 LYL4        0.0000 
     10 N          -9.0480   36.2525   10.9210 N.am      2 SEC2        0.0000 
     11 N          -8.5710   35.1220   10.0360 N.am     10 SEL2        0.0000 
     12 N          -9.5250   37.3830   11.8060 N.am      6 SEP2        0.0000 
     13 N          -9.3260   35.6265    8.6925 N.am      2 SEC2        0.0000 
     14 N         -10.0810   36.1310    7.3490 N.am      6 SEP2        0.0000 
     15 N          -9.3760   35.2620   13.2155 N.am      2 SEC2        0.0000 
     16 N          -8.0520   35.0310   12.9620 N.am     10 SEL2        0.0000 
     17 N         -10.7000   35.4930   13.4690 N.am      6 SEP2        0.0000 
     18 N          -8.5015   34.7615   14.2045 N.am      2 SEC2        0.0000 
     19 N          -8.9510   34.4920   15.4470 N.am      6 SEP2        0.0000 
     20 NZ         -7.0205   31.3860   12.9630 N.4       3 LYC4        0.0000 
     21 NZ         -7.2020   32.5710   12.2530 N.4      11 LYL4        0.0000 
     22 NZ         -6.8390   30.2010   13.6730 N.4       7 LYP4        0.0000 
     23 N          -7.0205   31.3860   12.9630 N.am      2 SEC2        0.0000 
     24 N          -7.2020   32.5710   12.2530 N.am     10 SEL2        0.0000 
     25 N          -6.8390   30.2010   13.6730 N.am      6 SEP2        0.0000 
     26 N          -7.2710   31.7215   11.1855 N.am      2 SEC2        0.0000 
     27 N          -7.3400   30.8720   10.1180 N.am      6 SEP2        0.0000 
     28 CA         -5.6785   31.8660   13.9590 C.3       4 GLC5        0.0000 
     29 CA         -5.0710   33.4200   12.8720 C.3      12 GLL5        0.0000 
     30 CA         -6.2860   30.3120   15.0460 C.3       8 GLP5        0.0000 
     31 CA         -3.6125   33.4070   14.5740 C.3       4 GLC5        0.0000 
     32 CA         -2.1540   33.3940   16.2760 C.3       8 GLP5        0.0000 
     33 CA         -2.7455   34.4150   14.1245 C.3       4 GLC5        0.0000 
     34 CA         -3.7700   34.0210   12.3260 C.3      12 GLL5        0.0000 
     35 CA         -1.7210   34.8090   15.9230 C.3       8 GLP5        0.0000 
     36 O          -2.3405   31.2810    9.0395 O.2       1 ALC1        0.0000 
     37 O          -1.7550   32.5290    9.6560 O.2       9 ALL1        0.0000 
     38 O          -2.9260   30.0330    8.4230 O.2       5 ALP1        0.0000 
     39 CA         -1.9055   33.1730   14.1935 C.3       4 GLC5        0.0000 
     40 CA         -1.6570   32.9520   12.1110 C.3      12 GLL5        0.0000 
     41 N          -1.2265   28.3425   13.0380 N.am      2 SEC2        0.0000 
     42 N          -0.6570   29.8140   13.6320 N.am     10 SEL2        0.0000 
     43 N          -1.7960   26.8710   12.4440 N.am      6 SEP2        0.0000 
     44 CA         -0.5465   29.8270   15.6795 C.3       4 GLC5        0.0000 
     45 CA          0.4790   30.5220   13.8470 C.3      12 GLL5        0.0000 
     46 CA         -1.5720   29.1320   17.5120 C.3       8 GLP5        0.0000 
     47 CA          0.7420   30.1405   11.7130 C.3       4 GLC5        0.0000 
     48 CA          1.0050   29.7590    9.5790 C.3       8 GLP5        0.0000 
     49 CA          2.0315   30.6430   16.5280 C.3       4 GLC5        0.0000 
     50 CA          1.7270   30.2700   14.4960 C.3      12 GLL5        0.0000 
     51 CA          2.3360   31.0160   18.5600 C.3       8 GLP5        0.0000 
     52 O           3.1965   28.4470   15.7495 O.2       1 ALC1        0.0000 
     53 O           2.0040   29.0330   15.0420 O.2       9 ALL1        0.0000 
     54 O           4.3890   27.8610   16.4570 O.2       5 ALP1        0.0000 
     55 N           4.1775   30.6450   14.2940 N.am      2 SEC2        0.0000 
     56 N           2.6410   31.2680   14.5620 N.am     10 SEL2        0.0000 
     57 N           5.7140   30.0220   14.0260 N.am      6 SEP2        0.0000 
     58 CA          1.4135   33.5950   15.6165 C.3       4 GLC5        0.0000 
     59 CA          2.4210   32.4600   13.9910 C.3      12 GLL5        0.0000 
     60 CA          0.4060   34.7300   17.2420 C.3       8 GLP5        0.0000 
     61 CA         -0.9295   32.5980   14.7650 C.3       4 GLC5        0.0000 
     62 CA          0.2950   31.8020   13.2540 C.3      12 GLL5        0.0000 
     63 CA          0.7730   31.5295   11.3380 C.3       4 GLC5        0.0000 
     64 CA          1.2510   31.2570    9.4220 C.3       8 GLP5        0.0000 
     65 CA         -3.6452   35.7075   11.5725 C.3       4 GLC5        0.0000 
     66 CA         -3.5810   33.6470   10.8460 C.3      12 GLL5        0.0000 
     67 CA         -3.6150   37.5810   11.5590 C.3       8 GLP5        0.0000 
     68 CA         -0.4133   32.0067   10.4582 C.3       4 GLC5        0.0000 
     69 CA         -2.4980   32.5610   10.8780 C.3      12 GLL5        0.0000 
     70 CA          0.8025   28.4440   14.7272 C.3       4 GLC5        0.0000 
     71 CA          0.5020   26.4920   15.2830 C.3       8 GLP5        0.0000 
     72 CA          2.5045   29.5450   13.0892 C.3       4 GLC5        0.0000 
     73 CA          3.9060   28.6940   12.0070 C.3       8 GLP5        0.0000 
@<TRIPOS>BOND
@<TRIPOS>SUBSTRUCTURE
     1 ALC1       36 GROUP        1 X    ALC  0     ROOT ALC X 1
     2 SEC2       10 GROUP        1 X    SEC  0     **** SEC X 2
     3 LYC4        1 GROUP        1 X    LYC  0     **** LYC X 4
     4 GLC5       28 GROUP        1 X    GLC  0     **** GLC X 6
     5 ALP1       38 GROUP        1 Y    ALP  0     ROOT ALP Y 8
     6 SEP2       12 GROUP        1 Y    SEP  0     **** SEP Y 9
     7 LYP4        3 GROUP        1 Y    LYP  0     **** LYP Y 11
     8 GLP5       30 GROUP        1 Y    GLP  0     **** GLP Y 13
     9 ALL1       37 GROUP        1 Z    ALL  0     ROOT ALL Z 15
    10 SEL2       11 GROUP        1 Z    SEL  0     **** SEL Z 16
    11 LYL4        2 GROUP        1 Z    LYL  0     **** LYL Z 18
    12 GLL5       29 GROUP        1 Z    GLL  0     **** GLL Z 20
@<TRIPOS>SET

