#    Name: 2z02_ATP_2_ligand
#    Modification time : Tue Mar 25 09:52:17 2014

@<TRIPOS>MOLECULE
2z02_ATP_2_ligand
   43    45     1     0     0
SMALL
NO_CHARGES


@<TRIPOS>ATOM
      1 PG         -6.0090   33.5650    7.5050 P.3       1 ATP1526     0.0000 
      2 O1G        -5.1090   34.6710    7.8930 O.co2     1 ATP1526     0.0000 
      3 O2G        -7.5470   33.7570    7.0610 O.co2     1 ATP1526     0.0000 
      4 O3G        -5.5720   32.0900    8.0180 O.co2     1 ATP1526     0.0000 
      5 PB         -7.2730   35.1240    9.3610 P.3       1 ATP1526     0.0000 
      6 O1B        -8.5710   35.1220   10.0360 O.co2     1 ATP1526     0.0000 
      7 O2B        -6.3220   36.4100    9.3770 O.co2     1 ATP1526     0.0000 
      8 O3B        -6.6140   33.6640    9.0320 O.3       1 ATP1526     0.0000 
      9 PA         -7.4180   34.1390   11.9850 P.3       1 ATP1526     0.0000 
     10 O1A        -8.0520   35.0310   12.9620 O.co2     1 ATP1526     0.0000 
     11 O2A        -7.2020   32.5710   12.2530 O.co2     1 ATP1526     0.0000 
     12 O3A        -6.5120   34.8700   10.8150 O.3       1 ATP1526     0.0000 
     13 O5'        -6.1080   34.4310   12.9580 O.3       1 ATP1526     0.0000 
     14 C5'        -5.0710   33.4200   12.8720 C.3       1 ATP1526     0.0000 
     15 C4'        -3.7700   34.0210   12.3260 C.3       1 ATP1526     0.0000 
     16 O4'        -2.6110   33.5000   13.0640 O.3       1 ATP1526     0.0000 
     17 C3'        -3.5810   33.6470   10.8460 C.3       1 ATP1526     0.0000 
     18 O3'        -3.2070   34.8060   10.0880 O.3       1 ATP1526     0.0000 
     19 C2'        -2.4980   32.5610   10.8780 C.3       1 ATP1526     0.0000 
     20 O2'        -1.7550   32.5290    9.6560 O.3       1 ATP1526     0.0000 
     21 C1'        -1.6570   32.9520   12.1110 C.3       1 ATP1526     0.0000 
     22 N9         -0.9740   31.7940   12.7250 N.pl3     1 ATP1526     0.0000 
     23 C8         -1.4770   30.5280   12.9070 C.2       1 ATP1526     0.0000 
     24 N7         -0.6570   29.8140   13.6320 N.2       1 ATP1526     0.0000 
     25 C5          0.4790   30.5220   13.8470 C.ar      1 ATP1526     0.0000 
     26 C6          1.7270   30.2700   14.4960 C.ar      1 ATP1526     0.0000 
     27 N6          2.0040   29.0330   15.0420 N.pl3     1 ATP1526     0.0000 
     28 N1          2.6410   31.2680   14.5620 N.ar      1 ATP1526     0.0000 
     29 C2          2.4210   32.4600   13.9910 C.ar      1 ATP1526     0.0000 
     30 N3          1.2900   32.7140   13.3220 N.ar      1 ATP1526     0.0000 
     31 C4          0.2950   31.8020   13.2540 C.ar      1 ATP1526     0.0000 
     32 H          -5.3694   32.6012   12.2059 H         1 ATP1526     0.0000 
     33 H          -4.8552   32.9881   13.8569 H         1 ATP1526     0.0000 
     34 H          -3.8138   35.0870   12.4007 H         1 ATP1526     0.0000 
     35 H          -4.4923   33.1990   10.5150 H         1 ATP1526     0.0000 
     36 H          -2.9896   31.6351   11.1068 H         1 ATP1526     0.0000 
     37 H          -0.9625   33.7034   11.8163 H         1 ATP1526     0.0000 
     38 H          -2.3355   30.2376   12.5297 H         1 ATP1526     0.0000 
     39 H           1.5826   28.2476   14.5886 H         1 ATP1526     0.0000 
     40 H           2.6020   29.0297   15.8435 H         1 ATP1526     0.0000 
     41 H           3.1548   33.2134   14.0708 H         1 ATP1526     0.0000 
     42 H          -3.8453   34.8289    9.3186 H         1 ATP1526     0.0000 
     43 H          -2.0580   31.6973    9.1907 H         1 ATP1526     0.0000 
@<TRIPOS>BOND
     1    2    1 ar   
     2    3    1 ar   
     3    4    1 ar   
     4    8    1 1    
     5    6    5 ar   
     6    7    5 ar   
     7    8    5 1    
     8   12    5 1    
     9   10    9 ar   
    10   11    9 ar   
    11   12    9 1    
    12   13    9 1    
    13   14   13 1    
    14   15   14 1    
    15   32   14 1    
    16   33   14 1    
    17   16   15 1    
    18   17   15 1    
    19   34   15 1    
    20   21   16 1    
    21   18   17 1    
    22   19   17 1    
    23   35   17 1    
    24   42   18 1    
    25   20   19 1    
    26   21   19 1    
    27   36   19 1    
    28   43   20 1    
    29   22   21 1    
    30   37   21 1    
    31   23   22 1    
    32   31   22 1    
    33   24   23 2    
    34   38   23 1    
    35   25   24 1    
    36   26   25 ar   
    37   31   25 ar   
    38   27   26 1    
    39   28   26 ar   
    40   39   27 1    
    41   40   27 1    
    42   29   28 ar   
    43   30   29 ar   
    44   41   29 1    
    45   31   30 ar   
@<TRIPOS>SUBSTRUCTURE
     1 ATP1526     1 GROUP   
@<TRIPOS>SET

