#    Name: 1s4e_ADP_3_INTS_M
#    Modification time : Tue Mar 25 02:00:30 2014

@<TRIPOS>MOLECULE
1s4e_ADP_3_INTS_M
   46     0     9     0     0
SMALL
NO_CHARGES


@<TRIPOS>ATOM
      1 Zn        103.3005   22.9365   72.7595 Zn        2 ZIC7        0.0000 
      2 Zn        103.4320   21.9760   72.2000 Zn        8 ZIL7        0.0000 
      3 Zn        103.1690   23.8970   73.3190 Zn        5 ZIP7        0.0000 
      4 N         104.2730   18.2655   72.5220 N.am      1 SEC2        0.0000 
      5 N         103.6230   19.5300   71.7450 N.am      7 SEL2        0.0000 
      6 N         104.9230   17.0010   73.2990 N.am      4 SEP2        0.0000 
      7 N         102.6785   18.8565   72.7970 N.am      1 SEC2        0.0000 
      8 N         101.7340   18.1830   73.8490 N.am      4 SEP2        0.0000 
      9 N         102.0715   19.2495   73.8110 N.am      1 SEC2        0.0000 
     10 N         102.4090   20.3160   73.7730 N.am      7 SEL2        0.0000 
     11 N         101.2250   20.7885   74.4060 N.am      1 SEC2        0.0000 
     12 N         100.0410   21.2610   75.0390 N.am      4 SEP2        0.0000 
     13 Zn        103.3970   23.2420   74.1400 Zn        2 ZIC7        0.0000 
     14 Zn        103.6250   22.5870   74.9610 Zn        8 ZIL7        0.0000 
     15 CA        101.9975   18.9570   75.5700 C.3       3 GLC5        0.0000 
     16 CA        103.5570   19.8610   76.6910 C.3       9 GLL5        0.0000 
     17 CA        100.4380   18.0530   74.4490 C.3       6 GLP5        0.0000 
     18 CA        102.3095   21.6295   76.2655 C.3       3 GLC5        0.0000 
     19 CA        101.0620   23.3980   75.8400 C.3       6 GLP5        0.0000 
     20 CA        103.5190   21.1600   79.4590 C.3       3 GLC5        0.0000 
     21 CA        103.6800   19.8180   78.2030 C.3       9 GLL5        0.0000 
     22 CA        103.3580   22.5020   80.7150 C.3       6 GLP5        0.0000 
     23 CA        103.4180   20.4990   80.4165 C.3       3 GLC5        0.0000 
     24 CA        103.4780   18.4960   80.1180 C.3       9 GLL5        0.0000 
     25 CA        102.2210   20.7600   80.6915 C.3       3 GLC5        0.0000 
     26 CA        102.1530   19.1650   79.7950 C.3       9 GLL5        0.0000 
     27 CA        102.2890   22.3550   81.5880 C.3       6 GLP5        0.0000 
     28 CA        100.1730   19.5630   80.4595 C.3       3 GLC5        0.0000 
     29 CA         98.1930   19.9610   81.1240 C.3       6 GLP5        0.0000 
     30 CA         98.3670   18.3195   79.0800 C.3       3 GLC5        0.0000 
     31 CA         99.6310   16.6190   79.3150 C.3       9 GLL5        0.0000 
     32 CA         97.1030   20.0200   78.8450 C.3       6 GLP5        0.0000 
     33 CA         97.2560   15.1250   80.6750 C.3       3 GLC5        0.0000 
     34 CA         98.8930   15.5860   79.8450 C.3       9 GLL5        0.0000 
     35 CA         95.6190   14.6640   81.5050 C.3       6 GLP5        0.0000 
     36 N          99.3945   13.8775   82.0695 N.am      1 SEC2        0.0000 
     37 N          99.0900   15.2270   81.1770 N.am      7 SEL2        0.0000 
     38 N          99.6990   12.5280   82.9620 N.am      4 SEP2        0.0000 
     39 CA         99.5065   14.2980   83.0705 C.3       3 GLC5        0.0000 
     40 CA        100.0270   15.8930   81.9620 C.3       9 GLL5        0.0000 
     41 CA         98.9860   12.7030   84.1790 C.3       6 GLP5        0.0000 
     42 CA        103.1483   18.5297   81.8837 C.3       3 GLC5        0.0000 
     43 CA        103.4810   18.2290   83.8110 C.3       6 GLP5        0.0000 
     44 CA        102.7518   16.9315   78.8359 C.3       3 GLC5        0.0000 
     45 CA        102.5160   15.0340   78.0500 C.3       6 GLP5        0.0000 
     46 CA        101.2140   15.8596   78.9485 C.3       3 GLC5        0.0000 
@<TRIPOS>BOND
@<TRIPOS>SUBSTRUCTURE
     1 SEC2        4 GROUP        1 X    SEC  0     ROOT SEC X 2
     2 ZIC7        1 GROUP        1 X    ZIC  0     **** ZIC X 5
     3 GLC5       15 GROUP        1 X    GLC  0     **** GLC X 6
     4 SEP2        6 GROUP        1 Y    SEP  0     ROOT SEP Y 9
     5 ZIP7        3 GROUP        1 Y    ZIP  0     **** ZIP Y 12
     6 GLP5       17 GROUP        1 Y    GLP  0     **** GLP Y 13
     7 SEL2        5 GROUP        1 Z    SEL  0     ROOT SEL Z 16
     8 ZIL7        2 GROUP        1 Z    ZIL  0     **** ZIL Z 19
     9 GLL5       16 GROUP        1 Z    GLL  0     **** GLL Z 20
@<TRIPOS>SET

