#    Name: 1s4e_ADP_3_ligand
#    Modification time : Tue Mar 25 02:00:30 2014

@<TRIPOS>MOLECULE
1s4e_ADP_3_ligand
   39    41     1     0     0
SMALL
NO_CHARGES


@<TRIPOS>ATOM
      1 PB        103.5880   20.6180   72.8410 P.3       1 ADP2400     0.0000 
      2 O1B       103.4320   21.9760   72.2000 O.co2     1 ADP2400     0.0000 
      3 O2B       103.6230   19.5300   71.7450 O.co2     1 ADP2400     0.0000 
      4 O3B       102.4090   20.3160   73.7730 O.co2     1 ADP2400     0.0000 
      5 PA        104.7830   21.5820   75.0840 P.3       1 ADP2400     0.0000 
      6 O1A       106.0820   22.2650   75.2930 O.co2     1 ADP2400     0.0000 
      7 O2A       103.6250   22.5870   74.9610 O.co2     1 ADP2400     0.0000 
      8 O3A       104.8330   20.5470   73.8550 O.3       1 ADP2400     0.0000 
      9 O5'       104.5320   20.8190   76.4510 O.3       1 ADP2400     0.0000 
     10 C5'       103.5570   19.8610   76.6910 C.3       1 ADP2400     0.0000 
     11 C4'       103.6800   19.8180   78.2030 C.3       1 ADP2400     0.0000 
     12 O4'       102.4170   20.0920   78.7520 O.3       1 ADP2400     0.0000 
     13 C3'       104.1660   18.4900   78.7790 C.3       1 ADP2400     0.0000 
     14 O3'       105.5670   18.4440   78.8830 O.3       1 ADP2400     0.0000 
     15 C2'       103.4780   18.4960   80.1180 C.3       1 ADP2400     0.0000 
     16 O2'       104.1580   19.3320   81.0350 O.3       1 ADP2400     0.0000 
     17 C1'       102.1530   19.1650   79.7950 C.3       1 ADP2400     0.0000 
     18 N9        101.1300   18.2130   79.3290 N.pl3     1 ADP2400     0.0000 
     19 C8        100.5520   18.1510   78.0810 C.2       1 ADP2400     0.0000 
     20 N7         99.6400   17.1570   78.0830 N.2       1 ADP2400     0.0000 
     21 C5         99.6310   16.6190   79.3150 C.ar      1 ADP2400     0.0000 
     22 C6         98.8930   15.5860   79.8450 C.ar      1 ADP2400     0.0000 
     23 N6         98.0520   14.9500   79.0280 N.pl3     1 ADP2400     0.0000 
     24 N1         99.0900   15.2270   81.1770 N.ar      1 ADP2400     0.0000 
     25 C2        100.0270   15.8930   81.9620 C.ar      1 ADP2400     0.0000 
     26 N3        100.7700   16.9320   81.4190 N.ar      1 ADP2400     0.0000 
     27 C4        100.5620   17.2680   80.1140 C.ar      1 ADP2400     0.0000 
     28 H         103.8002   18.9043   76.3124 H         1 ADP2400     0.0000 
     29 H         102.5790   20.1811   76.4480 H         1 ADP2400     0.0000 
     30 H         104.3895   20.5935   78.5081 H         1 ADP2400     0.0000 
     31 H         103.7348   17.7149   78.1893 H         1 ADP2400     0.0000 
     32 H         103.3008   17.5301   80.4410 H         1 ADP2400     0.0000 
     33 H         101.8119   19.6805   80.6751 H         1 ADP2400     0.0000 
     34 H         100.7721   18.7259   77.3438 H         1 ADP2400     0.0000 
     35 H          97.5301   14.1986   79.4318 H         1 ADP2400     0.0000 
     36 H          98.0191   15.2818   78.0852 H         1 ADP2400     0.0000 
     37 H         100.1669   15.6147   82.9411 H         1 ADP2400     0.0000 
     38 H         105.9001   18.5745   77.9492 H         1 ADP2400     0.0000 
     39 H         105.1026   19.3606   80.7077 H         1 ADP2400     0.0000 
@<TRIPOS>BOND
     1    2    1 ar   
     2    3    1 ar   
     3    4    1 ar   
     4    8    1 1    
     5    6    5 ar   
     6    7    5 ar   
     7    8    5 1    
     8    9    5 1    
     9   10    9 1    
    10   11   10 1    
    11   28   10 1    
    12   29   10 1    
    13   12   11 1    
    14   13   11 1    
    15   30   11 1    
    16   17   12 1    
    17   14   13 1    
    18   15   13 1    
    19   31   13 1    
    20   38   14 1    
    21   16   15 1    
    22   17   15 1    
    23   32   15 1    
    24   39   16 1    
    25   18   17 1    
    26   33   17 1    
    27   19   18 1    
    28   27   18 1    
    29   20   19 2    
    30   34   19 1    
    31   21   20 1    
    32   22   21 ar   
    33   27   21 ar   
    34   23   22 1    
    35   24   22 ar   
    36   35   23 1    
    37   36   23 1    
    38   25   24 ar   
    39   26   25 ar   
    40   37   25 1    
    41   27   26 ar   
@<TRIPOS>SUBSTRUCTURE
     1 ADP2400     1 GROUP   
@<TRIPOS>SET

