#    Name: 4i5i_4I5_2_INTS_M
#    Modification time : Tue Mar 25 02:29:11 2014

@<TRIPOS>MOLECULE
4i5i_4I5_2_INTS_M
   61     0     9     0     0
SMALL
NO_CHARGES


@<TRIPOS>ATOM
      1 O          13.2140   -4.6155   17.2755 O.2       1 ALC1        0.0000 
      2 O          11.8940   -5.2640   17.1810 O.2       7 ALL1        0.0000 
      3 O          14.5340   -3.9670   17.3700 O.2       4 ALP1        0.0000 
      4 O          10.8860   -4.3100   16.5050 O.2       1 ALC1        0.0000 
      5 O           9.8780   -3.3560   15.8290 O.2       4 ALP1        0.0000 
      6 N          13.4200   -7.6050   19.1620 N.am      2 SEC2        0.0000 
      7 N          12.7970   -7.1480   17.9970 N.am      8 SEL2        0.0000 
      8 N          14.0430   -8.0620   20.3270 N.am      5 SEP2        0.0000 
      9 N          14.2725   -7.3190   18.1865 N.am      2 SEC2        0.0000 
     10 N          15.7480   -7.4900   18.3760 N.am      5 SEP2        0.0000 
     11 CA          8.8430  -15.0090   18.9280 C.3       3 GLC5        0.0000 
     12 CA          9.6540  -14.3260   20.4070 C.3       9 GLL5        0.0000 
     13 CA          8.0320  -15.6920   17.4490 C.3       6 GLP5        0.0000 
     14 CA          9.4085  -16.0890   20.8250 C.3       3 GLC5        0.0000 
     15 CA          9.1630  -17.8520   21.2430 C.3       6 GLP5        0.0000 
     16 CA          7.8870  -13.9745   21.4990 C.3       3 GLC5        0.0000 
     17 CA          6.1200  -13.6230   22.5910 C.3       6 GLP5        0.0000 
     18 O          10.6345   -8.1205   21.4795 O.2       1 ALC1        0.0000 
     19 O          10.1760   -8.5400   19.9180 O.2       7 ALL1        0.0000 
     20 O          11.0930   -7.7010   23.0410 O.2       4 ALP1        0.0000 
     21 O           9.5415   -7.2700   20.5710 O.2       1 ALC1        0.0000 
     22 O           8.9070   -6.0000   21.2240 O.2       4 ALP1        0.0000 
     23 CA         11.7650  -11.8670   18.4375 C.3       3 GLC5        0.0000 
     24 CA          9.8880  -11.9830   19.0850 C.3       9 GLL5        0.0000 
     25 CA         13.6420  -11.7510   17.7900 C.3       6 GLP5        0.0000 
     26 CA          8.2435   -8.1135   17.0775 C.3       3 GLC5        0.0000 
     27 CA          9.6860   -7.6040   15.5340 C.3       9 GLL5        0.0000 
     28 CA          6.8010   -8.6230   18.6210 C.3       6 GLP5        0.0000 
     29 CA         11.9270  -10.1830   17.4970 C.3       3 GLC5        0.0000 
     30 CA         10.1170   -9.9470   16.4950 C.3       9 GLL5        0.0000 
     31 CA         13.7370  -10.4190   18.4990 C.3       6 GLP5        0.0000 
     32 CA         11.7525  -11.5960   20.9535 C.3       3 GLC5        0.0000 
     33 CA          9.8120  -12.6160   20.3360 C.3       9 GLL5        0.0000 
     34 CA         13.6700  -10.9430   20.9780 C.3       6 GLP5        0.0000 
     35 CA         11.1435  -14.6400   19.6538 C.3       3 GLC5        0.0000 
     36 CA         12.5540  -15.8090   18.9360 C.3       6 GLP5        0.0000 
     37 CA         10.6750  -10.9550   23.2612 C.3       3 GLC5        0.0000 
     38 CA          9.8580  -11.8820   21.5220 C.3       9 GLL5        0.0000 
     39 CA         11.4260  -10.7250   25.0160 C.3       6 GLP5        0.0000 
     40 CA         11.8463  -10.5605   20.9205 C.3       3 GLC5        0.0000 
     41 CA          9.9900  -10.4880   21.4910 C.3       9 GLL5        0.0000 
     42 CA          8.4032  -10.0332   21.4979 C.3       3 GLC5        0.0000 
     43 CA          6.8170   -9.5400   22.1250 C.3       6 GLP5        0.0000 
     44 CA         11.5690   -6.9688   19.8485 C.3       3 GLC5        0.0000 
     45 CA         10.2180   -8.3650   18.5590 C.3       9 GLL5        0.0000 
     46 CA         12.8620   -6.2630   21.4220 C.3       6 GLP5        0.0000 
     47 CA         11.9390   -9.8251   18.5131 C.3       3 GLC5        0.0000 
     48 CA          8.8395   -5.3200   17.9890 C.3       3 GLC5        0.0000 
     49 CA         10.3340   -6.9840   17.9910 C.3       9 GLL5        0.0000 
     50 CA          7.8050   -3.7750   18.5930 C.3       6 GLP5        0.0000 
     51 CA          8.3375   -7.7440   18.0030 C.3       3 GLC5        0.0000 
     52 CA          9.4140   -6.7460   16.7790 C.3       9 GLL5        0.0000 
     53 CA         10.5185   -6.1910   14.8217 C.3       3 GLC5        0.0000 
     54 CA         11.4870   -5.2070   13.4870 C.3       6 GLP5        0.0000 
     55 CA          7.6763   -8.4210   14.6520 C.3       3 GLC5        0.0000 
     56 CA          5.8990   -8.5090   13.7240 C.3       6 GLP5        0.0000 
     57 CA          8.1335   -9.7293   17.1763 C.3       3 GLC5        0.0000 
     58 CA          9.2210   -9.0620   15.6260 C.3       9 GLL5        0.0000 
     59 CA          6.5980   -9.9540   18.2920 C.3       6 GLP5        0.0000 
     60 CA         10.4020  -10.4447   14.4713 C.3       3 GLC5        0.0000 
     61 CA         11.1350  -11.3850   12.8820 C.3       6 GLP5        0.0000 
@<TRIPOS>BOND
@<TRIPOS>SUBSTRUCTURE
     1 ALC1        1 GROUP        1 X    ALC  0     ROOT ALC X 1
     2 SEC2        6 GROUP        1 X    SEC  0     **** SEC X 2
     3 GLC5       11 GROUP        1 X    GLC  0     **** GLC X 6
     4 ALP1        3 GROUP        1 Y    ALP  0     ROOT ALP Y 8
     5 SEP2        8 GROUP        1 Y    SEP  0     **** SEP Y 9
     6 GLP5       13 GROUP        1 Y    GLP  0     **** GLP Y 13
     7 ALL1        2 GROUP        1 Z    ALL  0     ROOT ALL Z 15
     8 SEL2        7 GROUP        1 Z    SEL  0     **** SEL Z 16
     9 GLL5       12 GROUP        1 Z    GLL  0     **** GLL Z 20
@<TRIPOS>SET

