#    Name: 4i5i_4I5_2_ligand
#    Modification time : Tue Mar 25 02:29:11 2014

@<TRIPOS>MOLECULE
4i5i_4I5_2_ligand
   33    35     1     0     0
SMALL
NO_CHARGES


@<TRIPOS>ATOM
      1 C1          9.8120  -12.6160   20.3360 C.ar      1 4I5601      0.0000 
      2 N1         11.8940   -5.2640   17.1810 N.am      1 4I5601      0.0000 
      3 O1         12.7970   -7.1480   17.9970 O.2       1 4I5601      0.0000 
      4 CL1         9.6540  -14.3260   20.4070 Cl        1 4I5601      0.0000 
      5 C2          9.8580  -11.8820   21.5220 C.ar      1 4I5601      0.0000 
      6 N2         10.1760   -8.5400   19.9180 N.pl3     1 4I5601      0.0000 
      7 C3          9.9900  -10.4880   21.4910 C.ar      1 4I5601      0.0000 
      8 C4         10.0550   -9.8680   20.2350 C.ar      1 4I5601      0.0000 
      9 C5         10.0140  -10.5740   19.0280 C.ar      1 4I5601      0.0000 
     10 C6          9.8880  -11.9830   19.0850 C.ar      1 4I5601      0.0000 
     11 C7         10.1140   -9.6210   17.9630 C.2       1 4I5601      0.0000 
     12 C8         10.2180   -8.3650   18.5590 C.2       1 4I5601      0.0000 
     13 C9         10.3340   -6.9840   17.9910 C.3       1 4I5601      0.0000 
     14 C10         9.4140   -6.7460   16.7790 C.3       1 4I5601      0.0000 
     15 C11         9.6860   -7.6040   15.5340 C.3       1 4I5601      0.0000 
     16 C12         9.2210   -9.0620   15.6260 C.3       1 4I5601      0.0000 
     17 C13        10.1170   -9.9470   16.4950 C.3       1 4I5601      0.0000 
     18 C14        11.7800   -6.5090   17.7350 C.2       1 4I5601      0.0000 
     19 H          11.0365   -4.7813   17.0032 H         1 4I5601      0.0000 
     20 H          12.8249   -4.9455   17.0023 H         1 4I5601      0.0000 
     21 H           9.7946  -12.3668   22.4279 H         1 4I5601      0.0000 
     22 H          10.2254   -7.8188   20.5694 H         1 4I5601      0.0000 
     23 H          10.0367   -9.9485   22.3415 H         1 4I5601      0.0000 
     24 H           9.8534  -12.5261   18.2260 H         1 4I5601      0.0000 
     25 H           9.9324   -6.2723   18.7983 H         1 4I5601      0.0000 
     26 H           9.4798   -5.6742   16.4923 H         1 4I5601      0.0000 
     27 H           8.3619   -6.9082   17.0986 H         1 4I5601      0.0000 
     28 H          10.7733   -7.5896   15.3250 H         1 4I5601      0.0000 
     29 H           9.1959   -7.1283   14.6625 H         1 4I5601      0.0000 
     30 H           9.1767   -9.4859   14.6101 H         1 4I5601      0.0000 
     31 H           8.1965   -9.0836   16.0305 H         1 4I5601      0.0000 
     32 H           9.8070  -11.0042   16.3523 H         1 4I5601      0.0000 
     33 H          11.1553   -9.8812   16.1057 H         1 4I5601      0.0000 
@<TRIPOS>BOND
     1    4    1 1    
     2    5    1 ar   
     3   10    1 ar   
     4   18    2 am   
     5   19    2 1    
     6   20    2 1    
     7   18    3 2    
     8    7    5 ar   
     9   21    5 1    
    10    8    6 1    
    11   12    6 1    
    12   22    6 1    
    13    8    7 ar   
    14   23    7 1    
    15    9    8 ar   
    16   10    9 ar   
    17   11    9 1    
    18   24   10 1    
    19   12   11 2    
    20   17   11 1    
    21   13   12 1    
    22   14   13 1    
    23   18   13 1    
    24   25   13 1    
    25   15   14 1    
    26   26   14 1    
    27   27   14 1    
    28   16   15 1    
    29   28   15 1    
    30   29   15 1    
    31   17   16 1    
    32   30   16 1    
    33   31   16 1    
    34   32   17 1    
    35   33   17 1    
@<TRIPOS>SUBSTRUCTURE
     1 4I5601      1 GROUP   
@<TRIPOS>SET

