#    Name: 3nwq_2NC_1_INTS_M
#    Modification time : Tue Mar 25 02:50:22 2014

@<TRIPOS>MOLECULE
3nwq_2NC_1_INTS_M
  117     0    12     0     0
SMALL
NO_CHARGES


@<TRIPOS>ATOM
      1 CA          5.8555   -9.4300   13.8415 C.3       4 GLC5        0.0000 
      2 CA          4.1580   -9.4970   15.1400 C.3      12 GLL5        0.0000 
      3 CA          7.5530   -9.3630   12.5430 C.3       8 GLP5        0.0000 
      4 CA          4.7650   -7.9455   13.6940 C.3       4 GLC5        0.0000 
      5 CA          5.3720   -6.3940   12.2480 C.3       8 GLP5        0.0000 
      6 CA          2.3215   -9.1595   14.5310 C.3       4 GLC5        0.0000 
      7 CA          0.4850   -8.8220   13.9220 C.3       8 GLP5        0.0000 
      8 O           6.2920   -8.1755   15.4315 O.2       1 ALC1        0.0000 
      9 O           5.7230   -8.6180   16.7160 O.2       9 ALL1        0.0000 
     10 O           6.8610   -7.7330   14.1470 O.2       5 ALP1        0.0000 
     11 N           7.8195   -5.3990   19.9835 N.am      2 SEC2        0.0000 
     12 N           7.0640   -5.9690   18.8630 N.am     10 SEL2        0.0000 
     13 N           8.5750   -4.8290   21.1040 N.am      6 SEP2        0.0000 
     14 CA          8.1170   -7.9660   20.3505 C.3       4 GLC5        0.0000 
     15 CA          7.2240   -8.9040   18.6480 C.3      12 GLL5        0.0000 
     16 CA          9.0100   -7.0280   22.0530 C.3       8 GLP5        0.0000 
     17 O           6.8615   -6.9190   15.3830 O.2       1 ALC1        0.0000 
     18 O           6.8620   -6.1050   16.6190 O.2       9 ALL1        0.0000 
     19 CA          7.7155   -3.7900   18.1335 C.3       4 GLC5        0.0000 
     20 CA          7.4450   -4.7980   16.3820 C.3      12 GLL5        0.0000 
     21 CA          7.9860   -2.7820   19.8850 C.3       8 GLP5        0.0000 
     22 CA          8.7150   -4.8640   13.3565 C.3       4 GLC5        0.0000 
     23 CA          8.7560   -4.8650   15.5450 C.3      12 GLL5        0.0000 
     24 CA          8.6740   -4.8630   11.1680 C.3       8 GLP5        0.0000 
     25 CA         11.3335   -6.4410   15.0820 C.3       4 GLC5        0.0000 
     26 CA          9.7700   -5.8930   16.0820 C.3      12 GLL5        0.0000 
     27 CA         12.8970   -6.9890   14.0820 C.3       8 GLP5        0.0000 
     28 CA          9.2320   -2.7215   17.3225 C.3       4 GLC5        0.0000 
     29 CA          9.4060   -3.4490   15.4670 C.3      12 GLL5        0.0000 
     30 CA          9.0580   -1.9940   19.1780 C.3       8 GLP5        0.0000 
     31 CA         11.5340   -3.7385   15.5575 C.3       4 GLC5        0.0000 
     32 CA         13.6620   -4.0280   15.6480 C.3       8 GLP5        0.0000 
     33 CA         10.2005   -1.9010   14.7235 C.3       4 GLC5        0.0000 
     34 CA         10.9950   -0.3530   13.9800 C.3       8 GLP5        0.0000 
     35 CA         10.3545   -3.5025   13.7880 C.3       4 GLC5        0.0000 
     36 CA         11.3030   -3.5560   12.1090 C.3       8 GLP5        0.0000 
     37 CA          9.6760   -3.8115   18.3535 C.3       4 GLC5        0.0000 
     38 CA         10.2940   -5.6290   17.5290 C.3      12 GLL5        0.0000 
     39 CA         11.7555   -5.9835   18.7780 C.3       4 GLC5        0.0000 
     40 CA         13.2170   -6.3380   20.0270 C.3       8 GLP5        0.0000 
     41 O           5.4020   -3.1570   17.8240 O.2       1 ALC1        0.0000 
     42 O           5.5390   -3.2000   16.3840 O.2       9 ALL1        0.0000 
     43 O           5.2650   -3.1140   19.2640 O.2       5 ALP1        0.0000 
     44 CA          1.0720   -5.4075   17.2870 C.3       4 GLC5        0.0000 
     45 CA          2.8340   -4.3400   16.8310 C.3      12 GLL5        0.0000 
     46 CA         -0.6900   -6.4750   17.7430 C.3       8 GLP5        0.0000 
     47 CA          4.0020   -5.7800   13.9035 C.3       4 GLC5        0.0000 
     48 CA          2.6320   -5.1660   15.5590 C.3      12 GLL5        0.0000 
     49 CA          1.4365   -6.4255   16.6870 C.3       4 GLC5        0.0000 
     50 CA          0.2410   -7.6850   17.8150 C.3       8 GLP5        0.0000 
     51 CA          1.1440   -4.1795   12.9315 C.3       4 GLC5        0.0000 
     52 CA          1.4850   -4.5690   14.7840 C.3      12 GLL5        0.0000 
     53 CA          0.8030   -3.7900   11.0790 C.3       8 GLP5        0.0000 
     54 CA          0.6815   -5.8725   13.5540 C.3       4 GLC5        0.0000 
     55 CA         -0.1220   -7.1760   12.3240 C.3       8 GLP5        0.0000 
     56 CA          0.3975   -5.5220   16.2635 C.3       4 GLC5        0.0000 
     57 CA          0.3860   -3.3070   16.1630 C.3       4 GLC5        0.0000 
     58 CA         -0.7130   -2.0450   17.5420 C.3       8 GLP5        0.0000 
     59 OD1         6.6465   -0.1910   16.0080 O.co2     3 ASC3        0.0000 
     60 OD1         5.8930   -0.7100   14.9870 O.co2    11 ASL3        0.0000 
     61 OD1         7.4000    0.3280   17.0290 O.co2     7 ASP3        0.0000 
     62 CA          9.4400    0.5290    9.1525 C.3       4 GLC5        0.0000 
     63 CA          8.3370    0.8190   10.7020 C.3      12 GLL5        0.0000 
     64 CA         10.5430    0.2390    7.6030 C.3       8 GLP5        0.0000 
     65 CA          9.5850    2.5860   10.3785 C.3       4 GLC5        0.0000 
     66 CA         10.8330    4.3530   10.0550 C.3       8 GLP5        0.0000 
     67 CA          9.6660    0.2330   12.3410 C.3       4 GLC5        0.0000 
     68 CA          8.4655   -1.1300   10.0360 C.3       4 GLC5        0.0000 
     69 CA          8.5940   -3.0790    9.3700 C.3       8 GLP5        0.0000 
     70 O           4.5065    2.5685   13.7690 O.2       1 ALC1        0.0000 
     71 O           4.1540    1.5320   12.8170 O.2       9 ALL1        0.0000 
     72 O           4.8590    3.6050   14.7210 O.2       5 ALP1        0.0000 
     73 CA          2.6710    2.7805   13.3855 C.3       4 GLC5        0.0000 
     74 CA          3.2250    1.6290   11.6960 C.3      12 GLL5        0.0000 
     75 CA          2.1170    3.9320   15.0750 C.3       8 GLP5        0.0000 
     76 N           2.3765    4.8750   12.6600 N.am      2 SEC2        0.0000 
     77 N           3.2770    4.0040   11.7840 N.am     10 SEL2        0.0000 
     78 N           1.4760    5.7460   13.5360 N.am      6 SEP2        0.0000 
     79 CA          1.4305    2.0940   13.8210 C.3       4 GLC5        0.0000 
     80 CA          1.8470    1.2180   12.1450 C.3      12 GLL5        0.0000 
     81 CA          1.0140    2.9700   15.4970 C.3       8 GLP5        0.0000 
     82 CA          0.6410    0.3755   13.5945 C.3       4 GLC5        0.0000 
     83 CA         -0.5650   -0.4670   15.0440 C.3       8 GLP5        0.0000 
     84 CA         -1.2725    0.8455   11.6040 C.3       4 GLC5        0.0000 
     85 CA          0.7540    1.3460   11.0880 C.3      12 GLL5        0.0000 
     86 CA         -3.2990    0.3450   12.1200 C.3       8 GLP5        0.0000 
     87 CA         -0.6610    0.4950    9.8750 C.3       4 GLC5        0.0000 
     88 CA         -2.0760   -0.3560    8.6620 C.3       8 GLP5        0.0000 
     89 N          -0.5225    4.5750   12.5775 N.am      2 SEC2        0.0000 
     90 N           0.1790    3.4650   12.0050 N.am     10 SEL2        0.0000 
     91 N          -1.2240    5.6850   13.1500 N.am      6 SEP2        0.0000 
     92 O          -1.1265    4.3095    9.7785 O.2       1 ALC1        0.0000 
     93 O          -0.4560    3.0800    9.9160 O.2       9 ALL1        0.0000 
     94 O          -1.7970    5.5390    9.6410 O.2       5 ALP1        0.0000 
     95 O           3.2590    1.7440    9.1440 O.2       1 ALC1        0.0000 
     96 O           3.1710    3.0770    9.7540 O.2       9 ALL1        0.0000 
     97 O           3.3470    0.4110    8.5340 O.2       5 ALP1        0.0000 
     98 N           1.8870    1.9545    6.7815 N.am      2 SEC2        0.0000 
     99 N           1.7940    3.3120    7.4280 N.am     10 SEL2        0.0000 
    100 N           1.9800    0.5970    6.1350 N.am      6 SEP2        0.0000 
    101 O           1.9380    6.5005    9.0190 O.2       1 ALC1        0.0000 
    102 O           1.2930    5.4560    7.9300 O.2       9 ALL1        0.0000 
    103 O           2.5830    7.5450   10.1080 O.2       5 ALP1        0.0000 
    104 CA         11.8470   -4.8945   16.2267 C.3       4 GLC5        0.0000 
    105 CA          2.2165   -3.5293   18.6288 C.3       4 GLC5        0.0000 
    106 CA          3.1120   -2.8690   16.5020 C.3      12 GLL5        0.0000 
    107 CA          1.4600   -3.4540   20.5910 C.3       8 GLP5        0.0000 
    108 CA          1.1300   -2.8247   17.1043 C.3       4 GLC5        0.0000 
    109 CA          7.9625    3.0158   14.0905 C.3       4 GLC5        0.0000 
    110 CA          7.3200    0.7730   13.6410 C.3      12 GLL5        0.0000 
    111 CA          8.5480    4.6470   14.9980 C.3       8 GLP5        0.0000 
    112 CA          9.1860    0.5158   13.5815 C.3       4 GLC5        0.0000 
    113 CA          7.4340    1.9960   12.7250 C.3      12 GLL5        0.0000 
    114 CA          6.5077   -0.1775   10.0030 C.3       4 GLC5        0.0000 
    115 CA          5.2310   -1.6210    9.0360 C.3       8 GLP5        0.0000 
    116 CA          0.8122   -0.5365   11.4452 C.3       4 GLC5        0.0000 
    117 CA          0.3240   -2.3550   11.2740 C.3       8 GLP5        0.0000 
@<TRIPOS>BOND
@<TRIPOS>SUBSTRUCTURE
     1 ALC1        8 GROUP        1 X    ALC  0     ROOT ALC X 1
     2 SEC2       11 GROUP        1 X    SEC  0     **** SEC X 2
     3 ASC3       59 GROUP        1 X    ASC  0     **** ASC X 3
     4 GLC5        1 GROUP        1 X    GLC  0     **** GLC X 6
     5 ALP1       10 GROUP        1 Y    ALP  0     ROOT ALP Y 8
     6 SEP2       13 GROUP        1 Y    SEP  0     **** SEP Y 9
     7 ASP3       61 GROUP        1 Y    ASP  0     **** ASP Y 10
     8 GLP5        3 GROUP        1 Y    GLP  0     **** GLP Y 13
     9 ALL1        9 GROUP        1 Z    ALL  0     ROOT ALL Z 15
    10 SEL2       12 GROUP        1 Z    SEL  0     **** SEL Z 16
    11 ASL3       60 GROUP        1 Z    ASL  0     **** ASL Z 17
    12 GLL5        2 GROUP        1 Z    GLL  0     **** GLL Z 20
@<TRIPOS>SET

