#    Name: 3nwq_2NC_1_ligand
#    Modification time : Tue Mar 25 02:50:22 2014

@<TRIPOS>MOLECULE
3nwq_2NC_1_ligand
  121   120     1     0     0
SMALL
NO_CHARGES


@<TRIPOS>ATOM
      1 C           4.4590   -8.9500   16.5060 C.2       1 2NC100      0.0000 
      2 O           3.6070   -8.6070   17.3400 O.2       1 2NC100      0.0000 
      3 CH3         4.1580   -9.4970   15.1400 C.3       1 2NC100      0.0000 
      4 N           5.7230   -8.6180   16.7160 N.am      1 2NC100      0.0000 
      5 CA          6.1510   -8.0390   17.9970 C.3       1 2NC100      0.0000 
      6 C1          6.7390   -6.6100   17.8540 C.2       1 2NC100      0.0000 
      7 O1          7.0640   -5.9690   18.8630 O.2       1 2NC100      0.0000 
      8 CB          7.2240   -8.9040   18.6480 C.3       1 2NC100      0.0000 
      9 OG1         8.3420   -9.0340   17.7740 O.3       1 2NC100      0.0000 
     10 CG2         6.6910  -10.3490   19.0190 C.3       1 2NC100      0.0000 
     11 N1          6.8620   -6.1050   16.6190 N.am      1 2NC100      0.0000 
     12 CA1         7.4450   -4.7980   16.3820 C.3       1 2NC100      0.0000 
     13 C2          6.4460   -3.8640   15.7000 C.2       1 2NC100      0.0000 
     14 O2          6.3700   -3.8160   14.4870 O.2       1 2NC100      0.0000 
     15 CB1         8.7560   -4.8650   15.5450 C.3       1 2NC100      0.0000 
     16 CG1         9.7700   -5.8930   16.0820 C.3       1 2NC100      0.0000 
     17 CG21        9.4060   -3.4490   15.4670 C.3       1 2NC100      0.0000 
     18 CD1        10.2940   -5.6290   17.5290 C.3       1 2NC100      0.0000 
     19 N2          5.5390   -3.2000   16.3840 N.am      1 2NC100      0.0000 
     20 CA2         4.3810   -2.5680   15.7110 C.3       1 2NC100      0.0000 
     21 C3          4.6010   -1.0720   15.5680 C.3       1 2NC100      0.0000 
     22 CB2         3.1120   -2.8690   16.5020 C.3       1 2NC100      0.0000 
     23 CG          2.8340   -4.3400   16.8310 C.3       1 2NC100      0.0000 
     24 CD          2.6320   -5.1660   15.5590 C.3       1 2NC100      0.0000 
     25 CE          1.4850   -4.5690   14.7840 C.3       1 2NC100      0.0000 
     26 N3          5.8930   -0.7100   14.9870 N.4       1 2NC100      0.0000 
     27 CA3         5.9150    0.5390   14.1980 C.3       1 2NC100      0.0000 
     28 C4          4.7880    0.4360   13.1390 C.2       1 2NC100      0.0000 
     29 O3          4.7020   -0.6150   12.4850 O.2       1 2NC100      0.0000 
     30 CB3         7.3200    0.7730   13.6410 C.3       1 2NC100      0.0000 
     31 CG3         7.4340    1.9960   12.7250 C.3       1 2NC100      0.0000 
     32 CD2         7.2320    1.7130   11.2380 C.3       1 2NC100      0.0000 
     33 CE1         8.3370    0.8190   10.7020 C.3       1 2NC100      0.0000 
     34 N4          4.1540    1.5320   12.8170 N.am      1 2NC100      0.0000 
     35 CA4         3.2250    1.6290   11.6960 C.3       1 2NC100      0.0000 
     36 C5          3.2300    3.0080   11.0810 C.2       1 2NC100      0.0000 
     37 O4          3.2770    4.0040   11.7840 O.2       1 2NC100      0.0000 
     38 CB4         1.8470    1.2180   12.1450 C.3       1 2NC100      0.0000 
     39 CG4         0.7540    1.3460   11.0880 C.3       1 2NC100      0.0000 
     40 CD3         0.1600    2.7360   11.0250 C.2       1 2NC100      0.0000 
     41 OE1         0.1790    3.4650   12.0050 O.2       1 2NC100      0.0000 
     42 NE2        -0.4560    3.0800    9.9160 N.am      1 2NC100      0.0000 
     43 N5          3.1710    3.0770    9.7540 N.am      1 2NC100      0.0000 
     44 CA5         3.1720    4.3160    9.0140 C.3       1 2NC100      0.0000 
     45 C6          1.9720    4.3060    8.1260 C.2       1 2NC100      0.0000 
     46 O5          1.7940    3.3120    7.4280 O.2       1 2NC100      0.0000 
     47 CB5         4.3970    4.2680    8.1100 C.3       1 2NC100      0.0000 
     48 CG5         5.6370    4.1710    8.8810 C.3       1 2NC100      0.0000 
     49 CD4         5.5760    5.4240    9.6430 C.3       1 2NC100      0.0000 
     50 NE          6.3930    5.4110   10.8400 N.pl3     1 2NC100      0.0000 
     51 CZ          7.6170    5.9060   10.8670 C.cat     1 2NC100      0.0000 
     52 NH1         8.1580    6.4290    9.7590 N.pl3     1 2NC100      0.0000 
     53 NH2         8.2670    5.9060   11.9690 N.pl3     1 2NC100      0.0000 
     54 N6          1.2930    5.4560    7.9300 N.am      1 2NC100      0.0000 
     55 H           6.4685   -8.7429   16.0083 H         1 2NC100      0.0000 
     56 H           5.3184   -7.9765   18.6904 H         1 2NC100      0.0000 
     57 H           7.5219   -8.4372   19.5845 H         1 2NC100      0.0000 
     58 H           6.5452   -6.6273   15.7765 H         1 2NC100      0.0000 
     59 H           7.7147   -4.3271   17.3424 H         1 2NC100      0.0000 
     60 H           8.4859   -5.1467   14.5246 H         1 2NC100      0.0000 
     61 H          10.6397   -5.9286   15.4021 H         1 2NC100      0.0000 
     62 H           9.3096   -6.8967   16.0604 H         1 2NC100      0.0000 
     63 H           5.5711   -3.0766   17.4129 H         1 2NC100      0.0000 
     64 H           4.2680   -2.9966   14.7190 H         1 2NC100      0.0000 
     65 H           4.4875   -0.6099   16.5726 H         1 2NC100      0.0000 
     66 H           3.7726   -0.6597   14.9520 H         1 2NC100      0.0000 
     67 H           2.2374   -2.4622   15.9425 H         1 2NC100      0.0000 
     68 H           3.1416   -2.2943   17.4572 H         1 2NC100      0.0000 
     69 H           1.9374   -4.4049   17.4476 H         1 2NC100      0.0000 
     70 H           3.6755   -4.7456   17.3928 H         1 2NC100      0.0000 
     71 H           2.4030   -6.1858   15.8320 H         1 2NC100      0.0000 
     72 H           3.5355   -5.1319   14.9678 H         1 2NC100      0.0000 
     73 H           5.6609    1.3661   14.8666 H         1 2NC100      0.0000 
     74 H           7.6363   -0.1219   13.0805 H         1 2NC100      0.0000 
     75 H           8.0230    0.8915   14.4817 H         1 2NC100      0.0000 
     76 H           8.4308    2.4554   12.8698 H         1 2NC100      0.0000 
     77 H           6.6931    2.7519   13.0494 H         1 2NC100      0.0000 
     78 H           7.2310    2.6562   10.6917 H         1 2NC100      0.0000 
     79 H           6.2682    1.2243   11.0950 H         1 2NC100      0.0000 
     80 H           4.2785    2.4322   13.3601 H         1 2NC100      0.0000 
     81 H           3.5404    0.9134   10.9154 H         1 2NC100      0.0000 
     82 H           1.5545    1.8238   13.0285 H         1 2NC100      0.0000 
     83 H           1.8756    0.1647   12.4954 H         1 2NC100      0.0000 
     84 H          -0.0406    0.6196   11.3088 H         1 2NC100      0.0000 
     85 H           1.1758    1.0850   10.1073 H         1 2NC100      0.0000 
     86 H          -0.8839    3.9838    9.9125 H         1 2NC100      0.0000 
     87 H          -0.4406    2.4065    9.1770 H         1 2NC100      0.0000 
     88 H           3.1192    2.1997    9.1659 H         1 2NC100      0.0000 
     89 H           3.1993    5.1521    9.6143 H         1 2NC100      0.0000 
     90 H           4.3992    5.1738    7.4847 H         1 2NC100      0.0000 
     91 H           4.2925    3.4057    7.4339 H         1 2NC100      0.0000 
     92 H           6.4815    4.1668    8.2367 H         1 2NC100      0.0000 
     93 H           5.6090    3.3346    9.5352 H         1 2NC100      0.0000 
     94 H           4.5146    5.6365    9.9116 H         1 2NC100      0.0000 
     95 H           5.8853    6.2680    8.9829 H         1 2NC100      0.0000 
     96 H           5.9473    4.9814   11.6864 H         1 2NC100      0.0000 
     97 H           7.6005    6.3771    8.9304 H         1 2NC100      0.0000 
     98 H           9.0709    6.8245    9.8596 H         1 2NC100      0.0000 
     99 H           9.1939    6.2797   11.9332 H         1 2NC100      0.0000 
    100 H           7.7872    5.5323   12.7628 H         1 2NC100      0.0000 
    101 H           0.4843    5.3953    7.3449 H         1 2NC100      0.0000 
    102 H           1.6590    6.2665    8.3873 H         1 2NC100      0.0000 
    103 H           4.9932   -9.7094   14.6327 H         1 2NC100      0.0000 
    104 H           3.6215  -10.3396   15.1873 H         1 2NC100      0.0000 
    105 H           3.6360   -8.8478   14.5867 H         1 2NC100      0.0000 
    106 H           7.4016  -10.9088   19.4453 H         1 2NC100      0.0000 
    107 H           5.9251  -10.3089   19.6607 H         1 2NC100      0.0000 
    108 H           6.3715  -10.8455   18.2119 H         1 2NC100      0.0000 
    109 H           9.6366   -3.0958   16.3737 H         1 2NC100      0.0000 
    110 H          10.2508   -3.4571   14.9320 H         1 2NC100      0.0000 
    111 H           8.7948   -2.7828   15.0396 H         1 2NC100      0.0000 
    112 H          10.9480   -6.3272   17.8203 H         1 2NC100      0.0000 
    113 H          10.7570   -4.7456   17.6009 H         1 2NC100      0.0000 
    114 H           9.5510   -5.6259   18.1983 H         1 2NC100      0.0000 
    115 H           1.6629   -3.6181   14.5307 H         1 2NC100      0.0000 
    116 H           1.3086   -5.0700   13.9367 H         1 2NC100      0.0000 
    117 H           0.6357   -4.5777   15.3118 H         1 2NC100      0.0000 
    118 H           9.2388    1.2370   10.8114 H         1 2NC100      0.0000 
    119 H           8.3633   -0.0624   11.1737 H         1 2NC100      0.0000 
    120 H           8.2194    0.6267    9.7278 H         1 2NC100      0.0000 
    121 H           9.0896   -9.3538   18.3561 H         1 2NC100      0.0000 
@<TRIPOS>BOND
     1    2    1 2    
     2    3    1 1    
     3    4    1 am   
     4  103    3 1    
     5  104    3 1    
     6  105    3 1    
     7    5    4 1    
     8   55    4 1    
     9    6    5 1    
    10    8    5 1    
    11   56    5 1    
    12    7    6 2    
    13   11    6 am   
    14    9    8 1    
    15   10    8 1    
    16   57    8 1    
    17  121    9 1    
    18  106   10 1    
    19  107   10 1    
    20  108   10 1    
    21   12   11 1    
    22   58   11 1    
    23   13   12 1    
    24   15   12 1    
    25   59   12 1    
    26   14   13 2    
    27   19   13 am   
    28   16   15 1    
    29   17   15 1    
    30   60   15 1    
    31   18   16 1    
    32   61   16 1    
    33   62   16 1    
    34  109   17 1    
    35  110   17 1    
    36  111   17 1    
    37  112   18 1    
    38  113   18 1    
    39  114   18 1    
    40   20   19 1    
    41   63   19 1    
    42   21   20 1    
    43   22   20 1    
    44   64   20 1    
    45   26   21 1    
    46   65   21 1    
    47   66   21 1    
    48   23   22 1    
    49   67   22 1    
    50   68   22 1    
    51   24   23 1    
    52   69   23 1    
    53   70   23 1    
    54   25   24 1    
    55   71   24 1    
    56   72   24 1    
    57  115   25 1    
    58  116   25 1    
    59  117   25 1    
    60   27   26 1    
    61   28   27 1    
    62   30   27 1    
    63   73   27 1    
    64   29   28 2    
    65   34   28 am   
    66   31   30 1    
    67   74   30 1    
    68   75   30 1    
    69   32   31 1    
    70   76   31 1    
    71   77   31 1    
    72   33   32 1    
    73   78   32 1    
    74   79   32 1    
    75  118   33 1    
    76  119   33 1    
    77  120   33 1    
    78   35   34 1    
    79   80   34 1    
    80   36   35 1    
    81   38   35 1    
    82   81   35 1    
    83   37   36 2    
    84   43   36 am   
    85   39   38 1    
    86   82   38 1    
    87   83   38 1    
    88   40   39 1    
    89   84   39 1    
    90   85   39 1    
    91   41   40 2    
    92   42   40 am   
    93   86   42 1    
    94   87   42 1    
    95   44   43 1    
    96   88   43 1    
    97   45   44 1    
    98   47   44 1    
    99   89   44 1    
   100   46   45 2    
   101   54   45 am   
   102   48   47 1    
   103   90   47 1    
   104   91   47 1    
   105   49   48 1    
   106   92   48 1    
   107   93   48 1    
   108   50   49 1    
   109   94   49 1    
   110   95   49 1    
   111   51   50 ar   
   112   96   50 1    
   113   52   51 ar   
   114   53   51 ar   
   115   97   52 1    
   116   98   52 1    
   117   99   53 1    
   118  100   53 1    
   119  101   54 1    
   120  102   54 1    
@<TRIPOS>SUBSTRUCTURE
     1 2NC100      1 GROUP   
@<TRIPOS>SET

