#    Name: 1d4j_MSC_1_INTS_M
#    Modification time : Mon Mar 24 21:29:59 2014

@<TRIPOS>MOLECULE
1d4j_MSC_1_INTS_M
  106     0     9     0     0
SMALL
NO_CHARGES


@<TRIPOS>ATOM
      1 O          14.3905   23.8735    2.7070 O.2       1 ALC1        0.0000 
      2 O          14.3350   22.9260    3.6740 O.2       7 ALL1        0.0000 
      3 O          14.4460   24.8210    1.7400 O.2       4 ALP1        0.0000 
      4 CA         13.4685   23.0415    9.2920 C.3       3 GLC5        0.0000 
      5 CA         15.2630   23.5020    8.3230 C.3       9 GLL5        0.0000 
      6 CA         11.6740   22.5810   10.2610 C.3       6 GLP5        0.0000 
      7 CA         13.6595   21.9130    9.8880 C.3       3 GLC5        0.0000 
      8 CA         15.6450   21.2450    9.5150 C.3       9 GLL5        0.0000 
      9 CA         16.0835   19.6440   11.9185 C.3       3 GLC5        0.0000 
     10 CA         16.5100   20.1500    9.8810 C.3       9 GLL5        0.0000 
     11 CA         15.6570   19.1380   13.9560 C.3       6 GLP5        0.0000 
     12 O          17.2995   21.9815    5.3910 O.2       1 ALC1        0.0000 
     13 O          16.2780   20.8780    5.5500 O.2       7 ALL1        0.0000 
     14 O          18.3210   23.0850    5.2320 O.2       4 ALP1        0.0000 
     15 CA         13.6110   19.2245    3.2760 C.3       3 GLC5        0.0000 
     16 CA         15.6850   19.4260    2.8670 C.3       9 GLL5        0.0000 
     17 CA         11.5370   19.0230    3.6850 C.3       6 GLP5        0.0000 
     18 CA         17.3025   15.5290    2.4835 C.3       3 GLC5        0.0000 
     19 CA         17.7340   17.4190    2.4050 C.3       9 GLL5        0.0000 
     20 CA         16.8710   13.6390    2.5620 C.3       6 GLP5        0.0000 
     21 CA         16.7285   16.0565    3.6655 C.3       3 GLC5        0.0000 
     22 CA         17.5660   18.0170    3.7000 C.3       9 GLL5        0.0000 
     23 CA         15.8910   14.0960    3.6310 C.3       6 GLP5        0.0000 
     24 CA         20.1035   18.3845    4.1060 C.3       3 GLC5        0.0000 
     25 CA         18.3520   17.7670    4.9470 C.3       9 GLL5        0.0000 
     26 CA         21.8550   19.0020    3.2650 C.3       6 GLP5        0.0000 
     27 N          19.5415   20.4080    4.0830 N.am      2 SEC2        0.0000 
     28 N          18.9240   20.0960    5.4380 N.am      8 SEL2        0.0000 
     29 N          20.1590   20.7200    2.7280 N.am      5 SEP2        0.0000 
     30 O          18.6225   21.5905    5.3350 O.2       1 ALC1        0.0000 
     31 O          18.9240   20.0960    5.4380 O.2       7 ALL1        0.0000 
     32 N          14.9385   25.9925    5.6535 N.am      2 SEC2        0.0000 
     33 N          14.3440   25.4340    4.5040 N.am      8 SEL2        0.0000 
     34 N          15.5330   26.5510    6.8030 N.am      5 SEP2        0.0000 
     35 O          14.3950   25.1275    3.1220 O.2       1 ALC1        0.0000 
     36 O          14.3440   25.4340    4.5040 O.2       7 ALL1        0.0000 
     37 CA         12.7755   26.6075    3.4015 C.3       3 GLC5        0.0000 
     38 CA         11.9720   24.8490    4.3690 C.3       9 GLL5        0.0000 
     39 CA         13.5790   28.3660    2.4340 C.3       6 GLP5        0.0000 
     40 CA          8.3740   23.5080    6.4300 C.3       3 GLC5        0.0000 
     41 CA          8.8250   25.4870    6.5160 C.3       9 GLL5        0.0000 
     42 CA          7.9230   21.5290    6.3440 C.3       6 GLP5        0.0000 
     43 CA          6.1435   26.6330    8.8875 C.3       3 GLC5        0.0000 
     44 CA          7.1440   27.2950    7.0090 C.3       9 GLL5        0.0000 
     45 CA          5.1430   25.9710   10.7660 C.3       6 GLP5        0.0000 
     46 CA          7.9945   30.7760    9.4555 C.3       3 GLC5        0.0000 
     47 CA          7.6410   29.0110    8.7650 C.3       9 GLL5        0.0000 
     48 CA          8.3480   32.5410   10.1460 C.3       6 GLP5        0.0000 
     49 CA          7.1990   29.5720   10.8185 C.3       3 GLC5        0.0000 
     50 CA          6.7570   30.1330   12.8720 C.3       6 GLP5        0.0000 
     51 CA          9.2770   30.4990    9.1965 C.3       3 GLC5        0.0000 
     52 CA          8.8990   28.3760    9.0380 C.3       9 GLL5        0.0000 
     53 CA          9.6550   32.6220    9.3550 C.3       6 GLP5        0.0000 
     54 CA          8.0790   27.1955   10.6175 C.3       3 GLC5        0.0000 
     55 CA          7.2590   26.0150   12.1970 C.3       6 GLP5        0.0000 
     56 CA         14.9533   24.2480    9.6985 C.3       3 GLC5        0.0000 
     57 CA         14.1800   25.5480   10.8300 C.3       6 GLP5        0.0000 
     58 CA         16.7883   22.4342   10.6390 C.3       3 GLC5        0.0000 
     59 CA         16.1900   22.3940    8.8110 C.3       9 GLL5        0.0000 
     60 CA         17.6590   23.0490   12.1150 C.3       6 GLP5        0.0000 
     61 CA         14.5698   19.4528    8.8970 C.3       3 GLC5        0.0000 
     62 CA         13.0620   18.2080    8.0960 C.3       6 GLP5        0.0000 
     63 CA         17.4350   21.6125   10.9165 C.3       3 GLC5        0.0000 
     64 CA         18.8650   23.5807    8.4995 C.3       3 GLC5        0.0000 
     65 CA         18.4580   21.3460    8.8680 C.3       9 GLL5        0.0000 
     66 CA         19.7000   25.2690    8.3160 C.3       6 GLP5        0.0000 
     67 CA         17.8445   22.4707   10.3990 C.3       3 GLC5        0.0000 
     68 CA         17.6020   22.4390    8.4980 C.3       9 GLL5        0.0000 
     69 CA         14.9392   18.2480    0.0603 C.3       3 GLC5        0.0000 
     70 CA         15.8420   18.8290    1.5600 C.3       9 GLL5        0.0000 
     71 CA         13.5270   18.1650   -1.3290 C.3       6 GLP5        0.0000 
     72 CA         15.3232   16.6765    1.6568 C.3       3 GLC5        0.0000 
     73 CA         14.2950   15.0220    1.8640 C.3       6 GLP5        0.0000 
     74 CA         16.8321   20.3536    1.5881 C.3       3 GLC5        0.0000 
     75 CA         16.8610   17.8330    1.3390 C.3       9 GLL5        0.0000 
     76 CA         17.3520   22.2270    1.4000 C.3       6 GLP5        0.0000 
     77 CA         18.6188   17.2800    0.6340 C.3       3 GLC5        0.0000 
     78 CA         19.9400   16.9340   -0.6040 C.3       6 GLP5        0.0000 
     79 CA         19.7525   18.3600    3.1587 C.3       3 GLC5        0.0000 
     80 CA         17.6931   20.4627    3.3770 C.3       3 GLC5        0.0000 
     81 CA         18.3170   22.2970    2.5730 C.3       6 GLP5        0.0000 
     82 CA         10.4876   26.1127    0.8561 C.3       3 GLC5        0.0000 
     83 CA         11.0930   24.5490    2.1420 C.3       9 GLL5        0.0000 
     84 CA         11.4240   27.1660   -0.3960 C.3       6 GLP5        0.0000 
     85 CA          8.3795   24.5753    0.4950 C.3       3 GLC5        0.0000 
     86 CA          8.7630   25.6170    2.0110 C.3       9 GLL5        0.0000 
     87 CA          8.7060   23.5670   -1.1280 C.3       6 GLP5        0.0000 
     88 CA          7.9268   23.6567    0.8405 C.3       3 GLC5        0.0000 
     89 CA          7.5520   23.1650    2.9330 C.3       9 GLL5        0.0000 
     90 CA          8.0920   22.3607    4.5868 C.3       3 GLC5        0.0000 
     91 CA          6.8419   22.1166    1.9298 C.3       3 GLC5        0.0000 
     92 CA          8.9700   23.2200    2.7260 C.3       9 GLL5        0.0000 
     93 CA          5.6250   20.7500    1.0920 C.3       6 GLP5        0.0000 
     94 CA          9.1804   23.7140    0.6689 C.3       3 GLC5        0.0000 
     95 CA         10.9869   22.7320    1.3579 C.3       3 GLC5        0.0000 
     96 CA          9.5860   24.4550    2.2690 C.3       9 GLL5        0.0000 
     97 CA         12.3190   21.6030    0.2500 C.3       6 GLP5        0.0000 
     98 CA          8.6412   24.5015    8.2553 C.3       3 GLC5        0.0000 
     99 CA          8.6650   22.9340    9.6130 C.3       6 GLP5        0.0000 
    100 CA          7.4900   30.2975    6.8498 C.3       3 GLC5        0.0000 
    101 CA          6.7630   28.4770    7.7560 C.3       9 GLL5        0.0000 
    102 CA          7.7780   31.8510    5.4390 C.3       6 GLP5        0.0000 
    103 CA          5.9705   28.0610    9.7267 C.3       3 GLC5        0.0000 
    104 CA          4.7390   27.3780   11.1930 C.3       6 GLP5        0.0000 
    105 CA         10.8752   28.4162    7.8705 C.3       3 GLC5        0.0000 
    106 CA         12.6600   29.0480    7.0760 C.3       6 GLP5        0.0000 
@<TRIPOS>BOND
@<TRIPOS>SUBSTRUCTURE
     1 ALC1        1 GROUP        1 X    ALC  0     ROOT ALC X 1
     2 SEC2       27 GROUP        1 X    SEC  0     **** SEC X 2
     3 GLC5        4 GROUP        1 X    GLC  0     **** GLC X 6
     4 ALP1        3 GROUP        1 Y    ALP  0     ROOT ALP Y 8
     5 SEP2       29 GROUP        1 Y    SEP  0     **** SEP Y 9
     6 GLP5        6 GROUP        1 Y    GLP  0     **** GLP Y 13
     7 ALL1        2 GROUP        1 Z    ALL  0     ROOT ALL Z 15
     8 SEL2       28 GROUP        1 Z    SEL  0     **** SEL Z 16
     9 GLL5        5 GROUP        1 Z    GLL  0     **** GLL Z 20
@<TRIPOS>SET

