#    Name: 1d4j_MSC_1_ligand
#    Modification time : Mon Mar 24 21:29:59 2014

@<TRIPOS>MOLECULE
1d4j_MSC_1_ligand
   83    87     1     0     0
SMALL
NO_CHARGES


@<TRIPOS>ATOM
      1 C01        13.7860   23.1580    4.9980 C.3       1 MSC501      0.0000 
      2 O02        14.3350   22.9260    3.6740 O.3       1 MSC501      0.0000 
      3 C03        14.7900   22.7960    6.0680 C.3       1 MSC501      0.0000 
      4 O04        14.2510   23.0570    7.3900 O.3       1 MSC501      0.0000 
      5 C05        15.2630   23.5020    8.3230 C.3       1 MSC501      0.0000 
      6 C06        16.1900   22.3940    8.8110 C.ar      1 MSC501      0.0000 
      7 C07        15.6450   21.2450    9.5150 C.ar      1 MSC501      0.0000 
      8 C08        16.5100   20.1500    9.8810 C.ar      1 MSC501      0.0000 
      9 C09        17.9120   20.2020    9.5550 C.ar      1 MSC501      0.0000 
     10 C10        18.4580   21.3460    8.8680 C.ar      1 MSC501      0.0000 
     11 C11        17.6020   22.4390    8.4980 C.ar      1 MSC501      0.0000 
     12 C12        15.0120   21.3170    5.9040 C.2       1 MSC501      0.0000 
     13 O13        14.0880   20.5230    6.1020 O.2       1 MSC501      0.0000 
     14 N14        16.2780   20.8780    5.5500 N.am      1 MSC501      0.0000 
     15 C15        16.5960   19.4710    5.3810 C.3       1 MSC501      0.0000 
     16 C16        16.5490   19.0090    3.9430 C.ar      1 MSC501      0.0000 
     17 C17        15.6850   19.4260    2.8670 C.ar      1 MSC501      0.0000 
     18 C18        15.8420   18.8290    1.5600 C.ar      1 MSC501      0.0000 
     19 C19        16.8610   17.8330    1.3390 C.ar      1 MSC501      0.0000 
     20 C20        17.7340   17.4190    2.4050 C.ar      1 MSC501      0.0000 
     21 C21        17.5660   18.0170    3.7000 C.ar      1 MSC501      0.0000 
     22 C22        18.3520   17.7670    4.9470 C.3       1 MSC501      0.0000 
     23 C23        18.0250   19.0360    5.7700 C.3       1 MSC501      0.0000 
     24 O24        18.9240   20.0960    5.4380 O.3       1 MSC501      0.0000 
     25 C31        13.3030   24.5970    5.0800 C.3       1 MSC501      0.0000 
     26 O32        14.3440   25.4340    4.5040 O.3       1 MSC501      0.0000 
     27 C33        11.9720   24.8490    4.3690 C.3       1 MSC501      0.0000 
     28 O34        11.8030   23.9510    3.2470 O.3       1 MSC501      0.0000 
     29 C35        11.0930   24.5490    2.1420 C.3       1 MSC501      0.0000 
     30 C36         9.5860   24.4550    2.2690 C.ar      1 MSC501      0.0000 
     31 C37         8.7630   25.6170    2.0110 C.ar      1 MSC501      0.0000 
     32 C38         7.3430   25.5500    2.2250 C.ar      1 MSC501      0.0000 
     33 C39         6.7430   24.3280    2.6850 C.ar      1 MSC501      0.0000 
     34 C40         7.5520   23.1650    2.9330 C.ar      1 MSC501      0.0000 
     35 C41         8.9700   23.2200    2.7260 C.ar      1 MSC501      0.0000 
     36 C42        10.8600   24.6210    5.3830 C.2       1 MSC501      0.0000 
     37 O43        10.7510   23.5470    5.9790 O.2       1 MSC501      0.0000 
     38 N44         9.9250   25.6200    5.5690 N.am      1 MSC501      0.0000 
     39 C45         8.8250   25.4870    6.5160 C.3       1 MSC501      0.0000 
     40 C46         8.4100   26.6510    7.2790 C.ar      1 MSC501      0.0000 
     41 C47         7.1440   27.2950    7.0090 C.ar      1 MSC501      0.0000 
     42 C48         6.7630   28.4770    7.7560 C.ar      1 MSC501      0.0000 
     43 C49         7.6410   29.0110    8.7650 C.ar      1 MSC501      0.0000 
     44 C50         8.8990   28.3760    9.0380 C.ar      1 MSC501      0.0000 
     45 C51         9.2820   27.1930    8.2920 C.ar      1 MSC501      0.0000 
     46 F           6.3390   26.8210    6.0630 F         1 MSC501      0.0000 
     47 H          12.9023   22.5108    5.1279 H         1 MSC501      0.0000 
     48 H          15.6953   23.3061    5.8871 H         1 MSC501      0.0000 
     49 H          14.7956   23.9692    9.2180 H         1 MSC501      0.0000 
     50 H          15.8963   24.2957    7.8683 H         1 MSC501      0.0000 
     51 H          14.6638   21.2179    9.7449 H         1 MSC501      0.0000 
     52 H          16.1317   19.3477   10.3656 H         1 MSC501      0.0000 
     53 H          18.5186   19.4305    9.8096 H         1 MSC501      0.0000 
     54 H          19.4455   21.3770    8.6472 H         1 MSC501      0.0000 
     55 H          17.9831   23.2441    8.0173 H         1 MSC501      0.0000 
     56 H          17.0455   21.5574    5.3938 H         1 MSC501      0.0000 
     57 H          15.9212   18.8176    5.9337 H         1 MSC501      0.0000 
     58 H          14.9791   20.1256    3.0225 H         1 MSC501      0.0000 
     59 H          15.2363   19.1109    0.8014 H         1 MSC501      0.0000 
     60 H          16.9631   17.4175    0.4147 H         1 MSC501      0.0000 
     61 H          18.4429   16.7290    2.2464 H         1 MSC501      0.0000 
     62 H          19.3849   17.7473    4.7459 H         1 MSC501      0.0000 
     63 H          17.9884   16.9236    5.4611 H         1 MSC501      0.0000 
     64 H          18.0306   18.7885    6.7970 H         1 MSC501      0.0000 
     65 H          13.1857   24.8531    6.1329 H         1 MSC501      0.0000 
     66 H          11.9420   25.8762    4.0630 H         1 MSC501      0.0000 
     67 H          11.3850   24.0712    1.1818 H         1 MSC501      0.0000 
     68 H          11.3603   25.6228    2.0373 H         1 MSC501      0.0000 
     69 H           9.1893   26.4712    1.6814 H         1 MSC501      0.0000 
     70 H           6.7660   26.3638    2.0516 H         1 MSC501      0.0000 
     71 H           5.7389   24.2846    2.8365 H         1 MSC501      0.0000 
     72 H           7.1182   22.3075    3.2540 H         1 MSC501      0.0000 
     73 H           9.5459   22.4088    2.8946 H         1 MSC501      0.0000 
     74 H           9.9789   26.5043    5.0340 H         1 MSC501      0.0000 
     75 H           9.0706   24.6417    7.2412 H         1 MSC501      0.0000 
     76 H           7.9192   25.0685    5.9637 H         1 MSC501      0.0000 
     77 H           5.8764   28.9257    7.5651 H         1 MSC501      0.0000 
     78 H           7.3676   29.8388    9.2834 H         1 MSC501      0.0000 
     79 H           9.5176   28.7455    9.7433 H         1 MSC501      0.0000 
     80 H          10.1706   26.7457    8.4866 H         1 MSC501      0.0000 
     81 H          14.2699   23.8087    3.2086 H         1 MSC501      0.0000 
     82 H          18.3667   20.9259    5.4652 H         1 MSC501      0.0000 
     83 H          14.6123   24.9692    3.6602 H         1 MSC501      0.0000 
@<TRIPOS>BOND
     1    2    1 1    
     2    3    1 1    
     3   25    1 1    
     4   47    1 1    
     5   81    2 1    
     6    4    3 1    
     7   12    3 1    
     8   48    3 1    
     9    5    4 1    
    10    6    5 1    
    11   49    5 1    
    12   50    5 1    
    13    7    6 ar   
    14   11    6 ar   
    15    8    7 ar   
    16   51    7 1    
    17    9    8 ar   
    18   52    8 1    
    19   10    9 ar   
    20   53    9 1    
    21   11   10 ar   
    22   54   10 1    
    23   55   11 1    
    24   13   12 2    
    25   14   12 am   
    26   15   14 1    
    27   56   14 1    
    28   16   15 1    
    29   23   15 1    
    30   57   15 1    
    31   17   16 ar   
    32   21   16 ar   
    33   18   17 ar   
    34   58   17 1    
    35   19   18 ar   
    36   59   18 1    
    37   20   19 ar   
    38   60   19 1    
    39   21   20 ar   
    40   61   20 1    
    41   22   21 1    
    42   23   22 1    
    43   62   22 1    
    44   63   22 1    
    45   24   23 1    
    46   64   23 1    
    47   82   24 1    
    48   26   25 1    
    49   27   25 1    
    50   65   25 1    
    51   83   26 1    
    52   28   27 1    
    53   36   27 1    
    54   66   27 1    
    55   29   28 1    
    56   30   29 1    
    57   67   29 1    
    58   68   29 1    
    59   31   30 ar   
    60   35   30 ar   
    61   32   31 ar   
    62   69   31 1    
    63   33   32 ar   
    64   70   32 1    
    65   34   33 ar   
    66   71   33 1    
    67   35   34 ar   
    68   72   34 1    
    69   73   35 1    
    70   37   36 2    
    71   38   36 am   
    72   39   38 1    
    73   74   38 1    
    74   40   39 1    
    75   75   39 1    
    76   76   39 1    
    77   41   40 ar   
    78   45   40 ar   
    79   42   41 ar   
    80   46   41 1    
    81   43   42 ar   
    82   77   42 1    
    83   44   43 ar   
    84   78   43 1    
    85   45   44 ar   
    86   79   44 1    
    87   80   45 1    
@<TRIPOS>SUBSTRUCTURE
     1 MSC501      1 GROUP   
@<TRIPOS>SET

