#    Name: 1ncr_W11_1_INTS_M
#    Modification time : Mon Mar 24 18:01:23 2014

@<TRIPOS>MOLECULE
1ncr_W11_1_INTS_M
   82     0     3     0     0
SMALL
NO_CHARGES


@<TRIPOS>ATOM
      1 CA         37.7985    6.6275  123.4790 C.3       1 GLC5        0.0000 
      2 CA         35.8270    5.8610  123.8150 C.3       3 GLL5        0.0000 
      3 CA         39.7700    7.3940  123.1430 C.3       2 GLP5        0.0000 
      4 CA         34.8890    5.4570  122.2885 C.3       1 GLC5        0.0000 
      5 CA         33.9510    5.0530  120.7620 C.3       2 GLP5        0.0000 
      6 CA         34.7340    7.5315  123.2525 C.3       1 GLC5        0.0000 
      7 CA         33.6410    9.2020  122.6900 C.3       2 GLP5        0.0000 
      8 CA         37.3030    2.4195  123.3925 C.3       1 GLC5        0.0000 
      9 CA         37.6990    4.3930  122.6090 C.3       3 GLL5        0.0000 
     10 CA         36.9070    0.4460  124.1760 C.3       2 GLP5        0.0000 
     11 CA         38.3545    2.3450  124.3345 C.3       1 GLC5        0.0000 
     12 CA         38.8090    3.7190  123.0770 C.3       3 GLL5        0.0000 
     13 CA         37.9000    0.9710  125.5920 C.3       2 GLP5        0.0000 
     14 CA         39.5155    1.1660  121.3435 C.3       1 GLC5        0.0000 
     15 CA         39.8880    2.8820  122.4480 C.3       3 GLL5        0.0000 
     16 CA         39.1430   -0.5500  120.2390 C.3       2 GLP5        0.0000 
     17 CA         39.0030    1.3940  122.7820 C.3       1 GLC5        0.0000 
     18 CA         38.1180   -0.0940  123.1160 C.3       2 GLP5        0.0000 
     19 CA         40.9170    5.2545  123.6740 C.3       1 GLC5        0.0000 
     20 CA         41.2060    3.3830  122.9880 C.3       3 GLL5        0.0000 
     21 CA         40.6280    7.1260  124.3600 C.3       2 GLP5        0.0000 
     22 CA         43.8830    2.8800  120.9725 C.3       1 GLC5        0.0000 
     23 CA         42.3260    2.6220  122.3830 C.3       3 GLL5        0.0000 
     24 CA         45.4400    3.1380  119.5620 C.3       2 GLP5        0.0000 
     25 CA         42.8875    1.2865  120.8710 C.3       1 GLC5        0.0000 
     26 CA         43.4490   -0.0490  119.3590 C.3       2 GLP5        0.0000 
     27 CA         42.8940    0.9615  124.7870 C.3       1 GLC5        0.0000 
     28 CA         43.4360    0.5850  123.0790 C.3       3 GLL5        0.0000 
     29 CA         42.3520    1.3380  126.4950 C.3       2 GLP5        0.0000 
     30 CA         44.2195   -0.4015  124.7505 C.3       1 GLC5        0.0000 
     31 CA         44.8780    0.7040  123.0500 C.3       3 GLL5        0.0000 
     32 CA         43.5610   -1.5070  126.4510 C.3       2 GLP5        0.0000 
     33 CA         45.5475    3.9850  124.0420 C.3       1 GLC5        0.0000 
     34 CA         45.4600    2.0060  123.4210 C.3       3 GLL5        0.0000 
     35 CA         45.6350    5.9640  124.6630 C.3       2 GLP5        0.0000 
     36 CA         43.9060    1.6720  124.9580 C.3       1 GLC5        0.0000 
     37 CA         47.3090    3.0765  123.7060 C.3       1 GLC5        0.0000 
     38 CA         49.1580    4.1470  123.9910 C.3       2 GLP5        0.0000 
     39 CA         41.3160   -2.8745  123.1655 C.3       1 GLC5        0.0000 
     40 CA         41.3700   -1.1100  122.6810 C.3       3 GLL5        0.0000 
     41 CA         41.2620   -4.6390  123.6500 C.3       2 GLP5        0.0000 
     42 CA         39.7440   -0.6020  122.8985 C.3       1 GLC5        0.0000 
     43 CA         50.4665   -1.7230  122.9810 C.3       1 GLC5        0.0000 
     44 CA         49.7380   -3.3050  122.7930 C.3       3 GLL5        0.0000 
     45 CA         51.1950   -0.1410  123.1690 C.3       2 GLP5        0.0000 
     46 CA         50.5430   -6.5300  121.0735 C.3       1 GLC5        0.0000 
     47 CA         50.2360   -4.3170  120.8760 C.3       3 GLL5        0.0000 
     48 CA         50.8500   -8.7430  121.2710 C.3       2 GLP5        0.0000 
     49 CA         50.0030   -2.7460  120.0745 C.3       1 GLC5        0.0000 
     50 CA         49.7700   -1.1750  119.2730 C.3       2 GLP5        0.0000 
     51 CA         49.4225   -6.4995  123.7680 C.3       1 GLC5        0.0000 
     52 CA         49.2810   -5.5180  122.4630 C.3       3 GLL5        0.0000 
     53 CA         49.5640   -7.4810  125.0730 C.3       2 GLP5        0.0000 
     54 CA         47.3360   -5.6860  122.9150 C.3       1 GLC5        0.0000 
     55 CA         45.3910   -5.8540  123.3670 C.3       2 GLP5        0.0000 
     56 CA         50.0655   -7.1305  121.8670 C.3       1 GLC5        0.0000 
     57 CA         39.0120    5.7250  122.9930 C.3       1 GLC5        0.0000 
     58 CA         42.0590    2.1703  124.5902 C.3       1 GLC5        0.0000 
     59 CA         42.5300    4.5987  121.4733 C.3       1 GLC5        0.0000 
     60 CA         43.2940    6.1950  120.2610 C.3       2 GLP5        0.0000 
     61 CA         43.8030    0.2977  121.2117 C.3       1 GLC5        0.0000 
     62 CA         46.0793    1.6933  121.6371 C.3       1 GLC5        0.0000 
     63 CA         46.6880    2.8650  120.3120 C.3       2 GLP5        0.0000 
     64 CA         44.4660   -0.4935  120.9335 C.3       1 GLC5        0.0000 
     65 CA         45.7720   -0.3120  122.6890 C.3       3 GLL5        0.0000 
     66 CA         44.0177   -1.6035  124.3890 C.3       1 GLC5        0.0000 
     67 CA         45.1940   -1.5640  122.3270 C.3       3 GLL5        0.0000 
     68 CA         44.9327   -3.7770  122.8470 C.3       1 GLC5        0.0000 
     69 CA         43.7550   -1.8360  122.3270 C.3       3 GLL5        0.0000 
     70 CA         42.8400   -1.2172  124.5738 C.3       1 GLC5        0.0000 
     71 CA         42.8680   -0.7450  122.7120 C.3       3 GLL5        0.0000 
     72 CA         40.6310   -0.7388  121.4678 C.3       1 GLC5        0.0000 
     73 CA         42.8949   -0.6246  120.9796 C.3       1 GLC5        0.0000 
     74 CA         50.9410   -4.5535  120.0108 C.3       1 GLC5        0.0000 
     75 CA         49.3540   -4.3070  121.8850 C.3       3 GLL5        0.0000 
     76 CA         52.0870   -4.7950  118.6410 C.3       2 GLP5        0.0000 
     77 CA         49.0040   -2.4500  121.0360 C.3       1 GLC5        0.0000 
     78 CA         48.4620   -1.0940  119.7330 C.3       2 GLP5        0.0000 
     79 CA         51.0985   -4.3754  123.1666 C.3       1 GLC5        0.0000 
     80 CA         52.6110   -3.9610  124.2980 C.3       2 GLP5        0.0000 
     81 CA         49.0247   -3.6820  124.1205 C.3       1 GLC5        0.0000 
     82 CA         48.6360   -2.7020  125.8400 C.3       2 GLP5        0.0000 
@<TRIPOS>BOND
@<TRIPOS>SUBSTRUCTURE
     1 GLC5        1 GROUP        1 X    GLC  0     ROOT GLC X 6
     2 GLP5        3 GROUP        1 Y    GLP  0     ROOT GLP Y 13
     3 GLL5        2 GROUP        1 Z    GLL  0     ROOT GLL Z 20
@<TRIPOS>SET

