#    Name: 1ncr_W11_1_ligand
#    Modification time : Mon Mar 24 18:01:23 2014

@<TRIPOS>MOLECULE
1ncr_W11_1_ligand
   45    47     1     0     0
SMALL
NO_CHARGES


@<TRIPOS>ATOM
      1 O1         38.8780    3.9070  124.4670 O.3       1 W117001     0.0000 
      2 N2         37.7030    4.7660  124.8340 N.2       1 W117001     0.0000 
      3 C3         37.0570    5.0120  123.7040 C.2       1 W117001     0.0000 
      4 CM3        35.8270    5.8610  123.8150 C.3       1 W117001     0.0000 
      5 C4         37.6990    4.3930  122.6090 C.2       1 W117001     0.0000 
      6 C5         38.8090    3.7190  123.0770 C.2       1 W117001     0.0000 
      7 C1C        39.8880    2.8820  122.4480 C.3       1 W117001     0.0000 
      8 C2C        41.2060    3.3830  122.9880 C.3       1 W117001     0.0000 
      9 C3C        42.3260    2.6220  122.3830 C.3       1 W117001     0.0000 
     10 O1B        42.6800    1.7530  123.4450 O.3       1 W117001     0.0000 
     11 C1B        43.4360    0.5850  123.0790 C.ar      1 W117001     0.0000 
     12 C2B        44.8780    0.7040  123.0500 C.ar      1 W117001     0.0000 
     13 CM2        45.4600    2.0060  123.4210 C.3       1 W117001     0.0000 
     14 C3B        45.7720   -0.3120  122.6890 C.ar      1 W117001     0.0000 
     15 C4B        45.1940   -1.5640  122.3270 C.ar      1 W117001     0.0000 
     16 C5B        43.7550   -1.8360  122.3270 C.ar      1 W117001     0.0000 
     17 C6B        42.8680   -0.7450  122.7120 C.ar      1 W117001     0.0000 
     18 CM6        41.3700   -1.1100  122.6810 C.3       1 W117001     0.0000 
     19 C2A        46.1170   -2.6200  121.9070 C.2       1 W117001     0.0000 
     20 N1A        45.7980   -3.6500  120.9940 N.2       1 W117001     0.0000 
     21 N3A        47.4510   -2.6830  122.3830 N.2       1 W117001     0.0000 
     22 C3A        47.9540   -3.8240  121.7090 C.2       1 W117001     0.0000 
     23 CM4        49.3540   -4.3070  121.8850 C.3       1 W117001     0.0000 
     24 O1A        47.0960   -4.5110  120.8470 O.3       1 W117001     0.0000 
     25 F1         49.7380   -3.3050  122.7930 F         1 W117001     0.0000 
     26 F2         50.2360   -4.3170  120.8760 F         1 W117001     0.0000 
     27 F3         49.2810   -5.5180  122.4630 F         1 W117001     0.0000 
     28 H          37.4029    4.4429  121.7100 H         1 W117001     0.0000 
     29 H          39.8667    2.9997  121.3771 H         1 W117001     0.0000 
     30 H          39.7550    1.8475  122.7187 H         1 W117001     0.0000 
     31 H          41.2145    3.2648  124.0741 H         1 W117001     0.0000 
     32 H          41.3054    4.4461  122.7564 H         1 W117001     0.0000 
     33 H          43.1183    3.2954  122.1321 H         1 W117001     0.0000 
     34 H          41.9711    2.0882  121.5267 H         1 W117001     0.0000 
     35 H          46.7581   -0.1794  122.6817 H         1 W117001     0.0000 
     36 H          43.4036   -2.7215  122.0764 H         1 W117001     0.0000 
     37 H          36.0319    6.7640  124.1926 H         1 W117001     0.0000 
     38 H          35.3947    6.0066  122.9251 H         1 W117001     0.0000 
     39 H          35.1400    5.4436  124.4098 H         1 W117001     0.0000 
     40 H          46.4586    1.9944  123.3702 H         1 W117001     0.0000 
     41 H          45.1444    2.7391  122.8186 H         1 W117001     0.0000 
     42 H          45.2170    2.2689  124.3547 H         1 W117001     0.0000 
     43 H          41.2249   -2.0602  122.4053 H         1 W117001     0.0000 
     44 H          40.9414   -0.9961  123.5773 H         1 W117001     0.0000 
     45 H          40.8614   -0.5374  122.0380 H         1 W117001     0.0000 
@<TRIPOS>BOND
     1    2    1 1    
     2    6    1 1    
     3    3    2 2    
     4    4    3 1    
     5    5    3 1    
     6   37    4 1    
     7   38    4 1    
     8   39    4 1    
     9    6    5 2    
    10   28    5 1    
    11    7    6 1    
    12    8    7 1    
    13   29    7 1    
    14   30    7 1    
    15    9    8 1    
    16   31    8 1    
    17   32    8 1    
    18   10    9 1    
    19   33    9 1    
    20   34    9 1    
    21   11   10 1    
    22   12   11 ar   
    23   17   11 ar   
    24   13   12 1    
    25   14   12 ar   
    26   40   13 1    
    27   41   13 1    
    28   42   13 1    
    29   15   14 ar   
    30   35   14 1    
    31   16   15 ar   
    32   19   15 1    
    33   17   16 ar   
    34   36   16 1    
    35   18   17 1    
    36   43   18 1    
    37   44   18 1    
    38   45   18 1    
    39   20   19 2    
    40   21   19 1    
    41   24   20 1    
    42   22   21 2    
    43   23   22 1    
    44   24   22 1    
    45   25   23 1    
    46   26   23 1    
    47   27   23 1    
@<TRIPOS>SUBSTRUCTURE
     1 W117001     1 GROUP   
@<TRIPOS>SET

