#    Name: 3qqs_17C_4_INTS_M
#    Modification time : Tue Mar 25 10:01:58 2014

@<TRIPOS>MOLECULE
3qqs_17C_4_INTS_M
   44     0     9     0     0
SMALL
NO_CHARGES


@<TRIPOS>ATOM
      1 N          17.9640   46.0150    8.4530 N.am      1 SEC2        0.0000 
      2 N          17.1210   47.0460    8.9140 N.am      7 SEL2        0.0000 
      3 N          18.8070   44.9840    7.9920 N.am      4 SEP2        0.0000 
      4 NZ         13.6645   46.7315   12.2155 N.4       2 LYC4        0.0000 
      5 NZ         12.5140   46.0720   11.6560 N.4       8 LYL4        0.0000 
      6 NZ         14.8370   48.4450   13.5730 N.4       5 LYP4        0.0000 
      7 N          13.6645   46.7315   12.2155 N.am      1 SEC2        0.0000 
      8 N          12.5140   46.0720   11.6560 N.am      7 SEL2        0.0000 
      9 N          14.8150   47.3910   12.7750 N.am      4 SEP2        0.0000 
     10 CA         10.9680   47.1560    7.7305 C.3       3 GLC5        0.0000 
     11 CA         12.7400   47.2300    6.9810 C.3       9 GLL5        0.0000 
     12 CA          9.1960   47.0820    8.4800 C.3       6 GLP5        0.0000 
     13 CA         10.7865   44.4940    5.3795 C.3       3 GLC5        0.0000 
     14 CA         11.3990   44.4960    7.5440 C.3       9 GLL5        0.0000 
     15 CA         10.1740   44.4920    3.2150 C.3       6 GLP5        0.0000 
     16 CA          9.1575   43.8020   11.8480 C.3       3 GLC5        0.0000 
     17 CA         10.5270   43.9030   10.1370 C.3       9 GLL5        0.0000 
     18 CA          7.7880   43.7010   13.5590 C.3       6 GLP5        0.0000 
     19 CA         15.9980   45.2270    7.8880 C.3       3 GLC5        0.0000 
     20 CA         14.9260   47.1810    8.0000 C.3       9 GLL5        0.0000 
     21 CA         17.0700   43.2730    7.7760 C.3       6 GLP5        0.0000 
     22 CA         13.0823   50.3787    6.1907 C.3       3 GLC5        0.0000 
     23 CA         13.0840   48.4110    6.3110 C.3       9 GLL5        0.0000 
     24 CA         12.4470   52.0640    5.9830 C.3       6 GLP5        0.0000 
     25 CA         14.6702   47.2823    5.5118 C.3       3 GLC5        0.0000 
     26 CA         14.3510   48.9760    6.4860 C.3       9 GLL5        0.0000 
     27 CA         15.6230   45.8710    4.6250 C.3       6 GLP5        0.0000 
     28 CA         13.4083   48.9013    4.4372 C.3       3 GLC5        0.0000 
     29 CA         13.0990   49.1090    2.4760 C.3       6 GLP5        0.0000 
     30 CA          8.8055   42.4170    8.0565 C.3       3 GLC5        0.0000 
     31 CA         10.1790   43.8590    7.7340 C.3       9 GLL5        0.0000 
     32 CA          7.6480   41.1230    7.7300 C.3       6 GLP5        0.0000 
     33 CA         11.9915   42.9668    6.5915 C.3       3 GLC5        0.0000 
     34 CA         13.1940   41.7560    5.5440 C.3       6 GLP5        0.0000 
     35 CA          9.5795   45.3965    8.4315 C.3       3 GLC5        0.0000 
     36 CA          8.4825   44.8400    9.7402 C.3       3 GLC5        0.0000 
     37 CA          9.7470   43.5630    9.0320 C.3       9 GLL5        0.0000 
     38 CA          6.8280   45.9470    9.8960 C.3       6 GLP5        0.0000 
     39 CA         14.4110   46.3950    6.0165 C.3       3 GLC5        0.0000 
     40 CA         10.4930   45.8810    8.2873 C.3       3 GLC5        0.0000 
     41 CA         12.1810   44.8640    8.6450 C.3       9 GLL5        0.0000 
     42 CA         15.3595   46.8197    6.1440 C.3       3 GLC5        0.0000 
     43 CA         10.1653   45.6557    9.2578 C.3       3 GLC5        0.0000 
     44 CA         11.7420   44.5560    9.9340 C.3       9 GLL5        0.0000 
@<TRIPOS>BOND
@<TRIPOS>SUBSTRUCTURE
     1 SEC2        1 GROUP        1 X    SEC  0     ROOT SEC X 2
     2 LYC4        4 GROUP        1 X    LYC  0     **** LYC X 4
     3 GLC5       10 GROUP        1 X    GLC  0     **** GLC X 6
     4 SEP2        3 GROUP        1 Y    SEP  0     ROOT SEP Y 9
     5 LYP4        6 GROUP        1 Y    LYP  0     **** LYP Y 11
     6 GLP5       12 GROUP        1 Y    GLP  0     **** GLP Y 13
     7 SEL2        2 GROUP        1 Z    SEL  0     ROOT SEL Z 16
     8 LYL4        5 GROUP        1 Z    LYL  0     **** LYL Z 18
     9 GLL5       11 GROUP        1 Z    GLL  0     **** GLL Z 20
@<TRIPOS>SET

