#    Name: 3qqs_17C_4_ligand
#    Modification time : Tue Mar 25 10:01:58 2014

@<TRIPOS>MOLECULE
3qqs_17C_4_ligand
   28    29     1     0     0
SMALL
NO_CHARGES


@<TRIPOS>ATOM
      1 OAA        17.1210   47.0460    8.9140 O.co2     1 17C404      0.0000 
      2 OAB        12.5140   46.0720   11.6560 O.co2     1 17C404      0.0000 
      3 OAC        15.6040   45.6430    9.7110 O.co2     1 17C404      0.0000 
      4 OAD        13.3730   44.0270   11.5340 O.co2     1 17C404      0.0000 
      5 CAE        13.0840   48.4110    6.3110 C.ar      1 17C404      0.0000 
      6 CAF        10.1790   43.8590    7.7340 C.ar      1 17C404      0.0000 
      7 CAG        14.3510   48.9760    6.4860 C.ar      1 17C404      0.0000 
      8 CAH         9.7470   43.5630    9.0320 C.ar      1 17C404      0.0000 
      9 CAI        12.7400   47.2300    6.9810 C.ar      1 17C404      0.0000 
     10 CAJ        11.3990   44.4960    7.5440 C.ar      1 17C404      0.0000 
     11 CAK        15.2660   48.3560    7.3260 C.ar      1 17C404      0.0000 
     12 CAL        10.5270   43.9030   10.1370 C.ar      1 17C404      0.0000 
     13 NAM        13.3710   45.4750    8.4950 N.pl3     1 17C404      0.0000 
     14 CAN        15.9700   46.5560    8.9310 C.2       1 17C404      0.0000 
     15 CAO        12.6030   44.9250   11.1460 C.2       1 17C404      0.0000 
     16 CAP        13.6580   46.6080    7.8350 C.ar      1 17C404      0.0000 
     17 CAQ        12.1810   44.8640    8.6450 C.ar      1 17C404      0.0000 
     18 CAR        14.9260   47.1810    8.0000 C.ar      1 17C404      0.0000 
     19 CAS        11.7420   44.5560    9.9340 C.ar      1 17C404      0.0000 
     20 H          12.4026   48.8625    5.6894 H         1 17C404      0.0000 
     21 H           9.5952   43.6053    6.9311 H         1 17C404      0.0000 
     22 H          14.5977   49.8407    5.9962 H         1 17C404      0.0000 
     23 H           8.8422   43.0885    9.1704 H         1 17C404      0.0000 
     24 H          11.8084   46.8183    6.8445 H         1 17C404      0.0000 
     25 H          11.7328   44.6999    6.5927 H         1 17C404      0.0000 
     26 H          16.2044   48.7630    7.4557 H         1 17C404      0.0000 
     27 H          10.2125   43.6768   11.0813 H         1 17C404      0.0000 
     28 H          14.2272   44.9747    8.9820 H         1 17C404      0.0000 
@<TRIPOS>BOND
     1   14    1 ar   
     2   15    2 ar   
     3   14    3 ar   
     4   15    4 ar   
     5    7    5 ar   
     6    9    5 ar   
     7   20    5 1    
     8    8    6 ar   
     9   10    6 ar   
    10   21    6 1    
    11   11    7 ar   
    12   22    7 1    
    13   12    8 ar   
    14   23    8 1    
    15   16    9 ar   
    16   24    9 1    
    17   17   10 ar   
    18   25   10 1    
    19   18   11 ar   
    20   26   11 1    
    21   19   12 ar   
    22   27   12 1    
    23   16   13 1    
    24   17   13 1    
    25   28   13 1    
    26   18   14 1    
    27   19   15 1    
    28   18   16 ar   
    29   19   17 ar   
@<TRIPOS>SUBSTRUCTURE
     1 17C404      1 GROUP   
@<TRIPOS>SET

