#    Name: 1t1s_CBQ_1_INTS_M
#    Modification time : Tue Mar 25 04:09:09 2014

@<TRIPOS>MOLECULE
1t1s_CBQ_1_INTS_M
   35     0    15     0     0
SMALL
NO_CHARGES


@<TRIPOS>ATOM
      1 NZ         18.1610   11.1670   62.7190 N.4       3 LYC4        0.0000 
      2 NZ         17.2440    9.7120   61.9610 N.4      13 LYL4        0.0000 
      3 NZ         19.0780   12.6220   63.4770 N.4       8 LYP4        0.0000 
      4 NZ         18.7525   11.9265   61.9520 N.4       3 LYC4        0.0000 
      5 NZ         18.4270   11.2310   60.4270 N.4      13 LYL4        0.0000 
      6 Zn         19.3080   11.7255   60.2340 Zn        4 ZIC7        0.0000 
      7 Zn         18.4270   11.2310   60.4270 Zn       14 ZIL7        0.0000 
      8 Zn         20.1890   12.2200   60.0410 Zn        9 ZIP7        0.0000 
      9 N          18.6500   11.9945   59.3445 N.am      2 SEC2        0.0000 
     10 N          18.4270   11.2310   60.4270 N.am     12 SEL2        0.0000 
     11 N          18.8730   12.7580   58.2620 N.am      7 SEP2        0.0000 
     12 N          18.1230    9.0065   58.3980 N.am      2 SEC2        0.0000 
     13 N          17.2690    9.3990   59.4510 N.am     12 SEL2        0.0000 
     14 N          18.9770    8.6140   57.3450 N.am      7 SEP2        0.0000 
     15 O          16.4725   13.0645   58.2765 O.2       1 ALC1        0.0000 
     16 O          15.6720   12.1800   59.2000 O.2      11 ALL1        0.0000 
     17 O          17.2730   13.9490   57.3530 O.2       6 ALP1        0.0000 
     18 CA         11.9325   11.9770   55.7445 C.3       5 GLC5        0.0000 
     19 CA         12.5700   10.5900   54.5020 C.3      15 GLL5        0.0000 
     20 CA         11.2950   13.3640   56.9870 C.3      10 GLP5        0.0000 
     21 CA         11.4865    9.3850   54.0920 C.3       5 GLC5        0.0000 
     22 CA         10.4030    8.1800   53.6820 C.3      10 GLP5        0.0000 
     23 NZ         17.4185   12.3295   63.3310 N.4       3 LYC4        0.0000 
     24 NZ         15.7590   12.0370   63.1850 N.4      13 LYL4        0.0000 
     25 N          17.4185   12.3295   63.3310 N.am      2 SEC2        0.0000 
     26 N          15.7590   12.0370   63.1850 N.am     12 SEL2        0.0000 
     27 N          19.0780   12.6220   63.4770 N.am      7 SEP2        0.0000 
     28 NZ         17.9390   13.1930   62.5400 N.4       3 LYC4        0.0000 
     29 NZ         16.8000   13.7640   61.6030 N.4      13 LYL4        0.0000 
     30 CA         14.4080    8.5665   57.2562 C.3       5 GLC5        0.0000 
     31 CA         14.1930   10.5720   58.1350 C.3      15 GLL5        0.0000 
     32 CA         14.9800    6.7460   56.9450 C.3      10 GLP5        0.0000 
     33 CA         15.5791   10.4046   56.3798 C.3       5 GLC5        0.0000 
     34 CA         13.4790   10.2020   57.0000 C.3      15 GLL5        0.0000 
     35 CA         17.1990    9.6730   56.0540 C.3      10 GLP5        0.0000 
@<TRIPOS>BOND
@<TRIPOS>SUBSTRUCTURE
     1 ALC1       15 GROUP        1 X    ALC  0     ROOT ALC X 1
     2 SEC2        9 GROUP        1 X    SEC  0     **** SEC X 2
     3 LYC4        1 GROUP        1 X    LYC  0     **** LYC X 4
     4 ZIC7        6 GROUP        1 X    ZIC  0     **** ZIC X 5
     5 GLC5       18 GROUP        1 X    GLC  0     **** GLC X 6
     6 ALP1       17 GROUP        1 Y    ALP  0     ROOT ALP Y 8
     7 SEP2       11 GROUP        1 Y    SEP  0     **** SEP Y 9
     8 LYP4        3 GROUP        1 Y    LYP  0     **** LYP Y 11
     9 ZIP7        8 GROUP        1 Y    ZIP  0     **** ZIP Y 12
    10 GLP5       20 GROUP        1 Y    GLP  0     **** GLP Y 13
    11 ALL1       16 GROUP        1 Z    ALL  0     ROOT ALL Z 15
    12 SEL2       10 GROUP        1 Z    SEL  0     **** SEL Z 16
    13 LYL4        2 GROUP        1 Z    LYL  0     **** LYL Z 18
    14 ZIL7        7 GROUP        1 Z    ZIL  0     **** ZIL Z 19
    15 GLL5       19 GROUP        1 Z    GLL  0     **** GLL Z 20
@<TRIPOS>SET

