#    Name: 1t1s_CBQ_1_ligand
#    Modification time : Tue Mar 25 04:09:09 2014

@<TRIPOS>MOLECULE
1t1s_CBQ_1_ligand
   22    22     1     0     0
SMALL
NO_CHARGES


@<TRIPOS>ATOM
      1 O1         17.2440    9.7120   61.9610 O.co2     1 CBQ2001     0.0000 
      2 P1         17.2220   10.4400   60.5980 P.3       1 CBQ2001     0.0000 
      3 O2         18.4270   11.2310   60.4270 O.co2     1 CBQ2001     0.0000 
      4 O3         17.2690    9.3990   59.4510 O.co2     1 CBQ2001     0.0000 
      5 C1         15.7260   11.4740   60.4720 C.3       1 CBQ2001     0.0000 
      6 N1         15.6720   12.1800   59.2000 N.pl3     1 CBQ2001     0.0000 
      7 C2         14.9500   11.7550   58.1160 C.ar      1 CBQ2001     0.0000 
      8 N2         14.9750   12.5370   56.9610 N.ar      1 CBQ2001     0.0000 
      9 C3         14.2640   12.1710   55.8280 C.ar      1 CBQ2001     0.0000 
     10 C4         13.5220   11.0080   55.8690 C.ar      1 CBQ2001     0.0000 
     11 CL1        12.5700   10.5900   54.5020 Cl        1 CBQ2001     0.0000 
     12 C5         13.4790   10.2020   57.0000 C.ar      1 CBQ2001     0.0000 
     13 C6         14.1930   10.5720   58.1350 C.ar      1 CBQ2001     0.0000 
     14 P2         15.6810   12.7180   61.7970 P.3       1 CBQ2001     0.0000 
     15 O4         15.7590   12.0370   63.1850 O.co2     1 CBQ2001     0.0000 
     16 O5         14.4810   13.5320   61.6910 O.co2     1 CBQ2001     0.0000 
     17 O6         16.8000   13.7640   61.6030 O.co2     1 CBQ2001     0.0000 
     18 H          14.9284   10.8372   60.6820 H         1 CBQ2001     0.0000 
     19 H          16.2332   13.0667   59.1444 H         1 CBQ2001     0.0000 
     20 H          14.2907   12.7477   54.9887 H         1 CBQ2001     0.0000 
     21 H          12.9244    9.3393   56.9987 H         1 CBQ2001     0.0000 
     22 H          14.1710    9.9938   58.9763 H         1 CBQ2001     0.0000 
@<TRIPOS>BOND
     1    2    1 ar   
     2    3    2 ar   
     3    4    2 ar   
     4    5    2 1    
     5    6    5 1    
     6   14    5 1    
     7   18    5 1    
     8    7    6 1    
     9   19    6 1    
    10    8    7 ar   
    11   13    7 ar   
    12    9    8 ar   
    13   10    9 ar   
    14   20    9 1    
    15   11   10 1    
    16   12   10 ar   
    17   13   12 ar   
    18   21   12 1    
    19   22   13 1    
    20   15   14 ar   
    21   16   14 ar   
    22   17   14 ar   
@<TRIPOS>SUBSTRUCTURE
     1 CBQ2001     1 GROUP   
@<TRIPOS>SET

