#    Name: 3l6j_Z90_2_INTS_M
#    Modification time : Mon Mar 24 21:04:07 2014

@<TRIPOS>MOLECULE
3l6j_Z90_2_INTS_M
  118     0     9     0     0
SMALL
NO_CHARGES


@<TRIPOS>ATOM
      1 NZ         -5.6575   33.6860   76.4405 N.4       2 LYC4        0.0000 
      2 NZ         -5.0630   34.1680   77.5600 N.4       8 LYL4        0.0000 
      3 NZ         -6.3920   33.7210   74.1110 N.4       5 LYP4        0.0000 
      4 N          -5.6575   33.6860   76.4405 N.am      1 SEC2        0.0000 
      5 N          -5.0630   34.1680   77.5600 N.am      7 SEL2        0.0000 
      6 N          -6.2520   33.2040   75.3210 N.am      4 SEP2        0.0000 
      7 NZ         -7.4775   32.1935   75.1060 N.4       2 LYC4        0.0000 
      8 NZ         -8.7030   31.1830   74.8910 N.4       8 LYL4        0.0000 
      9 N          -8.1475   29.9180   74.6725 N.am      1 SEC2        0.0000 
     10 N          -8.7030   31.1830   74.8910 N.am      7 SEL2        0.0000 
     11 N          -7.5920   28.6530   74.4540 N.am      4 SEP2        0.0000 
     12 N          -7.4775   32.1935   75.1060 N.am      1 SEC2        0.0000 
     13 N          -7.9200   32.1405   74.0510 N.am      1 SEC2        0.0000 
     14 N          -7.1370   33.0980   73.2110 N.am      4 SEP2        0.0000 
     15 N          -2.9825   35.1470   79.8390 N.am      1 SEC2        0.0000 
     16 N          -3.5890   33.6880   79.1370 N.am      7 SEL2        0.0000 
     17 N          -2.3760   36.6060   80.5410 N.am      4 SEP2        0.0000 
     18 N          -2.5620   34.0090   78.4610 N.am      1 SEC2        0.0000 
     19 N          -1.5350   34.3300   77.7850 N.am      4 SEP2        0.0000 
     20 N         -11.6395   32.9155   73.4385 N.am      1 SEC2        0.0000 
     21 N         -10.5190   32.2860   74.2430 N.am      7 SEL2        0.0000 
     22 N         -12.7600   33.5450   72.6340 N.am      4 SEP2        0.0000 
     23 CA        -17.5675   32.4345   76.3170 C.3       3 GLC5        0.0000 
     24 CA        -17.2250   30.2500   76.0360 C.3       9 GLL5        0.0000 
     25 CA        -17.9100   34.6190   76.5980 C.3       6 GLP5        0.0000 
     26 CA         -9.6400   34.4235   89.5015 C.3       3 GLC5        0.0000 
     27 CA         -9.9170   34.1380   87.5640 C.3       9 GLL5        0.0000 
     28 CA         -9.3630   34.7090   91.4390 C.3       6 GLP5        0.0000 
     29 CA        -17.6045   31.0015   83.4295 C.3       3 GLC5        0.0000 
     30 CA        -15.6600   31.5210   82.7460 C.3       9 GLL5        0.0000 
     31 CA        -19.5490   30.4820   84.1130 C.3       6 GLP5        0.0000 
     32 CA        -13.7865   28.5610   81.5920 C.3       3 GLC5        0.0000 
     33 CA        -13.6690   30.7500   81.5980 C.3       9 GLL5        0.0000 
     34 CA        -13.9040   26.3720   81.5860 C.3       6 GLP5        0.0000 
     35 CA        -15.2045   31.6285   85.9770 C.3       3 GLC5        0.0000 
     36 CA        -14.8810   31.8700   83.8510 C.3       9 GLL5        0.0000 
     37 CA        -15.5280   31.3870   88.1030 C.3       6 GLP5        0.0000 
     38 CA         -9.6395   30.5095   80.3640 C.3       3 GLC5        0.0000 
     39 CA         -9.3670   32.1450   78.9140 C.3       9 GLL5        0.0000 
     40 CA         -9.9120   28.8740   81.8140 C.3       6 GLP5        0.0000 
     41 CA         -7.7415   30.2990   78.0720 C.3       3 GLC5        0.0000 
     42 CA         -9.1490   31.7940   77.5840 C.3       9 GLL5        0.0000 
     43 CA         -6.3340   28.8040   78.5600 C.3       6 GLP5        0.0000 
     44 CA         -6.4685   33.4535   81.1060 C.3       3 GLC5        0.0000 
     45 CA         -7.5100   35.2580   80.5590 C.3       9 GLL5        0.0000 
     46 CA         -5.4270   31.6490   81.6530 C.3       6 GLP5        0.0000 
     47 CA         -5.3090   33.4935   80.6410 C.3       3 GLC5        0.0000 
     48 CA         -5.1910   35.3380   79.6290 C.3       9 GLL5        0.0000 
     49 CA         -3.4335   35.7535   80.6295 C.3       3 GLC5        0.0000 
     50 CA         -1.6760   36.1690   81.6300 C.3       6 GLP5        0.0000 
     51 CA        -17.5830   29.7085   80.5315 C.3       3 GLC5        0.0000 
     52 CA        -15.8760   30.5820   80.4020 C.3       9 GLL5        0.0000 
     53 CA        -19.2900   28.8350   80.6610 C.3       6 GLP5        0.0000 
     54 CA         -8.4805   36.8680   80.5820 C.3       3 GLC5        0.0000 
     55 CA         -9.0040   35.2920   80.2100 C.3       9 GLL5        0.0000 
     56 CA         -7.9570   38.4440   80.9540 C.3       6 GLP5        0.0000 
     57 CA         -8.6725   35.8130   83.6455 C.3       3 GLC5        0.0000 
     58 CA         -9.0630   34.3070   82.4790 C.3       9 GLL5        0.0000 
     59 CA         -8.2820   37.3190   84.8120 C.3       6 GLP5        0.0000 
     60 CA        -14.1220   31.6930   86.5000 C.3       3 GLC5        0.0000 
     61 CA        -12.7160   31.9990   84.8970 C.3       9 GLL5        0.0000 
     62 CA        -10.9890   30.8005   85.6945 C.3       3 GLC5        0.0000 
     63 CA         -9.2620   29.6020   86.4920 C.3       6 GLP5        0.0000 
     64 CA        -12.5355   34.1175   80.6925 C.3       3 GLC5        0.0000 
     65 CA        -10.6330   33.4020   80.7050 C.3       9 GLL5        0.0000 
     66 CA        -14.4380   34.8330   80.6800 C.3       6 GLP5        0.0000 
     67 N         -12.8195   34.2905   83.8850 N.am      1 SEC2        0.0000 
     68 N         -12.2080   33.3450   84.8350 N.am      7 SEL2        0.0000 
     69 N         -13.4310   35.2360   82.9350 N.am      4 SEP2        0.0000 
     70 CA        -10.1555   31.5890   85.9995 C.3       3 GLC5        0.0000 
     71 CA        -11.0490   33.5760   85.5070 C.3       9 GLL5        0.0000 
     72 CA        -15.4223   27.6590   74.8657 C.3       3 GLC5        0.0000 
     73 CA        -16.2690   29.3860   75.5020 C.3       9 GLL5        0.0000 
     74 CA        -15.1820   26.0340   73.9010 C.3       6 GLP5        0.0000 
     75 CA        -15.2503   30.8080   74.7170 C.3       3 GLC5        0.0000 
     76 CA        -15.0560   29.1820   76.1590 C.3       9 GLL5        0.0000 
     77 CA        -14.5990   32.1160   73.4700 C.3       6 GLP5        0.0000 
     78 CA        -13.1180   29.1348   76.6530 C.3       3 GLC5        0.0000 
     79 CA        -14.7900   29.8470   77.3550 C.3       9 GLL5        0.0000 
     80 CA        -11.3130   28.7550   76.5490 C.3       6 GLP5        0.0000 
     81 CA         -8.2940   32.5400   87.1612 C.3       3 GLC5        0.0000 
     82 CA         -8.6990   34.0940   86.8890 C.3       9 GLL5        0.0000 
     83 CA         -7.2800   30.9640   87.0960 C.3       6 GLP5        0.0000 
     84 CA        -17.2890   32.2402   78.2357 C.3       3 GLC5        0.0000 
     85 CA        -15.7400   30.7080   77.8930 C.3       9 GLL5        0.0000 
     86 CA        -18.2320   33.6710   78.9080 C.3       6 GLP5        0.0000 
     87 CA         -8.2620   32.3148   86.1348 C.3       3 GLC5        0.0000 
     88 CA         -9.8310   33.5420   84.8190 C.3       9 GLL5        0.0000 
     89 CA        -16.2377   33.2703   83.0573 C.3       3 GLC5        0.0000 
     90 CA        -17.2050   34.8450   82.8160 C.3       6 GLP5        0.0000 
     91 CA        -13.0490   29.4055   83.5515 C.3       3 GLC5        0.0000 
     92 CA        -12.8160   27.8890   84.9540 C.3       6 GLP5        0.0000 
     93 CA        -11.5970   29.8980   81.9815 C.3       3 GLC5        0.0000 
     94 CA        -12.8950   31.0940   82.7000 C.3       9 GLL5        0.0000 
     95 CA        -12.0377   34.9055   77.1215 C.3       3 GLC5        0.0000 
     96 CA        -11.2220   33.5430   78.2410 C.3       9 GLL5        0.0000 
     97 CA        -12.9650   36.4430   76.6700 C.3       6 GLP5        0.0000 
     98 CA         -7.6005   31.5188   79.3120 C.3       3 GLC5        0.0000 
     99 CA         -5.9430   31.0680   80.3750 C.3       6 GLP5        0.0000 
    100 CA         -9.9395   34.2160   75.4397 C.3       3 GLC5        0.0000 
    101 CA         -9.9590   32.3170   76.5760 C.3       9 GLL5        0.0000 
    102 CA         -9.4000   35.6770   74.1390 C.3       6 GLP5        0.0000 
    103 CA        -10.5635   30.5147   76.8556 C.3       3 GLC5        0.0000 
    104 CA         -5.4268   36.8833   78.4458 C.3       3 GLC5        0.0000 
    105 CA         -6.6660   35.5330   79.3220 C.3       9 GLL5        0.0000 
    106 CA         -4.9250   38.3310   77.4160 C.3       6 GLP5        0.0000 
    107 CA         -7.0482   36.9054   80.3694 C.3       3 GLC5        0.0000 
    108 CA        -16.9462   32.3385   79.3547 C.3       3 GLC5        0.0000 
    109 CA        -15.4450   31.4300   79.2010 C.3       9 GLL5        0.0000 
    110 CA        -15.0493   32.9195   80.2407 C.3       3 GLC5        0.0000 
    111 CA        -12.9627   29.8552   84.6573 C.3       3 GLC5        0.0000 
    112 CA        -13.5030   31.6440   83.8240 C.3       9 GLL5        0.0000 
    113 CA        -15.2922   28.5576   78.4720 C.3       3 GLC5        0.0000 
    114 CA        -15.2530   27.0040   79.6190 C.3       6 GLP5        0.0000 
    115 CA        -15.3034   28.9940   80.1654 C.3       3 GLC5        0.0000 
    116 CA         -8.7683   35.5304   85.1629 C.3       3 GLC5        0.0000 
    117 CA        -10.6874   35.6988   86.0570 C.3       3 GLC5        0.0000 
    118 CA        -10.5960   37.6040   85.7520 C.3       6 GLP5        0.0000 
@<TRIPOS>BOND
@<TRIPOS>SUBSTRUCTURE
     1 SEC2        4 GROUP        1 X    SEC  0     ROOT SEC X 2
     2 LYC4        1 GROUP        1 X    LYC  0     **** LYC X 4
     3 GLC5       23 GROUP        1 X    GLC  0     **** GLC X 6
     4 SEP2        6 GROUP        1 Y    SEP  0     ROOT SEP Y 9
     5 LYP4        3 GROUP        1 Y    LYP  0     **** LYP Y 11
     6 GLP5       25 GROUP        1 Y    GLP  0     **** GLP Y 13
     7 SEL2        5 GROUP        1 Z    SEL  0     ROOT SEL Z 16
     8 LYL4        2 GROUP        1 Z    LYL  0     **** LYL Z 18
     9 GLL5       24 GROUP        1 Z    GLL  0     **** GLL Z 20
@<TRIPOS>SET

