#    Name: 3l6j_Z90_2_ligand
#    Modification time : Mon Mar 24 21:04:07 2014

@<TRIPOS>MOLECULE
3l6j_Z90_2_ligand
   80    83     1     0     0
SMALL
NO_CHARGES


@<TRIPOS>ATOM
      1 OAA        -5.0630   34.1680   77.5600 O.co2     1 Z90190      0.0000 
      2 OAB        -8.7030   31.1830   74.8910 O.co2     1 Z90190      0.0000 
      3 OAC        -3.5890   33.6880   79.1370 O.co2     1 Z90190      0.0000 
      4 OAD       -10.5190   32.2860   74.2430 O.co2     1 Z90190      0.0000 
      5 CAE       -16.2690   29.3860   75.5020 C.ar      1 Z90190      0.0000 
      6 CAF       -17.2250   30.2500   76.0360 C.ar      1 Z90190      0.0000 
      7 CAG       -15.0560   29.1820   76.1590 C.ar      1 Z90190      0.0000 
      8 CAH        -8.6990   34.0940   86.8890 C.ar      1 Z90190      0.0000 
      9 CAI        -9.9170   34.1380   87.5640 C.ar      1 Z90190      0.0000 
     10 CAJ       -16.9520   30.9110   77.2340 C.ar      1 Z90190      0.0000 
     11 CAK       -14.7900   29.8470   77.3550 C.ar      1 Z90190      0.0000 
     12 CAL        -8.6570   33.7890   85.5280 C.ar      1 Z90190      0.0000 
     13 CAM       -11.1000   33.8840   86.8700 C.ar      1 Z90190      0.0000 
     14 CAN       -15.6600   31.5210   82.7460 C.ar      1 Z90190      0.0000 
     15 CAO       -13.6690   30.7500   81.5980 C.ar      1 Z90190      0.0000 
     16 CAP       -14.8810   31.8700   83.8510 C.ar      1 Z90190      0.0000 
     17 CAQ       -12.8950   31.0940   82.7000 C.ar      1 Z90190      0.0000 
     18 CAR       -11.2220   33.5430   78.2410 C.ar      1 Z90190      0.0000 
     19 CAS        -9.3670   32.1450   78.9140 C.ar      1 Z90190      0.0000 
     20 CAT       -10.9990   33.1930   76.9050 C.ar      1 Z90190      0.0000 
     21 CAU        -9.1490   31.7940   77.5840 C.ar      1 Z90190      0.0000 
     22 CAV        -6.6660   35.5330   79.3220 C.3       1 Z90190      0.0000 
     23 CAW        -7.5100   35.2580   80.5590 C.3       1 Z90190      0.0000 
     24 CAX        -5.1910   35.3380   79.6290 C.3       1 Z90190      0.0000 
     25 CAY       -15.4450   31.4300   79.2010 C.3       1 Z90190      0.0000 
     26 CAZ       -15.8760   30.5820   80.4020 C.3       1 Z90190      0.0000 
     27 CBA        -9.7110   33.2070   83.3250 C.3       1 Z90190      0.0000 
     28 CBB        -9.0040   35.2920   80.2100 C.3       1 Z90190      0.0000 
     29 CBC        -9.0630   34.3070   82.4790 C.3       1 Z90190      0.0000 
     30 CBD       -12.7160   31.9990   84.8970 C.3       1 Z90190      0.0000 
     31 CBE       -10.6330   33.4020   80.7050 C.3       1 Z90190      0.0000 
     32 OBF       -12.2080   33.3450   84.8350 O.3       1 Z90190      0.0000 
     33 CBG        -4.5610   34.3170   78.6920 C.2       1 Z90190      0.0000 
     34 CBH        -9.7030   31.9070   75.1200 C.2       1 Z90190      0.0000 
     35 CBI       -15.7400   30.7080   77.8930 C.ar      1 Z90190      0.0000 
     36 CBJ       -15.0470   30.9620   81.6220 C.ar      1 Z90190      0.0000 
     37 CBK       -13.5030   31.6440   83.8240 C.ar      1 Z90190      0.0000 
     38 CBL       -10.3980   33.0270   79.2420 C.ar      1 Z90190      0.0000 
     39 CBM        -9.9590   32.3170   76.5760 C.ar      1 Z90190      0.0000 
     40 CBN        -9.8310   33.5420   84.8190 C.ar      1 Z90190      0.0000 
     41 CBO       -11.0490   33.5760   85.5070 C.ar      1 Z90190      0.0000 
     42 NBP        -9.7710   34.5100   81.1940 N.4       1 Z90190      0.0000 
     43 H         -16.4603   28.8956   74.6168 H         1 Z90190      0.0000 
     44 H         -18.1143   30.3972   75.5559 H         1 Z90190      0.0000 
     45 H         -14.3583   28.5414   75.7614 H         1 Z90190      0.0000 
     46 H          -7.8242   34.2875   87.3965 H         1 Z90190      0.0000 
     47 H          -9.9444   34.3557   88.5649 H         1 Z90190      0.0000 
     48 H         -17.6508   31.5533   77.6342 H         1 Z90190      0.0000 
     49 H         -13.8951   29.7004   77.8357 H         1 Z90190      0.0000 
     50 H          -7.7478   33.7461   85.0428 H         1 Z90190      0.0000 
     51 H         -12.0010   33.9225   87.3542 H         1 Z90190      0.0000 
     52 H         -16.6710   31.6732   82.7591 H         1 Z90190      0.0000 
     53 H         -13.2282   30.3398   80.7656 H         1 Z90190      0.0000 
     54 H         -15.3175   32.2894   84.6768 H         1 Z90190      0.0000 
     55 H         -11.8802   30.9433   82.6852 H         1 Z90190      0.0000 
     56 H         -11.9901   34.1778   78.4827 H         1 Z90190      0.0000 
     57 H          -8.7706   31.7561   79.6537 H         1 Z90190      0.0000 
     58 H         -11.5976   33.5784   76.1671 H         1 Z90190      0.0000 
     59 H          -8.3868   31.1456   77.3427 H         1 Z90190      0.0000 
     60 H          -6.8347   36.5570   78.9919 H         1 Z90190      0.0000 
     61 H          -6.9630   34.8523   78.5254 H         1 Z90190      0.0000 
     62 H          -7.3048   36.0130   81.3142 H         1 Z90190      0.0000 
     63 H          -7.2611   34.2776   80.9582 H         1 Z90190      0.0000 
     64 H          -5.0784   34.9966   80.6605 H         1 Z90190      0.0000 
     65 H          -4.6703   36.2924   79.5229 H         1 Z90190      0.0000 
     66 H         -14.3769   31.6302   79.2716 H         1 Z90190      0.0000 
     67 H         -15.9833   32.3765   79.2220 H         1 Z90190      0.0000 
     68 H         -15.7230   29.5340   80.1716 H         1 Z90190      0.0000 
     69 H         -16.9253   30.7609   80.6064 H         1 Z90190      0.0000 
     70 H          -9.1237   32.2795   83.2159 H         1 Z90190      0.0000 
     71 H         -10.7182   32.9966   82.9270 H         1 Z90190      0.0000 
     72 H          -9.1305   34.8823   79.2065 H         1 Z90190      0.0000 
     73 H          -9.3305   36.3333   80.2038 H         1 Z90190      0.0000 
     74 H          -8.0151   34.0302   82.2974 H         1 Z90190      0.0000 
     75 H          -9.0617   35.2369   83.0646 H         1 Z90190      0.0000 
     76 H         -13.2778   31.8733   85.8691 H         1 Z90190      0.0000 
     77 H         -11.8421   31.2918   85.0084 H         1 Z90190      0.0000 
     78 H         -10.4715   32.4981   81.3243 H         1 Z90190      0.0000 
     79 H         -11.6999   33.6738   80.8256 H         1 Z90190      0.0000 
     80 H         -10.6213   35.3429   81.5385 H         1 Z90190      0.0000 
@<TRIPOS>BOND
     1   33    1 ar   
     2   34    2 ar   
     3   33    3 ar   
     4   34    4 ar   
     5    6    5 ar   
     6    7    5 ar   
     7   43    5 1    
     8   10    6 ar   
     9   44    6 1    
    10   11    7 ar   
    11   45    7 1    
    12    9    8 ar   
    13   12    8 ar   
    14   46    8 1    
    15   13    9 ar   
    16   47    9 1    
    17   35   10 ar   
    18   48   10 1    
    19   35   11 ar   
    20   49   11 1    
    21   40   12 ar   
    22   50   12 1    
    23   41   13 ar   
    24   51   13 1    
    25   16   14 ar   
    26   36   14 ar   
    27   52   14 1    
    28   17   15 ar   
    29   36   15 ar   
    30   53   15 1    
    31   37   16 ar   
    32   54   16 1    
    33   37   17 ar   
    34   55   17 1    
    35   20   18 ar   
    36   38   18 ar   
    37   56   18 1    
    38   21   19 ar   
    39   38   19 ar   
    40   57   19 1    
    41   39   20 ar   
    42   58   20 1    
    43   39   21 ar   
    44   59   21 1    
    45   23   22 1    
    46   24   22 1    
    47   60   22 1    
    48   61   22 1    
    49   28   23 1    
    50   62   23 1    
    51   63   23 1    
    52   33   24 1    
    53   64   24 1    
    54   65   24 1    
    55   26   25 1    
    56   35   25 1    
    57   66   25 1    
    58   67   25 1    
    59   36   26 1    
    60   68   26 1    
    61   69   26 1    
    62   29   27 1    
    63   40   27 1    
    64   70   27 1    
    65   71   27 1    
    66   42   28 1    
    67   72   28 1    
    68   73   28 1    
    69   42   29 1    
    70   74   29 1    
    71   75   29 1    
    72   32   30 1    
    73   37   30 1    
    74   76   30 1    
    75   77   30 1    
    76   38   31 1    
    77   42   31 1    
    78   78   31 1    
    79   79   31 1    
    80   41   32 1    
    81   39   34 1    
    82   41   40 ar   
    83   80   42 1    
@<TRIPOS>SUBSTRUCTURE
     1 Z90190      1 GROUP   
@<TRIPOS>SET

