#    Name: 4J21_1_CAVITY_N1_6.mol2
#    Modification time : Tue Mar 11 07:01:56 2014

@<TRIPOS>MOLECULE
4J21_1_CAVITY_N1_6.mol2
   73     0     5     0     0
SMALL
NO_CHARGES


@<TRIPOS>ATOM
      1 N         -10.2273    5.9217    4.4653 N.2       2 ALA2        0.0000 
      2 CA        -11.6722    6.0086    4.8588 C.3       4 GLY6        0.0000 
      3 N          -9.0628    4.5658    3.3227 N.2       2 ALA2        0.0000 
      4 CA        -11.9525    4.7396    4.1098 C.3       4 GLY6        0.0000 
      5 N          -7.8983    3.2100    2.1802 N.2       2 ALA2        0.0000 
      6 N          -9.9378    5.1267    5.7039 N.2       2 ALA2        0.0000 
      7 N         -10.2181    3.8577    4.9548 N.2       2 ALA2        0.0000 
      8 CA        -11.6630    3.9446    5.3484 C.3       4 GLY6        0.0000 
      9 N          -9.0536    2.5018    3.8123 N.2       2 ALA2        0.0000 
     10 DU        -10.4984    2.5887    4.2058 H         5 CUB7        0.0000 
     11 DU        -11.9433    2.6756    4.5993 H         5 CUB7        0.0000 
     12 CA        -13.3881    2.7624    4.9928 C.3       4 GLY6        0.0000 
     13 N          -9.3339    1.2328    3.0632 N.2       2 ALA2        0.0000 
     14 CZ        -10.7787    1.3197    3.4567 C.ar      3 PHE5        0.0000 
     15 CZ        -12.2236    1.4066    3.8503 C.ar      3 PHE5        0.0000 
     16 CZ        -13.6684    1.4934    4.2438 C.ar      3 PHE5        0.0000 
     17 CA        -15.1133    1.5803    4.6373 C.3       4 GLY6        0.0000 
     18 CZ        -13.9488    0.2244    3.4947 C.ar      3 PHE5        0.0000 
     19 CA        -15.3936    0.3113    3.8883 C.3       4 GLY6        0.0000 
     20 CZ        -14.2291   -1.0446    2.7457 C.ar      3 PHE5        0.0000 
     21 CA        -15.6739   -0.9577    3.1392 C.3       4 GLY6        0.0000 
     22 N          -9.6483    4.3316    6.9425 N.2       2 ALA2        0.0000 
     23 CA        -11.0931    4.4185    7.3360 C.3       4 GLY6        0.0000 
     24 N          -9.9286    3.0626    6.1934 N.2       2 ALA2        0.0000 
     25 CA        -11.3734    3.1495    6.5869 C.3       4 GLY6        0.0000 
     26 N          -8.7640    1.7068    5.0508 N.2       2 ALA2        0.0000 
     27 N         -10.2089    1.7936    5.4444 N.2       2 ALA2        0.0000 
     28 DU        -11.6537    1.8805    5.8379 H         5 CUB7        0.0000 
     29 CA        -13.0986    1.9674    6.2314 C.3       4 GLY6        0.0000 
     30 O         -14.5434    2.0543    6.6249 O.2       2 ALA2        0.0000 
     31 CZ        -10.4892    0.5246    4.6953 C.ar      3 PHE5        0.0000 
     32 CZ        -11.9341    0.6115    5.0888 C.ar      3 PHE5        0.0000 
     33 CA        -13.3789    0.6984    5.4824 C.3       4 GLY6        0.0000 
     34 CA        -14.8238    0.7853    5.8759 C.3       4 GLY6        0.0000 
     35 CZ        -13.6592   -0.5706    4.7333 C.ar      3 PHE5        0.0000 
     36 N          -9.3587    3.5366    8.1810 N.2       2 ALA2        0.0000 
     37 CA        -10.8036    3.6235    8.5746 C.3       4 GLY6        0.0000 
     38 N          -9.6390    2.2676    7.4320 N.2       2 ALA2        0.0000 
     39 DU        -11.0839    2.3545    7.8255 H         5 CUB7        0.0000 
     40 CA        -12.5287    2.4413    8.2190 C.3       4 GLY6        0.0000 
     41 CZ        -13.9736    2.5282    8.6125 C.ar      3 PHE5        0.0000 
     42 N          -9.9194    0.9986    6.6829 N.2       2 ALA2        0.0000 
     43 OG        -11.3642    1.0855    7.0765 O.2       1 SER1        0.0000 
     44 CA        -12.8091    1.1723    7.4700 C.3       4 GLY6        0.0000 
     45 N         -14.2539    1.2592    7.8635 N.2       2 ALA2        0.0000 
     46 CZ        -10.1997   -0.2704    5.9339 C.ar      3 PHE5        0.0000 
     47 CZ        -11.6445   -0.1835    6.3274 C.ar      3 PHE5        0.0000 
     48 CZ        -11.3983    5.4533   11.7047 C.ar      3 PHE5        0.0000 
     49 CA        -10.2337    4.0974   10.5622 C.3       4 GLY6        0.0000 
     50 CZ        -11.6786    4.1843   10.9557 C.ar      3 PHE5        0.0000 
     51 N         -10.5140    2.8284    9.8131 N.2       2 ALA2        0.0000 
     52 CZ        -11.9589    2.9153   10.2067 C.ar      3 PHE5        0.0000 
     53 N         -10.7944    1.5594    9.0641 N.2       2 ALA2        0.0000 
     54 N         -12.2392    1.6463    9.4576 N.2       2 ALA2        0.0000 
     55 CA        -13.6841    1.7332    9.8511 C.3       4 GLY6        0.0000 
     56 N          -9.6298    0.2035    7.9215 N.2       2 ALA2        0.0000 
     57 OG        -11.0747    0.2904    8.3150 O.2       1 SER1        0.0000 
     58 CA        -12.5195    0.3773    8.7086 C.3       4 GLY6        0.0000 
     59 CZ        -12.5536    4.7451   13.3368 C.ar      3 PHE5        0.0000 
     60 CA         -9.9442    3.3024   11.8008 C.3       4 GLY6        0.0000 
     61 CA        -11.3891    3.3893   12.1943 C.3       4 GLY6        0.0000 
     62 CZ        -12.8339    3.4761   12.5878 C.ar      3 PHE5        0.0000 
     63 N         -10.2245    2.0334   11.0517 N.2       2 ALA2        0.0000 
     64 N         -11.6694    2.1203   11.4452 N.2       2 ALA2        0.0000 
     65 CA        -13.1142    2.2071   11.8387 C.3       4 GLY6        0.0000 
     66 N         -10.5048    0.7644   10.3027 N.2       2 ALA2        0.0000 
     67 CA        -12.2641    3.9501   14.5754 C.3       4 GLY6        0.0000 
     68 CZ        -13.7089    4.0370   14.9689 C.ar      3 PHE5        0.0000 
     69 N         -11.0995    2.5942   13.4328 N.2       2 ALA2        0.0000 
     70 CZ        -12.5444    2.6811   13.8264 C.ar      3 PHE5        0.0000 
     71 O         -11.3798    1.3252   12.6838 O.2       2 ALA2        0.0000 
     72 N         -12.8247    1.4121   13.0773 N.2       2 ALA2        0.0000 
     73 OG        -12.2548    1.8860   15.0649 O.2       1 SER1        0.0000 
@<TRIPOS>BOND
@<TRIPOS>SUBSTRUCTURE
     1 SER1       43 GROUP   
     2 ALA2        1 GROUP   
     3 PHE5       14 GROUP   
     4 GLY6        2 GROUP   
     5 CUB7       10 GROUP   
@<TRIPOS>SET

