#    Name: 4j21_AJ6_1_INTS_M
#    Modification time : Tue Mar 25 05:14:23 2014

@<TRIPOS>MOLECULE
4j21_AJ6_1_INTS_M
   40     0     9     0     0
SMALL
NO_CHARGES


@<TRIPOS>ATOM
      1 CA        -14.1535    3.4425   13.8490 C.3       3 GLC5        0.0000 
      2 CA        -12.4580    3.2350   14.6730 C.3       9 GLL5        0.0000 
      3 CA        -15.8490    3.6500   13.0250 C.3       6 GLP5        0.0000 
      4 N         -12.8025   -0.5010   14.6465 N.am      2 SEC2        0.0000 
      5 N         -12.6530    0.9230   15.0080 N.am      8 SEL2        0.0000 
      6 N         -12.9520   -1.9250   14.2850 N.am      5 SEP2        0.0000 
      7 N         -13.0550    0.4860   16.2715 N.am      2 SEC2        0.0000 
      8 N         -13.4570    0.0490   17.5350 N.am      5 SEP2        0.0000 
      9 O         -12.7515    0.3620   12.2805 O.2       1 ALC1        0.0000 
     10 O         -12.2920    1.5530   12.8830 O.2       7 ALL1        0.0000 
     11 O         -13.2110   -0.8290   11.6780 O.2       4 ALP1        0.0000 
     12 CA        -13.7630   -0.5580    8.8520 C.3       3 GLC5        0.0000 
     13 CA        -13.9790    1.4080    8.1850 C.3       9 GLL5        0.0000 
     14 CA        -13.5470   -2.5240    9.5190 C.3       6 GLP5        0.0000 
     15 CA        -14.3660   -0.2410    7.4960 C.3       3 GLC5        0.0000 
     16 CA        -14.7530   -1.8900    6.8070 C.3       6 GLP5        0.0000 
     17 CA        -14.8045    1.5270    9.8260 C.3       3 GLC5        0.0000 
     18 CA        -15.6300    1.6460   11.4670 C.3       6 GLP5        0.0000 
     19 CA        -15.6760    1.2380    7.2535 C.3       3 GLC5        0.0000 
     20 CA        -17.3730    1.0680    6.3220 C.3       6 GLP5        0.0000 
     21 CA        -13.8240    3.4360    7.5735 C.3       3 GLC5        0.0000 
     22 CA        -13.6690    5.4640    6.9620 C.3       6 GLP5        0.0000 
     23 CA         -9.3090    4.9315    7.1760 C.3       3 GLC5        0.0000 
     24 CA        -10.4410    3.4030    7.5190 C.3       9 GLL5        0.0000 
     25 CA         -8.2830    6.5800    7.5040 C.3       6 GLP5        0.0000 
     26 CA        -10.4040    5.7420    9.7780 C.3       3 GLC5        0.0000 
     27 CA        -11.7290    4.5470   10.0440 C.3       9 GLL5        0.0000 
     28 CA         -8.9930    6.7560    8.8490 C.3       6 GLP5        0.0000 
     29 CA        -10.4627    4.5936   12.7933 C.3       3 GLC5        0.0000 
     30 CA        -11.9010    4.9090   11.3700 C.3       9 GLL5        0.0000 
     31 CA         -8.9280    5.1140   13.8210 C.3       6 GLP5        0.0000 
     32 CA        -14.0545    5.0373   13.6692 C.3       3 GLC5        0.0000 
     33 CA        -12.2830    4.2770   13.8120 C.3       9 GLL5        0.0000 
     34 CA        -15.8040    5.0620   13.2590 C.3       6 GLP5        0.0000 
     35 CA        -10.6547    4.6189   14.0986 C.3       3 GLC5        0.0000 
     36 CA        -13.8208    2.1844   11.4255 C.3       3 GLC5        0.0000 
     37 CA        -12.0880    3.9300   12.3750 C.3       9 GLL5        0.0000 
     38 CA        -12.6866    4.6309    8.2188 C.3       3 GLC5        0.0000 
     39 CA        -11.7770    3.2110    9.6340 C.3       9 GLL5        0.0000 
     40 CA        -12.6247    3.9351    6.7171 C.3       3 GLC5        0.0000 
@<TRIPOS>BOND
@<TRIPOS>SUBSTRUCTURE
     1 ALC1        9 GROUP        1 X    ALC  0     ROOT ALC X 1
     2 SEC2        4 GROUP        1 X    SEC  0     **** SEC X 2
     3 GLC5        1 GROUP        1 X    GLC  0     **** GLC X 6
     4 ALP1       11 GROUP        1 Y    ALP  0     ROOT ALP Y 8
     5 SEP2        6 GROUP        1 Y    SEP  0     **** SEP Y 9
     6 GLP5        3 GROUP        1 Y    GLP  0     **** GLP Y 13
     7 ALL1       10 GROUP        1 Z    ALL  0     ROOT ALL Z 15
     8 SEL2        5 GROUP        1 Z    SEL  0     **** SEL Z 16
     9 GLL5        2 GROUP        1 Z    GLL  0     **** GLL Z 20
@<TRIPOS>SET

