#    Name: 4j21_AJ6_1_ligand
#    Modification time : Tue Mar 25 05:14:23 2014

@<TRIPOS>MOLECULE
4j21_AJ6_1_ligand
   33    35     1     0     0
SMALL
NO_CHARGES


@<TRIPOS>ATOM
      1 C4        -12.4600    1.8530   14.2040 C.2       1 AJ61204     0.0000 
      2 C8        -12.1000    2.5450   11.9470 C.ar      1 AJ61204     0.0000 
      3 C10       -11.7770    3.2110    9.6340 C.ar      1 AJ61204     0.0000 
      4 C13       -10.2290    3.1630    6.1770 C.ar      1 AJ61204     0.0000 
      5 C17       -12.5250    2.0800    7.4540 C.ar      1 AJ61204     0.0000 
      6 C20       -11.9010    4.9090   11.3700 C.ar      1 AJ61204     0.0000 
      7 C21       -12.0880    3.9300   12.3750 C.ar      1 AJ61204     0.0000 
      8 C1        -12.3270    5.7480   14.3470 C.3       1 AJ61204     0.0000 
      9 C2        -12.2830    4.2770   13.8120 C.2       1 AJ61204     0.0000 
     10 C3        -12.4580    3.2350   14.6730 C.2       1 AJ61204     0.0000 
     11 O5        -12.6530    0.9230   15.0080 O.2       1 AJ61204     0.0000 
     12 N6        -12.2920    1.5530   12.8830 N.am      1 AJ61204     0.0000 
     13 C9        -11.9290    2.2080   10.6070 C.ar      1 AJ61204     0.0000 
     14 C11       -11.5820    2.8860    8.1800 C.ar      1 AJ61204     0.0000 
     15 C12       -10.4410    3.4030    7.5190 C.ar      1 AJ61204     0.0000 
     16 C14       -11.1640    2.4040    5.4830 C.ar      1 AJ61204     0.0000 
     17 N15       -10.9630    2.1650    4.1270 N.pl3     1 AJ61204     0.0000 
     18 C16       -12.2980    1.8580    6.1040 C.ar      1 AJ61204     0.0000 
     19 CL        -13.9790    1.4080    8.1850 Cl        1 AJ61204     0.0000 
     20 C19       -11.7290    4.5470   10.0440 C.ar      1 AJ61204     0.0000 
     21 H          -9.4063    3.5321    5.7006 H         1 AJ61204     0.0000 
     22 H         -11.8947    5.9046   11.6427 H         1 AJ61204     0.0000 
     23 H         -12.5952    3.3832   15.6854 H         1 AJ61204     0.0000 
     24 H         -12.3084    0.5582   12.5720 H         1 AJ61204     0.0000 
     25 H         -11.9129    1.2200   10.3211 H         1 AJ61204     0.0000 
     26 H          -9.7676    3.9657    8.0633 H         1 AJ61204     0.0000 
     27 H         -10.1517    2.5862    3.7215 H         1 AJ61204     0.0000 
     28 H         -11.6471    1.5927    3.6749 H         1 AJ61204     0.0000 
     29 H         -12.9558    1.2947    5.5518 H         1 AJ61204     0.0000 
     30 H         -11.5594    5.2843    9.3302 H         1 AJ61204     0.0000 
     31 H         -11.4787    6.2400   14.1510 H         1 AJ61204     0.0000 
     32 H         -13.0718    6.2716   13.9332 H         1 AJ61204     0.0000 
     33 H         -12.4618    5.7791   15.3374 H         1 AJ61204     0.0000 
@<TRIPOS>BOND
     1   10    1 1    
     2   11    1 2    
     3   12    1 am   
     4    7    2 ar   
     5   12    2 1    
     6   13    2 ar   
     7   13    3 ar   
     8   14    3 1    
     9   20    3 ar   
    10   15    4 ar   
    11   16    4 ar   
    12   21    4 1    
    13   14    5 ar   
    14   18    5 ar   
    15   19    5 1    
    16    7    6 ar   
    17   20    6 ar   
    18   22    6 1    
    19    9    7 1    
    20    9    8 1    
    21   31    8 1    
    22   32    8 1    
    23   33    8 1    
    24   10    9 2    
    25   23   10 1    
    26   24   12 1    
    27   25   13 1    
    28   15   14 ar   
    29   26   15 1    
    30   17   16 1    
    31   18   16 ar   
    32   27   17 1    
    33   28   17 1    
    34   29   18 1    
    35   30   20 1    
@<TRIPOS>SUBSTRUCTURE
     1 AJ61204     1 GROUP   
@<TRIPOS>SET

