#    Name: 3uyt_0CK_4_INTS_M
#    Modification time : Mon Mar 24 23:45:43 2014

@<TRIPOS>MOLECULE
3uyt_0CK_4_INTS_M
   80     0     9     0     0
SMALL
NO_CHARGES


@<TRIPOS>ATOM
      1 CA         20.0085   20.0175   48.3180 C.3       3 GLC5        0.0000 
      2 CA         21.2780   18.7100   49.0700 C.3       9 GLL5        0.0000 
      3 CA         18.7390   21.3250   47.5660 C.3       6 GLP5        0.0000 
      4 CA         20.6465   21.0670   51.5445 C.3       3 GLC5        0.0000 
      5 CA         20.7420   19.7040   49.9220 C.3       9 GLL5        0.0000 
      6 CA         20.5510   22.4300   53.1670 C.3       6 GLP5        0.0000 
      7 CA         19.5905   20.8130   49.4310 C.3       3 GLC5        0.0000 
      8 CA         18.4390   21.9220   48.9400 C.3       6 GLP5        0.0000 
      9 N          19.3945   20.3745   51.4660 N.am      2 SEC2        0.0000 
     10 N          20.0450   19.3170   51.0240 N.am      8 SEL2        0.0000 
     11 N          18.7440   21.4320   51.9080 N.am      5 SEP2        0.0000 
     12 CA         20.5670   16.5300   52.7495 C.3       3 GLC5        0.0000 
     13 CA         19.8520   17.9780   51.3210 C.3       9 GLL5        0.0000 
     14 CA         21.2820   15.0820   54.1780 C.3       6 GLP5        0.0000 
     15 CA         21.6230   18.8240   51.6520 C.3       3 GLC5        0.0000 
     16 CA         23.3940   19.6700   51.9830 C.3       6 GLP5        0.0000 
     17 CA         20.0255   18.8225   52.9640 C.3       3 GLC5        0.0000 
     18 CA         20.1990   19.6670   54.6070 C.3       6 GLP5        0.0000 
     19 CA         18.7220   19.4700   50.5535 C.3       3 GLC5        0.0000 
     20 CA         17.5920   20.9620   49.7860 C.3       6 GLP5        0.0000 
     21 CA         18.7255   17.5935   49.7870 C.3       3 GLC5        0.0000 
     22 CA         17.5990   17.2090   48.2530 C.3       6 GLP5        0.0000 
     23 CA         22.6050   16.4700   50.3425 C.3       3 GLC5        0.0000 
     24 CA         21.0800   17.2970   49.3850 C.3       9 GLL5        0.0000 
     25 CA         24.1300   15.6430   51.3000 C.3       6 GLP5        0.0000 
     26 O          18.0580   18.6585   52.6460 O.2       1 ALC1        0.0000 
     27 O          19.1190   17.6630   52.4030 O.2       7 ALL1        0.0000 
     28 O          16.9970   19.6540   52.8890 O.2       4 ALP1        0.0000 
     29 CA         18.7190   15.8050   48.5860 C.3       3 GLC5        0.0000 
     30 CA         19.8390   14.4010   48.9190 C.3       9 GLL5        0.0000 
     31 CA         20.7070   14.3165   52.1745 C.3       3 GLC5        0.0000 
     32 CA         20.1320   13.5510   50.1710 C.3       9 GLL5        0.0000 
     33 CA         22.2805   13.8735   50.5630 C.3       3 GLC5        0.0000 
     34 CA         24.4290   14.1960   50.9550 C.3       6 GLP5        0.0000 
     35 CA         15.8075   13.1735   47.9880 C.3       3 GLC5        0.0000 
     36 CA         17.6710   13.1260   48.6170 C.3       9 GLL5        0.0000 
     37 CA         13.9440   13.2210   47.3590 C.3       6 GLP5        0.0000 
     38 CA         25.7070   16.6545   48.8165 C.3       3 GLC5        0.0000 
     39 CA         25.7000   18.7580   48.8980 C.3       9 GLL5        0.0000 
     40 CA         25.7140   14.5510   48.7350 C.3       6 GLP5        0.0000 
     41 CA         26.8265   18.8170   50.7465 C.3       3 GLC5        0.0000 
     42 CA         27.9530   18.8760   52.5950 C.3       6 GLP5        0.0000 
     43 CA         25.4115   20.7740   48.8310 C.3       3 GLC5        0.0000 
     44 CA         25.1230   22.7900   48.7640 C.3       6 GLP5        0.0000 
     45 CA         24.3740   16.7105   50.0690 C.3       3 GLC5        0.0000 
     46 CA         24.6180   17.7780   48.8380 C.3       9 GLL5        0.0000 
     47 CA         27.9405   18.6105   47.9910 C.3       3 GLC5        0.0000 
     48 CA         27.1480   20.1890   47.7170 C.3       9 GLL5        0.0000 
     49 CA         28.7330   17.0320   48.2650 C.3       6 GLP5        0.0000 
     50 CA         26.1355   21.4895   48.2405 C.3       3 GLC5        0.0000 
     51 CA         23.3855   15.0943   48.7532 C.3       3 GLC5        0.0000 
     52 CA         22.8830   16.2760   47.6430 C.3       9 GLL5        0.0000 
     53 CA         24.5110   13.9410   49.4390 C.3       6 GLP5        0.0000 
     54 CA         19.4788   16.9835   48.5958 C.3       3 GLC5        0.0000 
     55 CA         21.6370   16.2190   48.4920 C.3       9 GLL5        0.0000 
     56 CA         21.1185   16.1953   46.5787 C.3       3 GLC5        0.0000 
     57 CA         19.9770   16.1430   45.0900 C.3       6 GLP5        0.0000 
     58 CA         22.1320   20.4160   48.3390 C.3       3 GLC5        0.0000 
     59 CA         23.2540   21.6250   47.1820 C.3       6 GLP5        0.0000 
     60 CA         19.3045   18.2080   48.8745 C.3       3 GLC5        0.0000 
     61 CA         22.2195   18.9610   50.7117 C.3       3 GLC5        0.0000 
     62 CA         17.4825   14.7455   47.2445 C.3       3 GLC5        0.0000 
     63 CA         18.9490   13.6020   47.9730 C.3       9 GLL5        0.0000 
     64 CA         16.6550   16.1270   46.1940 C.3       6 GLP5        0.0000 
     65 CA         19.6855   15.0723   46.7680 C.3       3 GLC5        0.0000 
     66 CA         20.6382   11.5793   51.1423 C.3       3 GLC5        0.0000 
     67 CA         21.7520    9.9380   51.7880 C.3       6 GLP5        0.0000 
     68 CA         24.2765   18.9690   50.4255 C.3       3 GLC5        0.0000 
     69 CA         25.1493   20.5820   46.4393 C.3       3 GLC5        0.0000 
     70 CA         25.5470   18.8920   46.3460 C.3       9 GLL5        0.0000 
     71 CA         24.4540   22.0700   45.8880 C.3       6 GLP5        0.0000 
     72 CA         26.6100   17.2855   46.1430 C.3       3 GLC5        0.0000 
     73 CA         28.2140   16.1710   45.9490 C.3       6 GLP5        0.0000 
     74 CA         24.9718   16.0875   47.8425 C.3       3 GLC5        0.0000 
     75 CA         24.4650   17.9080   46.3280 C.3       9 GLL5        0.0000 
     76 CA         27.0012   17.7172   48.4086 C.3       3 GLC5        0.0000 
     77 CA         23.8389   19.6630   47.5380 C.3       3 GLC5        0.0000 
     78 CA         27.8311   19.7537   46.0839 C.3       3 GLC5        0.0000 
     79 CA         26.1420   19.2960   47.6350 C.3       9 GLL5        0.0000 
     80 CA         29.1660   19.8660   44.8140 C.3       6 GLP5        0.0000 
@<TRIPOS>BOND
@<TRIPOS>SUBSTRUCTURE
     1 ALC1       26 GROUP        1 X    ALC  0     ROOT ALC X 1
     2 SEC2        9 GROUP        1 X    SEC  0     **** SEC X 2
     3 GLC5        1 GROUP        1 X    GLC  0     **** GLC X 6
     4 ALP1       28 GROUP        1 Y    ALP  0     ROOT ALP Y 8
     5 SEP2       11 GROUP        1 Y    SEP  0     **** SEP Y 9
     6 GLP5        3 GROUP        1 Y    GLP  0     **** GLP Y 13
     7 ALL1       27 GROUP        1 Z    ALL  0     ROOT ALL Z 15
     8 SEL2       10 GROUP        1 Z    SEL  0     **** SEL Z 16
     9 GLL5        2 GROUP        1 Z    GLL  0     **** GLL Z 20
@<TRIPOS>SET

