#    Name: 3uyt_0CK_4_ligand
#    Modification time : Mon Mar 24 23:45:44 2014

@<TRIPOS>MOLECULE
3uyt_0CK_4_ligand
   45    48     1     0     0
SMALL
NO_CHARGES


@<TRIPOS>ATOM
      1 C7         21.6370   16.2190   48.4920 C.2       1 0CK295      0.0000 
      2 N2         21.0310   15.0100   48.2920 N.pl3     1 0CK295      0.0000 
      3 C8         21.8320   14.3990   47.3810 C.2       1 0CK295      0.0000 
      4 N3         22.9280   15.1020   46.9640 N.2       1 0CK295      0.0000 
      5 C9         22.8830   16.2760   47.6430 C.2       1 0CK295      0.0000 
      6 C10        21.2780   18.7100   49.0700 C.ar      1 0CK295      0.0000 
      7 C11        20.7420   19.7040   49.9220 C.ar      1 0CK295      0.0000 
      8 N4         20.0450   19.3170   51.0240 N.ar      1 0CK295      0.0000 
      9 C12        19.8520   17.9780   51.3210 C.ar      1 0CK295      0.0000 
     10 N5         20.3470   16.9730   50.5420 N.ar      1 0CK295      0.0000 
     11 C13        21.0800   17.2970   49.3850 C.ar      1 0CK295      0.0000 
     12 N1         19.1190   17.6630   52.4030 N.pl3     1 0CK295      0.0000 
     13 C14        18.9490   13.6020   47.9730 C.3       1 0CK295      0.0000 
     14 C15        19.8390   14.4010   48.9190 C.3       1 0CK295      0.0000 
     15 C16        20.1320   13.5510   50.1710 C.3       1 0CK295      0.0000 
     16 C17        18.9170   12.8900   50.8220 C.3       1 0CK295      0.0000 
     17 C18        17.9780   12.2240   49.8120 C.3       1 0CK295      0.0000 
     18 C19        17.6710   13.1260   48.6170 C.3       1 0CK295      0.0000 
     19 C1         25.7000   18.7580   48.8980 C.ar      1 0CK295      0.0000 
     20 C2         26.1420   19.2960   47.6350 C.ar      1 0CK295      0.0000 
     21 C3         25.5470   18.8920   46.3460 C.ar      1 0CK295      0.0000 
     22 C4         24.4650   17.9080   46.3280 C.ar      1 0CK295      0.0000 
     23 C5         23.9940   17.3400   47.5720 C.ar      1 0CK295      0.0000 
     24 C6         24.6180   17.7780   48.8380 C.ar      1 0CK295      0.0000 
     25 F1         27.1480   20.1890   47.7170 F         1 0CK295      0.0000 
     26 H          21.6316   13.4708   47.0263 H         1 0CK295      0.0000 
     27 H          21.8006   18.9560   48.2391 H         1 0CK295      0.0000 
     28 H          20.8895   20.6882   49.6919 H         1 0CK295      0.0000 
     29 H          18.7976   18.4318   52.9558 H         1 0CK295      0.0000 
     30 H          18.9605   16.6880   52.5585 H         1 0CK295      0.0000 
     31 H          19.5168   12.7342   47.6008 H         1 0CK295      0.0000 
     32 H          18.7076   14.2289   47.0997 H         1 0CK295      0.0000 
     33 H          19.1772   15.2468   49.2995 H         1 0CK295      0.0000 
     34 H          20.6357   14.1938   50.9205 H         1 0CK295      0.0000 
     35 H          20.8646   12.7654   49.8972 H         1 0CK295      0.0000 
     36 H          18.3552   13.6480   51.3849 H         1 0CK295      0.0000 
     37 H          19.2623   12.1337   51.5402 H         1 0CK295      0.0000 
     38 H          17.0406   11.9626   50.3147 H         1 0CK295      0.0000 
     39 H          18.4390   11.2974   49.4534 H         1 0CK295      0.0000 
     40 H          17.0799   12.5660   47.8933 H         1 0CK295      0.0000 
     41 H          17.0898   13.9815   48.9592 H         1 0CK295      0.0000 
     42 H          26.0969   19.0285   49.7526 H         1 0CK295      0.0000 
     43 H          25.8850   19.2912   45.4953 H         1 0CK295      0.0000 
     44 H          24.0560   17.6329   45.4529 H         1 0CK295      0.0000 
     45 H          24.2702   17.3707   49.7124 H         1 0CK295      0.0000 
@<TRIPOS>BOND
     1    2    1 1    
     2    5    1 2    
     3   11    1 1    
     4    3    2 1    
     5   14    2 1    
     6    4    3 2    
     7   26    3 1    
     8    5    4 1    
     9   23    5 1    
    10    7    6 ar   
    11   11    6 ar   
    12   27    6 1    
    13    8    7 ar   
    14   28    7 1    
    15    9    8 ar   
    16   10    9 ar   
    17   12    9 1    
    18   11   10 ar   
    19   29   12 1    
    20   30   12 1    
    21   14   13 1    
    22   18   13 1    
    23   31   13 1    
    24   32   13 1    
    25   15   14 1    
    26   33   14 1    
    27   16   15 1    
    28   34   15 1    
    29   35   15 1    
    30   17   16 1    
    31   36   16 1    
    32   37   16 1    
    33   18   17 1    
    34   38   17 1    
    35   39   17 1    
    36   40   18 1    
    37   41   18 1    
    38   20   19 ar   
    39   24   19 ar   
    40   42   19 1    
    41   21   20 ar   
    42   25   20 1    
    43   22   21 ar   
    44   43   21 1    
    45   23   22 ar   
    46   44   22 1    
    47   24   23 ar   
    48   45   24 1    
@<TRIPOS>SUBSTRUCTURE
     1 0CK295      1 GROUP   
@<TRIPOS>SET

