#    Name: 2oi6_UD1_2_INTS_M
#    Modification time : Tue Mar 25 22:43:16 2014

@<TRIPOS>MOLECULE
2oi6_UD1_2_INTS_M
   88     0     9     0     0
SMALL
NO_CHARGES


@<TRIPOS>ATOM
      1 CA        -15.4375   34.6545  129.5470 C.3       3 GLC5        0.0000 
      2 CA        -14.0720   33.7730  128.0850 C.3       9 GLL5        0.0000 
      3 CA        -16.8030   35.5360  131.0090 C.3       6 GLP5        0.0000 
      4 CA        -16.3230   33.2750  125.3825 C.3       3 GLC5        0.0000 
      5 CA        -14.7730   33.7070  126.7000 C.3       9 GLL5        0.0000 
      6 CA        -17.8730   32.8430  124.0650 C.3       6 GLP5        0.0000 
      7 CA        -13.6020   35.1280  123.7270 C.3       3 GLC5        0.0000 
      8 CA        -14.0710   34.6740  125.7330 C.3       9 GLL5        0.0000 
      9 CA        -13.1330   35.5820  121.7210 C.3       6 GLP5        0.0000 
     10 CA        -15.3320   36.9150  124.9060 C.3       3 GLC5        0.0000 
     11 CA        -14.1000   36.0650  126.2960 C.3       9 GLL5        0.0000 
     12 CA        -16.5640   37.7650  123.5160 C.3       6 GLP5        0.0000 
     13 CA        -14.5945   36.9070  129.9245 C.3       3 GLC5        0.0000 
     14 CA        -13.3930   37.4270  128.3700 C.3       9 GLL5        0.0000 
     15 CA        -15.7960   36.3870  131.4790 C.3       6 GLP5        0.0000 
     16 CA        -14.4995   30.2730  124.1215 C.3       3 GLC5        0.0000 
     17 CA        -15.5060   30.0890  125.8450 C.3       9 GLL5        0.0000 
     18 CA        -13.4930   30.4570  122.3980 C.3       6 GLP5        0.0000 
     19 CA        -15.3370   28.3990  125.2150 C.3       3 GLC5        0.0000 
     20 CA        -15.1680   26.7090  124.5850 C.3       6 GLP5        0.0000 
     21 CA        -16.6895   31.4660  124.9550 C.3       3 GLC5        0.0000 
     22 O         -13.7895   32.0915  125.1945 O.2       1 ALC1        0.0000 
     23 O         -14.7470   32.3300  126.1450 O.2       7 ALL1        0.0000 
     24 O         -12.8320   31.8530  124.2440 O.2       4 ALP1        0.0000 
     25 O         -14.5900   32.4790  124.5485 O.2       1 ALC1        0.0000 
     26 O         -14.4330   32.6280  122.9520 O.2       4 ALP1        0.0000 
     27 N         -16.1155   35.3530  124.7655 N.am      2 SEC2        0.0000 
     28 N         -14.7710   34.6130  124.4820 N.am      8 SEL2        0.0000 
     29 N         -17.4600   36.0930  125.0490 N.am      5 SEP2        0.0000 
     30 O         -13.8015   33.2330  124.3630 O.2       1 ALC1        0.0000 
     31 O         -14.7710   34.6130  124.4820 O.2       7 ALL1        0.0000 
     32 O         -14.6020   33.6205  123.7170 O.2       1 ALC1        0.0000 
     33 N         -12.8355   36.4935  124.0955 N.am      2 SEC2        0.0000 
     34 N         -13.4290   36.9520  125.3920 N.am      8 SEL2        0.0000 
     35 N         -12.2420   36.0350  122.7990 N.am      5 SEP2        0.0000 
     36 O         -14.1420   38.0275  125.4350 O.2       1 ALC1        0.0000 
     37 O         -13.4290   36.9520  125.3920 O.2       7 ALL1        0.0000 
     38 O         -14.8550   39.1030  125.4780 O.2       4 ALP1        0.0000 
     39 N         -15.3745   35.0570  129.1555 N.am      2 SEC2        0.0000 
     40 N         -14.0470   35.0950  128.5760 N.am      8 SEL2        0.0000 
     41 N         -16.7020   35.0190  129.7350 N.am      5 SEP2        0.0000 
     42 N         -17.0855   30.6560  128.0105 N.am      2 SEC2        0.0000 
     43 N         -16.4540   31.6200  127.4070 N.am      8 SEL2        0.0000 
     44 N         -17.7170   29.6920  128.6140 N.am      5 SEP2        0.0000 
     45 O         -17.0000   26.7585  135.8170 O.2       1 ALC1        0.0000 
     46 O         -16.2980   27.7500  135.0660 O.2       7 ALL1        0.0000 
     47 O         -17.7020   25.7670  136.5680 O.2       4 ALP1        0.0000 
     48 CA        -15.3630   26.8430  131.7815 C.3       3 GLC5        0.0000 
     49 CA        -14.7860   28.1470  133.1770 C.3       9 GLL5        0.0000 
     50 CA        -15.9400   25.5390  130.3860 C.3       6 GLP5        0.0000 
     51 N         -16.8685   29.6965  137.7745 N.am      2 SEC2        0.0000 
     52 N         -17.0400   29.4660  136.3340 N.am      8 SEL2        0.0000 
     53 N         -16.6970   29.9270  139.2150 N.am      5 SEP2        0.0000 
     54 N         -16.8535   25.2555  134.2885 N.am      2 SEC2        0.0000 
     55 N         -15.5770   26.0200  133.8200 N.am      8 SEL2        0.0000 
     56 N         -18.1300   24.4910  134.7570 N.am      5 SEP2        0.0000 
     57 N         -15.6275   25.2220  132.5535 N.am      2 SEC2        0.0000 
     58 N         -15.6780   24.4240  131.2870 N.am      5 SEP2        0.0000 
     59 CA        -17.5330   31.7720  135.1715 C.3       3 GLC5        0.0000 
     60 CA        -15.6400   31.4130  134.9110 C.3       9 GLL5        0.0000 
     61 CA        -19.4260   32.1310  135.4320 C.3       6 GLP5        0.0000 
     62 CA        -16.2635   31.0590  132.7995 C.3       3 GLC5        0.0000 
     63 CA        -16.8870   30.7050  130.6880 C.3       6 GLP5        0.0000 
     64 CA        -13.5785   30.5895  136.6455 C.3       3 GLC5        0.0000 
     65 CA        -14.3230   32.0150  135.4720 C.3       9 GLL5        0.0000 
     66 CA        -12.8340   29.1640  137.8190 C.3       6 GLP5        0.0000 
     67 N         -14.2260   30.5535  137.6125 N.am      2 SEC2        0.0000 
     68 N         -14.2620   31.8080  136.8920 N.am      8 SEL2        0.0000 
     69 N         -14.1900   29.2990  138.3330 N.am      5 SEP2        0.0000 
     70 CA        -15.7145   35.0750  134.2985 C.3       3 GLC5        0.0000 
     71 CA        -14.4160   33.4820  135.0060 C.3       9 GLL5        0.0000 
     72 CA        -17.0130   36.6680  133.5910 C.3       6 GLP5        0.0000 
     73 CA        -16.6315   34.5765  133.3950 C.3       3 GLC5        0.0000 
     74 CA        -15.2640   33.3440  133.7080 C.3       9 GLL5        0.0000 
     75 CA        -17.9990   35.8090  133.0820 C.3       6 GLP5        0.0000 
     76 O         -14.5710   35.6740  136.1945 O.2       1 ALC1        0.0000 
     77 O         -15.1950   34.2420  135.9400 O.2       7 ALL1        0.0000 
     78 O         -13.9470   37.1060  136.4490 O.2       4 ALP1        0.0000 
     79 CA        -15.1115   34.8175  131.9515 C.3       3 GLC5        0.0000 
     80 CA        -14.4270   33.2480  132.4240 C.3       9 GLL5        0.0000 
     81 N         -10.9380   34.1830  133.7220 N.am      2 SEC2        0.0000 
     82 N         -11.2260   33.5070  132.5260 N.am      8 SEL2        0.0000 
     83 N         -10.6500   34.8590  134.9180 N.am      5 SEP2        0.0000 
     84 CA        -11.8040   37.5595  127.2895 C.3       3 GLC5        0.0000 
     85 CA        -10.2350   38.3810  126.5490 C.3       6 GLP5        0.0000 
     86 CA        -15.8380   29.7585  132.0005 C.3       3 GLC5        0.0000 
     87 CA        -14.7920   29.4770  133.4490 C.3       9 GLL5        0.0000 
     88 CA        -15.8662   32.0005  131.8770 C.3       3 GLC5        0.0000 
@<TRIPOS>BOND
@<TRIPOS>SUBSTRUCTURE
     1 ALC1       22 GROUP        1 X    ALC  0     ROOT ALC X 1
     2 SEC2       27 GROUP        1 X    SEC  0     **** SEC X 2
     3 GLC5        1 GROUP        1 X    GLC  0     **** GLC X 6
     4 ALP1       24 GROUP        1 Y    ALP  0     ROOT ALP Y 8
     5 SEP2       29 GROUP        1 Y    SEP  0     **** SEP Y 9
     6 GLP5        3 GROUP        1 Y    GLP  0     **** GLP Y 13
     7 ALL1       23 GROUP        1 Z    ALL  0     ROOT ALL Z 15
     8 SEL2       28 GROUP        1 Z    SEL  0     **** SEL Z 16
     9 GLL5        2 GROUP        1 Z    GLL  0     **** GLL Z 20
@<TRIPOS>SET

