#    Name: 2oi6_UD1_2_ligand
#    Modification time : Tue Mar 25 22:43:16 2014

@<TRIPOS>MOLECULE
2oi6_UD1_2_ligand
   64    66     1     0     0
SMALL
NO_CHARGES


@<TRIPOS>ATOM
      1 C1'       -14.0720   33.7730  128.0850 C.3       1 UD14000     0.0000 
      2 C2'       -14.7730   33.7070  126.7000 C.3       1 UD14000     0.0000 
      3 C3'       -14.0710   34.6740  125.7330 C.3       1 UD14000     0.0000 
      4 C4'       -14.1000   36.0650  126.2960 C.3       1 UD14000     0.0000 
      5 C5'       -13.3530   36.0490  127.6900 C.3       1 UD14000     0.0000 
      6 C6'       -13.3930   37.4270  128.3700 C.3       1 UD14000     0.0000 
      7 C7'       -15.6070   31.4280  126.5380 C.2       1 UD14000     0.0000 
      8 C8'       -15.5060   30.0890  125.8450 C.3       1 UD14000     0.0000 
      9 N2'       -14.7470   32.3300  126.1450 N.am      1 UD14000     0.0000 
     10 O1'       -12.7320   33.3140  127.9650 O.3       1 UD14000     0.0000 
     11 O3'       -14.7710   34.6130  124.4820 O.3       1 UD14000     0.0000 
     12 O4'       -13.4290   36.9520  125.3920 O.3       1 UD14000     0.0000 
     13 O5'       -14.0470   35.0950  128.5760 O.3       1 UD14000     0.0000 
     14 O6'       -12.7230   37.3270  129.6090 O.3       1 UD14000     0.0000 
     15 O7'       -16.4540   31.6200  127.4070 O.2       1 UD14000     0.0000 
     16 N1        -15.5980   29.9860  134.5970 N.am      1 UD14000     0.0000 
     17 C2        -16.3590   29.1060  135.3800 C.2       1 UD14000     0.0000 
     18 N3        -16.2980   27.7500  135.0660 N.am      1 UD14000     0.0000 
     19 C4        -15.5890   27.2260  134.0300 C.2       1 UD14000     0.0000 
     20 C5        -14.7860   28.1470  133.1770 C.2       1 UD14000     0.0000 
     21 C6        -14.7920   29.4770  133.4490 C.2       1 UD14000     0.0000 
     22 O2        -17.0400   29.4660  136.3340 O.2       1 UD14000     0.0000 
     23 O4        -15.5770   26.0200  133.8200 O.2       1 UD14000     0.0000 
     24 C1B       -15.6400   31.4130  134.9110 C.3       1 UD14000     0.0000 
     25 C2B       -14.3230   32.0150  135.4720 C.3       1 UD14000     0.0000 
     26 O2'       -14.2620   31.8080  136.8920 O.3       1 UD14000     0.0000 
     27 C3B       -14.4160   33.4820  135.0060 C.3       1 UD14000     0.0000 
     28 C4B       -15.2640   33.3440  133.7080 C.3       1 UD14000     0.0000 
     29 O4B       -15.9480   32.1160  133.7680 O.3       1 UD14000     0.0000 
     30 O3B       -15.1950   34.2420  135.9400 O.3       1 UD14000     0.0000 
     31 C5B       -14.4270   33.2480  132.4240 C.3       1 UD14000     0.0000 
     32 O5B       -13.3690   32.2620  132.4960 O.3       1 UD14000     0.0000 
     33 PA        -11.9760   32.4630  131.8020 P.3       1 UD14000     0.0000 
     34 O1A       -11.2950   31.0900  131.8710 O.co2     1 UD14000     0.0000 
     35 O2A       -11.2260   33.5070  132.5260 O.co2     1 UD14000     0.0000 
     36 O3A       -12.2430   32.9460  130.4030 O.3       1 UD14000     0.0000 
     37 PB        -12.2440   32.2590  129.0160 P.3       1 UD14000     0.0000 
     38 O1B       -13.1450   31.1190  128.9970 O.co2     1 UD14000     0.0000 
     39 O2B       -10.8290   31.9990  128.6130 O.co2     1 UD14000     0.0000 
     40 H         -14.6327   33.1230  128.7495 H         1 UD14000     0.0000 
     41 H         -15.7905   34.0410  126.8264 H         1 UD14000     0.0000 
     42 H         -13.0552   34.3472  125.6266 H         1 UD14000     0.0000 
     43 H         -15.1071   36.3563  126.4795 H         1 UD14000     0.0000 
     44 H         -12.3490   35.7553  127.5318 H         1 UD14000     0.0000 
     45 H         -14.4420   37.7045  128.4841 H         1 UD14000     0.0000 
     46 H         -12.9164   38.1386  127.6941 H         1 UD14000     0.0000 
     47 H         -14.0062   32.1585  125.4397 H         1 UD14000     0.0000 
     48 H         -16.8511   27.0861  135.6902 H         1 UD14000     0.0000 
     49 H         -14.2621   27.7273  132.4177 H         1 UD14000     0.0000 
     50 H         -14.2747   30.1661  132.9140 H         1 UD14000     0.0000 
     51 H         -16.4090   31.5960  135.6779 H         1 UD14000     0.0000 
     52 H         -13.5284   31.5460  134.9303 H         1 UD14000     0.0000 
     53 H         -13.4975   33.8459  134.7745 H         1 UD14000     0.0000 
     54 H         -15.9306   34.1621  133.6308 H         1 UD14000     0.0000 
     55 H         -14.0155   34.2570  132.2183 H         1 UD14000     0.0000 
     56 H         -15.1218   33.0239  131.5894 H         1 UD14000     0.0000 
     57 H         -14.6076   29.6699  125.9759 H         1 UD14000     0.0000 
     58 H         -16.1849   29.4405  126.1892 H         1 UD14000     0.0000 
     59 H         -15.6510   30.1693  124.8588 H         1 UD14000     0.0000 
     60 H         -14.8820   33.6369  124.2950 H         1 UD14000     0.0000 
     61 H         -14.1500   37.5372  125.0208 H         1 UD14000     0.0000 
     62 H         -12.9765   38.1558  130.1078 H         1 UD14000     0.0000 
     63 H         -14.3753   32.7178  137.2911 H         1 UD14000     0.0000 
     64 H         -14.7152   35.1151  136.0270 H         1 UD14000     0.0000 
@<TRIPOS>BOND
     1    2    1 1    
     2   10    1 1    
     3   13    1 1    
     4   40    1 1    
     5    3    2 1    
     6    9    2 1    
     7   41    2 1    
     8    4    3 1    
     9   11    3 1    
    10   42    3 1    
    11    5    4 1    
    12   12    4 1    
    13   43    4 1    
    14    6    5 1    
    15   13    5 1    
    16   44    5 1    
    17   14    6 1    
    18   45    6 1    
    19   46    6 1    
    20    8    7 1    
    21    9    7 am   
    22   15    7 2    
    23   57    8 1    
    24   58    8 1    
    25   59    8 1    
    26   47    9 1    
    27   37   10 1    
    28   60   11 1    
    29   61   12 1    
    30   62   14 1    
    31   17   16 1    
    32   21   16 1    
    33   24   16 1    
    34   18   17 1    
    35   22   17 2    
    36   19   18 1    
    37   48   18 1    
    38   20   19 1    
    39   23   19 2    
    40   21   20 2    
    41   49   20 1    
    42   50   21 1    
    43   25   24 1    
    44   29   24 1    
    45   51   24 1    
    46   26   25 1    
    47   27   25 1    
    48   52   25 1    
    49   63   26 1    
    50   28   27 1    
    51   30   27 1    
    52   53   27 1    
    53   29   28 1    
    54   31   28 1    
    55   54   28 1    
    56   64   30 1    
    57   32   31 1    
    58   55   31 1    
    59   56   31 1    
    60   33   32 1    
    61   34   33 ar   
    62   35   33 ar   
    63   36   33 1    
    64   37   36 1    
    65   38   37 ar   
    66   39   37 ar   
@<TRIPOS>SUBSTRUCTURE
     1 UD14000     1 GROUP   
@<TRIPOS>SET

