#    Name: 3uml_ISJ_1_INTS_M
#    Modification time : Mon Mar 24 22:57:57 2014

@<TRIPOS>MOLECULE
3uml_ISJ_1_INTS_M
   23     0     9     0     0
SMALL
NO_CHARGES


@<TRIPOS>ATOM
      1 CA        -33.3225  -21.5270  -42.3710 C.3       3 GLC5        0.0000 
      2 CA        -34.9420  -20.3480  -42.1820 C.3       9 GLL5        0.0000 
      3 CA        -31.7030  -22.7060  -42.5600 C.3       6 GLP5        0.0000 
      4 CA        -38.8200  -21.5395  -43.5210 C.3       3 GLC5        0.0000 
      5 CA        -37.1770  -21.3910  -42.2500 C.3       9 GLL5        0.0000 
      6 CA        -40.4630  -21.6880  -44.7920 C.3       6 GLP5        0.0000 
      7 NZ        -35.2445  -16.8285  -38.6545 N.4       2 LYC4        0.0000 
      8 NZ        -35.0990  -17.4230  -40.2030 N.4       8 LYL4        0.0000 
      9 NZ        -35.3900  -16.2340  -37.1060 N.4       5 LYP4        0.0000 
     10 CA        -34.3670  -23.0110  -44.7470 C.3       3 GLC5        0.0000 
     11 CA        -35.2560  -23.6290  -42.8850 C.3       9 GLL5        0.0000 
     12 CA        -33.4780  -22.3930  -46.6090 C.3       6 GLP5        0.0000 
     13 N         -33.4255  -23.7580  -45.1345 N.am      1 SEC2        0.0000 
     14 N         -34.2450  -24.6010  -44.7090 N.am      7 SEL2        0.0000 
     15 N         -32.6060  -22.9150  -45.5600 N.am      4 SEP2        0.0000 
     16 CA        -34.7425  -20.8920  -44.3993 C.3       3 GLC5        0.0000 
     17 CA        -34.0550  -21.0610  -46.1790 C.3       6 GLP5        0.0000 
     18 CA        -37.3717  -19.7847  -43.7752 C.3       3 GLC5        0.0000 
     19 CA        -35.9180  -21.0980  -43.0570 C.3       9 GLL5        0.0000 
     20 CA        -38.1960  -18.3250  -44.8970 C.3       6 GLP5        0.0000 
     21 CA        -37.7185  -19.0097  -43.1175 C.3       3 GLC5        0.0000 
     22 CA        -37.6730  -20.1020  -41.6370 C.3       9 GLL5        0.0000 
     23 CA        -33.4838  -23.1958  -42.3935 C.3       3 GLC5        0.0000 
@<TRIPOS>BOND
@<TRIPOS>SUBSTRUCTURE
     1 SEC2       13 GROUP        1 X    SEC  0     ROOT SEC X 2
     2 LYC4        7 GROUP        1 X    LYC  0     **** LYC X 4
     3 GLC5        1 GROUP        1 X    GLC  0     **** GLC X 6
     4 SEP2       15 GROUP        1 Y    SEP  0     ROOT SEP Y 9
     5 LYP4        9 GROUP        1 Y    LYP  0     **** LYP Y 11
     6 GLP5        3 GROUP        1 Y    GLP  0     **** GLP Y 13
     7 SEL2       14 GROUP        1 Z    SEL  0     ROOT SEL Z 16
     8 LYL4        8 GROUP        1 Z    LYL  0     **** LYL Z 18
     9 GLL5        2 GROUP        1 Z    GLL  0     **** GLL Z 20
@<TRIPOS>SET

