#    Name: 3uml_ISJ_1_ligand
#    Modification time : Mon Mar 24 22:57:57 2014

@<TRIPOS>MOLECULE
3uml_ISJ_1_ligand
   22    22     1     0     0
SMALL
NO_CHARGES


@<TRIPOS>ATOM
      1 C1        -35.9180  -21.0980  -43.0570 C.3       1 ISJ173      0.0000 
      2 C2        -34.9420  -20.3480  -42.1820 C.2       1 ISJ173      0.0000 
      3 C3        -35.3820  -19.3460  -41.4100 C.2       1 ISJ173      0.0000 
      4 C4        -36.8090  -19.2870  -41.0390 C.2       1 ISJ173      0.0000 
      5 C5        -37.6730  -20.1020  -41.6370 C.2       1 ISJ173      0.0000 
      6 C6        -37.1770  -21.3910  -42.2500 C.3       1 ISJ173      0.0000 
      7 C7        -34.4560  -18.3210  -40.9380 C.2       1 ISJ173      0.0000 
      8 O8        -33.5010  -17.9090  -41.6310 O.co2     1 ISJ173      0.0000 
      9 O9        -35.0990  -17.4230  -40.2030 O.co2     1 ISJ173      0.0000 
     10 O10       -38.1870  -21.9390  -43.1040 O.3       1 ISJ173      0.0000 
     11 O11       -35.3260  -22.3160  -43.5060 O.3       1 ISJ173      0.0000 
     12 C12       -35.2560  -23.6290  -42.8850 C.2       1 ISJ173      0.0000 
     13 C13       -34.7220  -24.8080  -43.5720 C.2       1 ISJ173      0.0000 
     14 O14       -35.1580  -25.9760  -43.2210 O.co2     1 ISJ173      0.0000 
     15 O15       -34.2450  -24.6010  -44.7090 O.co2     1 ISJ173      0.0000 
     16 C16       -35.2730  -23.7420  -41.5690 C.2       1 ISJ173      0.0000 
     17 H         -36.1909  -20.4630  -43.8838 H         1 ISJ173      0.0000 
     18 H         -33.9756  -20.6593  -42.2329 H         1 ISJ173      0.0000 
     19 H         -37.0648  -18.6044  -40.3227 H         1 ISJ173      0.0000 
     20 H         -38.6729  -19.9331  -41.7237 H         1 ISJ173      0.0000 
     21 H         -36.9190  -22.0702  -41.4582 H         1 ISJ173      0.0000 
     22 H         -37.7098  -22.1752  -43.9505 H         1 ISJ173      0.0000 
@<TRIPOS>BOND
     1    2    1 1    
     2    6    1 1    
     3   11    1 1    
     4   17    1 1    
     5    3    2 2    
     6   18    2 1    
     7    4    3 1    
     8    7    3 1    
     9    5    4 2    
    10   19    4 1    
    11    6    5 1    
    12   20    5 1    
    13   10    6 1    
    14   21    6 1    
    15    8    7 ar   
    16    9    7 ar   
    17   22   10 1    
    18   12   11 1    
    19   13   12 1    
    20   16   12 2    
    21   14   13 ar   
    22   15   13 ar   
@<TRIPOS>SUBSTRUCTURE
     1 ISJ173      1 GROUP   
@<TRIPOS>SET

