#    Name: 4ewq_MWL_2_INTS_M
#    Modification time : Mon Mar 24 18:43:39 2014

@<TRIPOS>MOLECULE
4ewq_MWL_2_INTS_M
   70     0     6     0     0
SMALL
NO_CHARGES


@<TRIPOS>ATOM
      1 CA          5.4700    8.3245   22.6370 C.3       2 GLC5        0.0000 
      2 CA          3.7540    8.2360   23.6180 C.3       6 GLL5        0.0000 
      3 CA          7.1860    8.4130   21.6560 C.3       4 GLP5        0.0000 
      4 CA          3.8375    5.7300   24.6085 C.3       2 GLC5        0.0000 
      5 CA          2.0970    6.5640   23.8790 C.3       6 GLL5        0.0000 
      6 CA          5.5780    4.8960   25.3380 C.3       4 GLP5        0.0000 
      7 N          -3.4525    4.1340   18.3280 N.am      1 SEC2        0.0000 
      8 N          -2.9430    3.1560   19.4100 N.am      5 SEL2        0.0000 
      9 N          -3.9620    5.1120   17.2460 N.am      3 SEP2        0.0000 
     10 CA         -4.6245    1.4990   14.4550 C.3       2 GLC5        0.0000 
     11 CA         -4.8420    0.9570   16.4890 C.3       6 GLL5        0.0000 
     12 CA         -4.4070    2.0410   12.4210 C.3       4 GLP5        0.0000 
     13 CA         -7.8240   -0.8140   16.4470 C.3       2 GLC5        0.0000 
     14 CA         -6.0430    0.3900   16.9050 C.3       6 GLL5        0.0000 
     15 CA         -9.6050   -2.0180   15.9890 C.3       4 GLP5        0.0000 
     16 CA         -6.1705    1.1460   21.2035 C.3       2 GLC5        0.0000 
     17 CA         -5.4620    0.7950   19.1890 C.3       6 GLL5        0.0000 
     18 CA         -6.8790    1.4970   23.2180 C.3       4 GLP5        0.0000 
     19 CA         -5.0375    0.5290   22.9230 C.3       2 GLC5        0.0000 
     20 CA         -3.1960   -0.4390   22.6280 C.3       6 GLL5        0.0000 
     21 CA         -4.6220   -2.9860   23.8900 C.3       2 GLC5        0.0000 
     22 CA         -3.3440   -1.7610   23.0230 C.3       6 GLL5        0.0000 
     23 CA         -5.9000   -4.2110   24.7570 C.3       4 GLP5        0.0000 
     24 CA         -2.3960   -3.6540   23.2585 C.3       2 GLC5        0.0000 
     25 CA         -1.4480   -5.5470   23.4940 C.3       4 GLP5        0.0000 
     26 N          -3.0365   -4.0515   22.5805 N.am      1 SEC2        0.0000 
     27 N          -3.2570   -2.7470   22.1340 N.am      5 SEL2        0.0000 
     28 N          -2.8160   -5.3560   23.0270 N.am      3 SEP2        0.0000 
     29 CA         -4.0510   -4.2235   21.5790 C.3       2 GLC5        0.0000 
     30 CA         -3.0210   -2.4770   20.8370 C.3       6 GLL5        0.0000 
     31 CA         -5.0810   -5.9700   22.3210 C.3       4 GLP5        0.0000 
     32 CA         -1.7460   -3.6920   21.6785 C.3       2 GLC5        0.0000 
     33 CA         -0.4710   -4.9070   22.5200 C.3       4 GLP5        0.0000 
     34 CA          4.5414    6.5386   24.9188 C.3       2 GLC5        0.0000 
     35 CA          2.8150    7.7580   25.7760 C.3       6 GLL5        0.0000 
     36 CA         -1.7428    5.9350   23.5310 C.3       2 GLC5        0.0000 
     37 CA          0.1420    5.1650   24.1480 C.3       6 GLL5        0.0000 
     38 CA         -3.1460    7.2010   23.2510 C.3       4 GLP5        0.0000 
     39 CA         -1.0222    7.0050   22.3643 C.3       2 GLC5        0.0000 
     40 CA         -0.3850    5.3850   21.4200 C.3       6 GLL5        0.0000 
     41 CA         -2.2470    8.2450   23.0120 C.3       4 GLP5        0.0000 
     42 CA         -4.5252    2.6792   21.3923 C.3       2 GLC5        0.0000 
     43 CA         -2.7530    1.2790   20.8420 C.3       6 GLL5        0.0000 
     44 CA         -6.0280    3.7700   22.5090 C.3       4 GLP5        0.0000 
     45 CA         -4.6110    3.2470   18.2440 C.3       2 GLC5        0.0000 
     46 CA         -3.2920    1.8980   19.7090 C.3       6 GLL5        0.0000 
     47 CA         -5.4470    4.8740   17.2500 C.3       4 GLP5        0.0000 
     48 CA         -4.4853   -0.6542   17.8957 C.3       2 GLC5        0.0000 
     49 CA         -3.9530    1.4410   17.4160 C.3       6 GLL5        0.0000 
     50 CA         -4.8650   -2.7000   17.7000 C.3       4 GLP5        0.0000 
     51 CA         -4.9223    3.0365   17.1013 C.3       2 GLC5        0.0000 
     52 CA         -2.8144    0.5646   16.5986 C.3       2 GLC5        0.0000 
     53 CA         -1.1550   -0.0450   15.9070 C.3       4 GLP5        0.0000 
     54 CA         -7.0002    1.4373   15.5625 C.3       2 GLC5        0.0000 
     55 CA         -8.5580    2.2010   14.4280 C.3       4 GLP5        0.0000 
     56 CA         -5.1538   -1.0133   17.1985 C.3       2 GLC5        0.0000 
     57 CA         -6.2585   -0.8273   20.0787 C.3       2 GLC5        0.0000 
     58 CA         -6.3460    0.3060   18.2600 C.3       6 GLL5        0.0000 
     59 CA         -6.6130   -2.2050   21.4330 C.3       4 GLP5        0.0000 
     60 CA         -5.3845   -1.0748   18.2122 C.3       2 GLC5        0.0000 
     61 CA         -6.8511    2.0818   18.5754 C.3       2 GLC5        0.0000 
     62 CA         -7.8740    3.5920   18.7650 C.3       4 GLP5        0.0000 
     63 CA         -0.2943    1.6126   20.8661 C.3       2 GLC5        0.0000 
     64 CA          1.6140    1.2620   20.5880 C.3       4 GLP5        0.0000 
     65 CA         -1.0433   -0.6378   19.9943 C.3       2 GLC5        0.0000 
     66 CA         -2.8720   -1.1740   20.3880 C.3       6 GLL5        0.0000 
     67 CA          0.8410   -0.6240   19.1490 C.3       4 GLP5        0.0000 
     68 CA         -3.9058   -2.2628   19.1562 C.3       2 GLC5        0.0000 
     69 CA         -4.9415   -1.6525   22.1292 C.3       2 GLC5        0.0000 
     70 CA         -4.7936   -1.8846   21.1356 C.3       2 GLC5        0.0000 
@<TRIPOS>BOND
@<TRIPOS>SUBSTRUCTURE
     1 SEC2        7 GROUP        1 X    SEC  0     ROOT SEC X 2
     2 GLC5        1 GROUP        1 X    GLC  0     **** GLC X 6
     3 SEP2        9 GROUP        1 Y    SEP  0     ROOT SEP Y 9
     4 GLP5        3 GROUP        1 Y    GLP  0     **** GLP Y 13
     5 SEL2        8 GROUP        1 Z    SEL  0     ROOT SEL Z 16
     6 GLL5        2 GROUP        1 Z    GLL  0     **** GLL Z 20
@<TRIPOS>SET

