#    Name: 4ewq_MWL_2_ligand
#    Modification time : Mon Mar 24 18:43:39 2014

@<TRIPOS>MOLECULE
4ewq_MWL_2_ligand
   51    55     1     0     0
SMALL
NO_CHARGES


@<TRIPOS>ATOM
      1 C1          2.8150    7.7580   25.7760 C.ar      1 MWL402      0.0000 
      2 N2          2.0380    6.8160   25.2140 N.ar      1 MWL402      0.0000 
      3 C6          3.6960    8.4950   24.9860 C.ar      1 MWL402      0.0000 
      4 C5          3.7540    8.2360   23.6180 C.ar      1 MWL402      0.0000 
      5 N4          2.9640    7.2800   23.0960 N.ar      1 MWL402      0.0000 
      6 C3          2.0970    6.5640   23.8790 C.ar      1 MWL402      0.0000 
      7 N7          1.2720    5.5700   23.2740 N.3       1 MWL402      0.0000 
      8 C8          0.1420    5.1650   24.1480 C.3       1 MWL402      0.0000 
      9 C9         -0.8210    4.1730   23.4740 C.3       1 MWL402      0.0000 
     10 C12         0.7900    6.1450   22.0130 C.3       1 MWL402      0.0000 
     11 C11        -0.3850    5.3850   21.4200 C.3       1 MWL402      0.0000 
     12 N10        -0.5280    4.0520   22.0340 N.3       1 MWL402      0.0000 
     13 C13        -1.4780    3.3010   21.2860 C.ar      1 MWL402      0.0000 
     14 C14        -1.8260    1.9940   21.6070 C.ar      1 MWL402      0.0000 
     15 N18        -2.0340    3.8550   20.1990 N.ar      1 MWL402      0.0000 
     16 N17        -2.9430    3.1560   19.4100 N.ar      1 MWL402      0.0000 
     17 C16        -3.2920    1.8980   19.7090 C.ar      1 MWL402      0.0000 
     18 C20        -4.2580    1.3420   18.7670 C.ar      1 MWL402      0.0000 
     19 C21        -3.9530    1.4410   17.4160 C.ar      1 MWL402      0.0000 
     20 C22        -4.8420    0.9570   16.4890 C.ar      1 MWL402      0.0000 
     21 C23        -6.0430    0.3900   16.9050 C.ar      1 MWL402      0.0000 
     22 C24        -6.3460    0.3060   18.2600 C.ar      1 MWL402      0.0000 
     23 C25        -5.4620    0.7950   19.1890 C.ar      1 MWL402      0.0000 
     24 C15        -2.7530    1.2790   20.8420 C.ar      1 MWL402      0.0000 
     25 C19        -2.9830   -0.1290   21.2910 C.ar      1 MWL402      0.0000 
     26 C30        -2.8720   -1.1740   20.3880 C.ar      1 MWL402      0.0000 
     27 C26        -3.1960   -0.4390   22.6280 C.ar      1 MWL402      0.0000 
     28 C27        -3.3440   -1.7610   23.0230 C.ar      1 MWL402      0.0000 
     29 N28        -3.2570   -2.7470   22.1340 N.ar      1 MWL402      0.0000 
     30 C29        -3.0210   -2.4770   20.8370 C.ar      1 MWL402      0.0000 
     31 H           2.7759    7.9528   26.7919 H         1 MWL402      0.0000 
     32 H           4.2888    9.2126   25.4031 H         1 MWL402      0.0000 
     33 H           4.4015    8.7822   23.0316 H         1 MWL402      0.0000 
     34 H          -0.4388    6.0513   24.4540 H         1 MWL402      0.0000 
     35 H           0.5237    4.6975   25.0711 H         1 MWL402      0.0000 
     36 H          -1.8432    4.5295   23.6320 H         1 MWL402      0.0000 
     37 H          -0.7168    3.2047   23.9725 H         1 MWL402      0.0000 
     38 H           1.6038    6.1632   21.2635 H         1 MWL402      0.0000 
     39 H           0.4809    7.1967   22.1640 H         1 MWL402      0.0000 
     40 H          -0.2297    5.2918   20.3370 H         1 MWL402      0.0000 
     41 H          -1.2971    5.9764   21.5747 H         1 MWL402      0.0000 
     42 H          -1.3915    1.5367   22.4296 H         1 MWL402      0.0000 
     43 H          -3.0694    1.8732   17.1208 H         1 MWL402      0.0000 
     44 H          -4.6278    1.0095   15.4814 H         1 MWL402      0.0000 
     45 H          -6.7096    0.0314   16.2068 H         1 MWL402      0.0000 
     46 H          -7.2339   -0.1237   18.5570 H         1 MWL402      0.0000 
     47 H          -5.6836    0.7597   20.1929 H         1 MWL402      0.0000 
     48 H          -2.6818   -0.9860   19.3986 H         1 MWL402      0.0000 
     49 H          -3.2442    0.3153   23.3283 H         1 MWL402      0.0000 
     50 H          -3.5244   -1.9570   24.0315 H         1 MWL402      0.0000 
     51 H          -2.9455   -3.2531   20.1403 H         1 MWL402      0.0000 
@<TRIPOS>BOND
     1    2    1 ar   
     2    3    1 ar   
     3   31    1 1    
     4    6    2 ar   
     5    4    3 ar   
     6   32    3 1    
     7    5    4 ar   
     8   33    4 1    
     9    6    5 ar   
    10    7    6 1    
    11    8    7 1    
    12   10    7 1    
    13    9    8 1    
    14   34    8 1    
    15   35    8 1    
    16   12    9 1    
    17   36    9 1    
    18   37    9 1    
    19   11   10 1    
    20   38   10 1    
    21   39   10 1    
    22   12   11 1    
    23   40   11 1    
    24   41   11 1    
    25   13   12 1    
    26   14   13 ar   
    27   15   13 ar   
    28   24   14 ar   
    29   42   14 1    
    30   16   15 ar   
    31   17   16 ar   
    32   18   17 1    
    33   24   17 ar   
    34   19   18 ar   
    35   23   18 ar   
    36   20   19 ar   
    37   43   19 1    
    38   21   20 ar   
    39   44   20 1    
    40   22   21 ar   
    41   45   21 1    
    42   23   22 ar   
    43   46   22 1    
    44   47   23 1    
    45   25   24 1    
    46   26   25 ar   
    47   27   25 ar   
    48   30   26 ar   
    49   48   26 1    
    50   28   27 ar   
    51   49   27 1    
    52   29   28 ar   
    53   50   28 1    
    54   30   29 ar   
    55   51   30 1    
@<TRIPOS>SUBSTRUCTURE
     1 MWL402      1 GROUP   
@<TRIPOS>SET

