#    Name: 1xh9_R69_1_INTS_M
#    Modification time : Mon Apr  7 15:17:46 2014

@<TRIPOS>MOLECULE
1xh9_R69_1_INTS_M
  111     0    12     0     0
SMALL
NO_CHARGES


@<TRIPOS>ATOM
      1 N           9.2875   38.6455    8.8900 N.am      2 SEC2        0.0000 
      2 N          10.0720   39.6130    9.4250 N.am     10 SEL2        0.0000 
      3 N           8.5030   37.6780    8.3550 N.am      6 SEP2        0.0000 
      4 CA          8.3610   42.1105    8.1490 C.3       4 GLC5        0.0000 
      5 CA         10.2490   41.4880    7.9680 C.3      12 GLL5        0.0000 
      6 CA          6.4730   42.7330    8.3300 C.3       8 GLP5        0.0000 
      7 CA          8.5410   40.2450    8.6790 C.3       4 GLC5        0.0000 
      8 CA          6.8330   39.0020    9.3900 C.3       8 GLP5        0.0000 
      9 CA          8.6030   39.3645    7.5340 C.3       4 GLC5        0.0000 
     10 CA         10.0960   40.7380    6.8000 C.3      12 GLL5        0.0000 
     11 CA          7.1100   37.9910    8.2680 C.3       8 GLP5        0.0000 
     12 CA         11.0595   41.9155    3.7185 C.3       4 GLC5        0.0000 
     13 CA         10.2090   41.3170    5.5390 C.3      12 GLL5        0.0000 
     14 CA         11.9100   42.5140    1.8980 C.3       8 GLP5        0.0000 
     15 CA          8.7945   42.3095    4.3640 C.3       4 GLC5        0.0000 
     16 CA          7.3800   43.3020    3.1890 C.3       8 GLP5        0.0000 
     17 N          10.1115   43.0190    3.9785 N.am      2 SEC2        0.0000 
     18 N          10.4740   42.6110    5.4030 N.am     10 SEL2        0.0000 
     19 N           9.7490   43.4270    2.5540 N.am      6 SEP2        0.0000 
     20 CA          6.9605   43.5220   11.3860 C.3       4 GLC5        0.0000 
     21 CA          7.9570   41.6440   11.8140 C.3      12 GLL5        0.0000 
     22 CA          5.9640   45.4000   10.9580 C.3       8 GLP5        0.0000 
     23 CA          7.2150   42.1885   10.0720 C.3       4 GLC5        0.0000 
     24 OD1         7.8655   39.8215   13.2745 O.co2     3 ASC3        0.0000 
     25 OD1         7.3140   41.0610   13.0440 O.co2    11 ASL3        0.0000 
     26 OD1         8.4170   38.5820   13.5050 O.co2     7 ASP3        0.0000 
     27 CA          5.5450   42.3060   14.8160 C.3       4 GLC5        0.0000 
     28 CA          7.5170   41.9130   14.2990 C.3      12 GLL5        0.0000 
     29 CA          3.5730   42.6990   15.3330 C.3       8 GLP5        0.0000 
     30 CA         12.0845   40.6780   11.9275 C.3       4 GLC5        0.0000 
     31 CA         10.4410   41.4570   12.7840 C.3      12 GLL5        0.0000 
     32 CA         13.7280   39.8990   11.0710 C.3       8 GLP5        0.0000 
     33 O          10.2955   38.7705   12.7675 O.2       1 ALC1        0.0000 
     34 O          10.9590   40.1770   13.3160 O.2       9 ALL1        0.0000 
     35 O           9.6320   37.3640   12.2190 O.2       5 ALP1        0.0000 
     36 O           9.6880   39.3795   13.4105 O.2       1 ALC1        0.0000 
     37 O           8.4170   38.5820   13.5050 O.2       5 ALP1        0.0000 
     38 CA         13.8115   40.7085   16.0740 C.3       4 GLC5        0.0000 
     39 CA         13.7470   38.6670   15.3180 C.3      12 GLL5        0.0000 
     40 CA         13.8760   42.7500   16.8300 C.3       8 GLP5        0.0000 
     41 CA         15.2775   39.8295   15.0450 C.3       4 GLC5        0.0000 
     42 CA         16.8080   40.9920   14.7720 C.3       8 GLP5        0.0000 
     43 CA         16.0485   38.0940   16.7575 C.3       4 GLC5        0.0000 
     44 CA         14.0360   37.5560   16.0970 C.3      12 GLL5        0.0000 
     45 CA         18.0610   38.6320   17.4180 C.3       8 GLP5        0.0000 
     46 N          15.0775   36.1135   19.1825 N.am      2 SEC2        0.0000 
     47 N          14.2690   35.6380   18.0900 N.am     10 SEL2        0.0000 
     48 N          15.8860   36.5890   20.2750 N.am      6 SEP2        0.0000 
     49 CA         14.5235   34.6425   16.4240 C.3       4 GLC5        0.0000 
     50 CA         12.5680   34.2790   17.3660 C.3      12 GLL5        0.0000 
     51 CA         16.4790   35.0060   15.4820 C.3       8 GLP5        0.0000 
     52 CA         14.3440   33.0010   15.5410 C.3       4 GLC5        0.0000 
     53 CA         12.4150   33.4450   16.2240 C.3      12 GLL5        0.0000 
     54 CA         16.2730   32.5570   14.8580 C.3       8 GLP5        0.0000 
     55 N          12.3290   34.6410   13.8995 N.am      2 SEC2        0.0000 
     56 N          12.9030   33.7670   15.0670 N.am     10 SEL2        0.0000 
     57 N          11.7550   35.5150   12.7320 N.am      6 SEP2        0.0000 
     58 O          12.5460   32.8055   14.2665 O.2       1 ALC1        0.0000 
     59 O          12.9030   33.7670   15.0670 O.2       9 ALL1        0.0000 
     60 O          12.1890   31.8440   13.4660 O.2       5 ALP1        0.0000 
     61 CA         12.7030   35.0465   20.3390 C.3       4 GLC5        0.0000 
     62 CA         12.0210   33.9220   18.6160 C.3      12 GLL5        0.0000 
     63 CA         13.3850   36.1710   22.0620 C.3       8 GLP5        0.0000 
     64 CA         12.4625   31.6005   20.5615 C.3       4 GLC5        0.0000 
     65 CA         10.6010   30.9260   20.2820 C.3      12 GLL5        0.0000 
     66 CA         14.3240   32.2750   20.8410 C.3       8 GLP5        0.0000 
     67 CA         11.5635   30.1700   21.6425 C.3       4 GLC5        0.0000 
     68 CA         12.5260   29.4140   23.0030 C.3       8 GLP5        0.0000 
     69 CA         10.3745   29.1460   19.4235 C.3       4 GLC5        0.0000 
     70 CA         10.1480   27.3660   18.5650 C.3       8 GLP5        0.0000 
     71 CA          9.6980   31.4800   22.1880 C.3       4 GLC5        0.0000 
     72 CA          8.7950   32.0340   24.0940 C.3       8 GLP5        0.0000 
     73 CA          9.1800   32.6035   22.2315 C.3       4 GLC5        0.0000 
     74 CA          9.5650   33.1730   20.3690 C.3      12 GLL5        0.0000 
     75 CA         12.2867   41.8255    8.5117 C.3       4 GLC5        0.0000 
     76 CA         14.1840   41.4830    9.1400 C.3       8 GLP5        0.0000 
     77 CA         11.4703   39.4900    7.5445 C.3       4 GLC5        0.0000 
     78 CA         12.7680   37.8670    7.7050 C.3       8 GLP5        0.0000 
     79 CA          8.7423   39.5157    5.3833 C.3       4 GLC5        0.0000 
     80 CA          7.3320   38.0040    4.5970 C.3       8 GLP5        0.0000 
     81 CA          8.1847   41.3792    6.5163 C.3       4 GLC5        0.0000 
     82 CA          6.2170   41.7310    6.8630 C.3       8 GLP5        0.0000 
     83 CA         11.9774   41.2670    5.9493 C.3       4 GLC5        0.0000 
     84 CA         13.7640   41.3190    5.4370 C.3       8 GLP5        0.0000 
     85 CA         12.2920   44.1928    7.0817 C.3       4 GLC5        0.0000 
     86 CA         10.6380   43.3550    6.5060 C.3      12 GLL5        0.0000 
     87 CA         14.0000   45.2840    7.0110 C.3       8 GLP5        0.0000 
     88 CA         12.1740   42.2103    6.2948 C.3       4 GLC5        0.0000 
     89 CA          8.9105   43.6142    7.3567 C.3       4 GLC5        0.0000 
     90 CA          7.2370   44.1270    7.5610 C.3       8 GLP5        0.0000 
     91 CA          7.7555   40.1938   10.5660 C.3       4 GLC5        0.0000 
     92 CA         11.4778   43.3208   13.5497 C.3       4 GLC5        0.0000 
     93 CA         12.7450   44.7070   13.7530 C.3       8 GLP5        0.0000 
     94 CA         13.0285   39.1865   16.8867 C.3       4 GLC5        0.0000 
     95 CA         12.4330   38.8970   14.8490 C.3      12 GLL5        0.0000 
     96 CA         12.9670   39.5910   18.6900 C.3       8 GLP5        0.0000 
     97 CA         13.4090   39.3405   13.0772 C.3       4 GLC5        0.0000 
     98 CA         13.0220   37.5305   13.6258 C.3       4 GLC5        0.0000 
     99 CA         12.9540   36.2790   12.1680 C.3       8 GLP5        0.0000 
    100 CA         13.2473   38.3453   17.4765 C.3       4 GLC5        0.0000 
    101 CA         13.2408   36.6893   14.2155 C.3       4 GLC5        0.0000 
    102 CA         15.0032   36.0528   15.8725 C.3       4 GLC5        0.0000 
    103 CA         12.2745   38.5147   17.1348 C.3       4 GLC5        0.0000 
    104 CA         11.7310   36.8840   15.9670 C.3      12 GLL5        0.0000 
    105 CA         12.2680   36.8588   13.8737 C.3       4 GLC5        0.0000 
    106 CA         13.0830   30.7617   17.1997 C.3       4 GLC5        0.0000 
    107 CA         11.6880   32.2340   16.3820 C.3      12 GLL5        0.0000 
    108 CA         14.7460   29.4590   17.4060 C.3       8 GLP5        0.0000 
    109 CA         10.2004   31.7346   15.9645 C.3       4 GLC5        0.0000 
    110 CA         11.1520   31.8950   17.6050 C.3      12 GLL5        0.0000 
    111 CA          8.7990   31.1020   14.9750 C.3       8 GLP5        0.0000 
@<TRIPOS>BOND
@<TRIPOS>SUBSTRUCTURE
     1 ALC1       33 GROUP        1 X    ALC  0     ROOT ALC X 1
     2 SEC2        1 GROUP        1 X    SEC  0     **** SEC X 2
     3 ASC3       24 GROUP        1 X    ASC  0     **** ASC X 3
     4 GLC5        4 GROUP        1 X    GLC  0     **** GLC X 6
     5 ALP1       35 GROUP        1 Y    ALP  0     ROOT ALP Y 8
     6 SEP2        3 GROUP        1 Y    SEP  0     **** SEP Y 9
     7 ASP3       26 GROUP        1 Y    ASP  0     **** ASP Y 10
     8 GLP5        6 GROUP        1 Y    GLP  0     **** GLP Y 13
     9 ALL1       34 GROUP        1 Z    ALL  0     ROOT ALL Z 15
    10 SEL2        2 GROUP        1 Z    SEL  0     **** SEL Z 16
    11 ASL3       25 GROUP        1 Z    ASL  0     **** ASL Z 17
    12 GLL5        5 GROUP        1 Z    GLL  0     **** GLL Z 20
@<TRIPOS>SET

