#    Name: 1xh9_R69_1_ligand
#    Modification time : Mon Apr  7 15:17:46 2014

@<TRIPOS>MOLECULE
1xh9_R69_1_ligand
   67    70     1     0     0
SMALL
NO_CHARGES


@<TRIPOS>ATOM
      1 O22        10.0720   39.6130    9.4250 O.2       1 R69351      0.0000 
      2 C21        10.1020   40.8510    9.2840 C.2       1 R69351      0.0000 
      3 C14        10.2490   41.4880    7.9680 C.ar      1 R69351      0.0000 
      4 C13        10.0960   40.7380    6.8000 C.ar      1 R69351      0.0000 
      5 C12        10.2090   41.3170    5.5390 C.ar      1 R69351      0.0000 
      6 N11        10.4740   42.6110    5.4030 N.ar      1 R69351      0.0000 
      7 C16        10.6380   43.3550    6.5060 C.ar      1 R69351      0.0000 
      8 C15        10.5300   42.8480    7.7990 C.ar      1 R69351      0.0000 
      9 N23         9.9370   41.6510   10.4070 N.am      1 R69351      0.0000 
     10 C31         9.3990   41.1270   11.6700 C.3       1 R69351      0.0000 
     11 C32         7.9570   41.6440   11.8140 C.3       1 R69351      0.0000 
     12 N33         7.3140   41.0610   13.0440 N.4       1 R69351      0.0000 
     13 C34         7.5170   41.9130   14.2990 C.3       1 R69351      0.0000 
     14 C35         8.9340   41.8200   14.8670 C.3       1 R69351      0.0000 
     15 C36         9.9800   42.4120   13.9090 C.3       1 R69351      0.0000 
     16 C37        10.4410   41.4570   12.7840 C.3       1 R69351      0.0000 
     17 N41        10.9590   40.1770   13.3160 N.am      1 R69351      0.0000 
     18 C42        12.1220   40.1060   14.0600 C.2       1 R69351      0.0000 
     19 O43        12.8560   41.0850   14.1060 O.2       1 R69351      0.0000 
     20 C51        12.4330   38.8970   14.8490 C.ar      1 R69351      0.0000 
     21 C52        13.7470   38.6670   15.3180 C.ar      1 R69351      0.0000 
     22 C53        14.0360   37.5560   16.0970 C.ar      1 R69351      0.0000 
     23 C56        11.4330   37.9930   15.1920 C.ar      1 R69351      0.0000 
     24 C55        11.7310   36.8840   15.9670 C.ar      1 R69351      0.0000 
     25 C54        13.0190   36.6430   16.4290 C.ar      1 R69351      0.0000 
     26 C61        13.3100   35.5040   17.2950 C.2       1 R69351      0.0000 
     27 O62        14.2690   35.6380   18.0900 O.2       1 R69351      0.0000 
     28 C71        12.5680   34.2790   17.3660 C.ar      1 R69351      0.0000 
     29 C72        12.4150   33.4450   16.2240 C.ar      1 R69351      0.0000 
     30 O92        12.9030   33.7670   15.0670 O.3       1 R69351      0.0000 
     31 C73        11.6880   32.2340   16.3820 C.ar      1 R69351      0.0000 
     32 C74        11.1520   31.8950   17.6050 C.ar      1 R69351      0.0000 
     33 C76        12.0210   33.9220   18.6160 C.ar      1 R69351      0.0000 
     34 C75        11.3170   32.7300   18.7380 C.ar      1 R69351      0.0000 
     35 N95        10.7360   32.3640   19.9810 N.pl3     1 R69351      0.0000 
     36 C98        10.6010   30.9260   20.2820 C.3       1 R69351      0.0000 
     37 C99         9.5650   33.1730   20.3690 C.3       1 R69351      0.0000 
     38 H           9.8927   39.7220    6.8760 H         1 R69351      0.0000 
     39 H          10.0785   40.7004    4.7050 H         1 R69351      0.0000 
     40 H          10.8626   44.3876    6.4121 H         1 R69351      0.0000 
     41 H          10.6528   43.4538    8.6078 H         1 R69351      0.0000 
     42 H          10.1907   42.6513   10.3883 H         1 R69351      0.0000 
     43 H           9.3615   40.0284   11.5711 H         1 R69351      0.0000 
     44 H           7.3940   41.3581   10.9282 H         1 R69351      0.0000 
     45 H           7.9811   42.7292   11.8850 H         1 R69351      0.0000 
     46 H           6.8014   41.5922   15.0681 H         1 R69351      0.0000 
     47 H           7.2960   42.9617   14.0584 H         1 R69351      0.0000 
     48 H           9.1785   40.7716   15.0553 H         1 R69351      0.0000 
     49 H           8.9775   42.3590   15.8167 H         1 R69351      0.0000 
     50 H          10.8642   42.7205   14.4916 H         1 R69351      0.0000 
     51 H           9.5661   43.3241   13.4473 H         1 R69351      0.0000 
     52 H          11.2971   41.9556   12.2578 H         1 R69351      0.0000 
     53 H          10.4051   39.3336   13.1026 H         1 R69351      0.0000 
     54 H          14.4887   39.3377   15.0725 H         1 R69351      0.0000 
     55 H          14.9916   37.3924   16.4360 H         1 R69351      0.0000 
     56 H          10.4676   38.1510   14.8672 H         1 R69351      0.0000 
     57 H          10.9727   36.2139   16.2100 H         1 R69351      0.0000 
     58 H          11.5717   31.6189   15.5653 H         1 R69351      0.0000 
     59 H          10.6153   31.0166   17.7161 H         1 R69351      0.0000 
     60 H          12.1463   34.5404   19.4189 H         1 R69351      0.0000 
     61 H          11.4878   30.4640   20.2927 H         1 R69351      0.0000 
     62 H          10.1792   30.7716   21.1755 H         1 R69351      0.0000 
     63 H          10.0340   30.4565   19.6052 H         1 R69351      0.0000 
     64 H           9.7948   34.1426   20.4528 H         1 R69351      0.0000 
     65 H           8.8269   33.1037   19.6979 H         1 R69351      0.0000 
     66 H           9.1889   32.8837   21.2493 H         1 R69351      0.0000 
     67 H          13.0587   32.8963   14.6005 H         1 R69351      0.0000 
@<TRIPOS>BOND
     1    2    1 2    
     2    3    2 1    
     3    9    2 am   
     4    4    3 ar   
     5    8    3 ar   
     6    5    4 ar   
     7   38    4 1    
     8    6    5 ar   
     9   39    5 1    
    10    7    6 ar   
    11    8    7 ar   
    12   40    7 1    
    13   41    8 1    
    14   10    9 1    
    15   42    9 1    
    16   11   10 1    
    17   16   10 1    
    18   43   10 1    
    19   12   11 1    
    20   44   11 1    
    21   45   11 1    
    22   13   12 1    
    23   14   13 1    
    24   46   13 1    
    25   47   13 1    
    26   15   14 1    
    27   48   14 1    
    28   49   14 1    
    29   16   15 1    
    30   50   15 1    
    31   51   15 1    
    32   17   16 1    
    33   52   16 1    
    34   18   17 am   
    35   53   17 1    
    36   19   18 2    
    37   20   18 1    
    38   21   20 ar   
    39   23   20 ar   
    40   22   21 ar   
    41   54   21 1    
    42   25   22 ar   
    43   55   22 1    
    44   24   23 ar   
    45   56   23 1    
    46   25   24 ar   
    47   57   24 1    
    48   26   25 1    
    49   27   26 2    
    50   28   26 1    
    51   29   28 ar   
    52   33   28 ar   
    53   30   29 1    
    54   31   29 ar   
    55   67   30 1    
    56   32   31 ar   
    57   58   31 1    
    58   34   32 ar   
    59   59   32 1    
    60   34   33 ar   
    61   60   33 1    
    62   35   34 1    
    63   36   35 1    
    64   37   35 1    
    65   61   36 1    
    66   62   36 1    
    67   63   36 1    
    68   64   37 1    
    69   65   37 1    
    70   66   37 1    
@<TRIPOS>SUBSTRUCTURE
     1 R69351      1 GROUP   
@<TRIPOS>SET

