#    Name: 4kd7_9DR_1_INTS_M
#    Modification time : Tue Mar 25 07:45:12 2014

@<TRIPOS>MOLECULE
4kd7_9DR_1_INTS_M
   71     0     9     0     0
SMALL
NO_CHARGES


@<TRIPOS>ATOM
      1 CA         26.2360    8.3480   10.6515 C.3       3 GLC5        0.0000 
      2 CA         27.7820    9.5440   10.1190 C.3       9 GLL5        0.0000 
      3 CA         24.6900    7.1520   11.1840 C.3       6 GLP5        0.0000 
      4 CA         27.8975    9.0630   12.0295 C.3       3 GLC5        0.0000 
      5 CA         28.0130    8.5820   13.9400 C.3       6 GLP5        0.0000 
      6 CA         29.6165    9.5385   10.4295 C.3       3 GLC5        0.0000 
      7 CA         31.4510    9.5330   10.7400 C.3       6 GLP5        0.0000 
      8 CA         26.5045    9.8925    8.4840 C.3       3 GLC5        0.0000 
      9 CA         25.2270   10.2410    6.8490 C.3       6 GLP5        0.0000 
     10 N          29.2105   10.1480    8.3075 N.am      2 SEC2        0.0000 
     11 N          28.3500   10.4930    9.3590 N.am      8 SEL2        0.0000 
     12 N          30.0710    9.8030    7.2560 N.am      5 SEP2        0.0000 
     13 CA         29.7820   10.6620   10.1605 C.3       3 GLC5        0.0000 
     14 CA         28.1130   11.7910    9.5810 C.3       9 GLL5        0.0000 
     15 CA         26.6700   11.0160    8.2150 C.3       3 GLC5        0.0000 
     16 CA         24.8665    9.9600   11.8045 C.3       3 GLC5        0.0000 
     17 CA         26.6950   11.1600   11.3830 C.3       9 GLL5        0.0000 
     18 CA         23.0380    8.7600   12.2260 C.3       6 GLP5        0.0000 
     19 CA         27.3540    9.8710   12.6615 C.3       3 GLC5        0.0000 
     20 CA         28.0615   11.9590    5.4330 C.3       3 GLC5        0.0000 
     21 CA         28.2630   12.5320    7.3280 C.3       9 GLL5        0.0000 
     22 CA         27.8600   11.3860    3.5380 C.3       6 GLP5        0.0000 
     23 CA         26.7450   11.3865    7.0885 C.3       3 GLC5        0.0000 
     24 CA         27.9190   21.1655    7.3585 C.3       3 GLC5        0.0000 
     25 CA         29.4570   20.0100    8.1470 C.3       9 GLL5        0.0000 
     26 CA         26.3810   22.3210    6.5700 C.3       6 GLP5        0.0000 
     27 O          28.8850    8.0035    8.9040 O.2       1 ALC1        0.0000 
     28 O          28.0400    8.2630    9.8700 O.2       7 ALL1        0.0000 
     29 O          29.7300    7.7440    7.9380 O.2       4 ALP1        0.0000 
     30 O          27.9255    6.6830   10.2635 O.2       1 ALC1        0.0000 
     31 O          27.8110    5.1030   10.6570 O.2       4 ALP1        0.0000 
     32 O          25.6460   10.4985   13.2265 O.2       1 ALC1        0.0000 
     33 O          25.8880   11.5440   12.3680 O.2       7 ALL1        0.0000 
     34 O          25.4040    9.4530   14.0850 O.2       4 ALP1        0.0000 
     35 O          26.1735   11.3375   14.0570 O.2       1 ALC1        0.0000 
     36 O          26.4590   11.1310   15.7460 O.2       4 ALP1        0.0000 
     37 CA         23.5990   20.0555    4.4315 C.3       3 GLC5        0.0000 
     38 CA         24.8680   18.4890    4.8120 C.3       9 GLL5        0.0000 
     39 CA         22.3300   21.6220    4.0510 C.3       6 GLP5        0.0000 
     40 CA         29.7375   16.6845   10.5945 C.3       3 GLC5        0.0000 
     41 CA         27.8710   17.6020   10.3460 C.3       9 GLL5        0.0000 
     42 CA         31.6040   15.7670   10.8430 C.3       6 GLP5        0.0000 
     43 CA         26.8650   20.3755    7.3620 C.3       3 GLC5        0.0000 
     44 CA         27.3490   18.4300    8.1540 C.3       9 GLL5        0.0000 
     45 CA         30.2150   14.0875    8.5670 C.3       3 GLC5        0.0000 
     46 CA         28.7080   12.7530    8.7760 C.3       9 GLL5        0.0000 
     47 CA         31.7220   15.4220    8.3580 C.3       6 GLP5        0.0000 
     48 CA         25.5700   16.8135   12.9640 C.3       3 GLC5        0.0000 
     49 CA         26.4620   15.9690   11.3980 C.3       9 GLL5        0.0000 
     50 CA         24.6780   17.6580   14.5300 C.3       6 GLP5        0.0000 
     51 CA         26.9730   15.4550   13.1690 C.3       3 GLC5        0.0000 
     52 CA         27.4840   14.9410   14.9400 C.3       6 GLP5        0.0000 
     53 CA         25.1775   12.9550   10.3860 C.3       3 GLC5        0.0000 
     54 CA         26.7730   14.5840   11.0900 C.3       9 GLL5        0.0000 
     55 CA         23.4710   11.8590    9.7900 C.3       6 GLP5        0.0000 
     56 CA         27.4225   13.9475   12.6050 C.3       3 GLC5        0.0000 
     57 CA         26.9950   13.5180   10.8740 C.3       9 GLL5        0.0000 
     58 CA         27.9610   13.8440   14.2280 C.3       6 GLP5        0.0000 
     59 CA         24.2963   19.7313    6.6570 C.3       3 GLC5        0.0000 
     60 CA         25.6830   18.4780    5.9380 C.3       9 GLL5        0.0000 
     61 CA         23.3170   20.9790    7.9390 C.3       6 GLP5        0.0000 
     62 CA         25.8282   20.4023    5.9725 C.3       3 GLC5        0.0000 
     63 CA         22.2955   17.3837    6.9465 C.3       3 GLC5        0.0000 
     64 CA         24.3050   16.7720    6.9370 C.3       9 GLL5        0.0000 
     65 CA         20.6950   17.9960    7.5180 C.3       6 GLP5        0.0000 
     66 CA         24.0862   19.0870    7.4523 C.3       3 GLC5        0.0000 
     67 CA         25.1508   18.4425    9.9730 C.3       3 GLC5        0.0000 
     68 CA         25.9230   16.7840    9.1920 C.3       9 GLL5        0.0000 
     69 CA         23.9650   20.1010   10.1950 C.3       6 GLP5        0.0000 
     70 CA         25.3753   19.0620    9.1655 C.3       3 GLC5        0.0000 
     71 CA         26.2220   17.6160    8.1180 C.3       9 GLL5        0.0000 
@<TRIPOS>BOND
@<TRIPOS>SUBSTRUCTURE
     1 ALC1       27 GROUP        1 X    ALC  0     ROOT ALC X 1
     2 SEC2       10 GROUP        1 X    SEC  0     **** SEC X 2
     3 GLC5        1 GROUP        1 X    GLC  0     **** GLC X 6
     4 ALP1       29 GROUP        1 Y    ALP  0     ROOT ALP Y 8
     5 SEP2       12 GROUP        1 Y    SEP  0     **** SEP Y 9
     6 GLP5        3 GROUP        1 Y    GLP  0     **** GLP Y 13
     7 ALL1       28 GROUP        1 Z    ALL  0     ROOT ALL Z 15
     8 SEL2       11 GROUP        1 Z    SEL  0     **** SEL Z 16
     9 GLL5        2 GROUP        1 Z    GLL  0     **** GLL Z 20
@<TRIPOS>SET

