#    Name: 4kd7_9DR_1_ligand
#    Modification time : Tue Mar 25 07:45:12 2014

@<TRIPOS>MOLECULE
4kd7_9DR_1_ligand
   48    50     1     0     0
SMALL
NO_CHARGES


@<TRIPOS>ATOM
      1 N1         26.9580    9.8720   11.1260 N.ar      1 9DR202      0.0000 
      2 C2         27.7820    9.5440   10.1190 C.ar      1 9DR202      0.0000 
      3 N3         28.3500   10.4930    9.3590 N.ar      1 9DR202      0.0000 
      4 C4         28.1130   11.7910    9.5810 C.ar      1 9DR202      0.0000 
      5 C5         27.2670   12.1590   10.6130 C.ar      1 9DR202      0.0000 
      6 C6         26.6950   11.1600   11.3830 C.ar      1 9DR202      0.0000 
      7 CAA        28.2630   12.5320    7.3280 C.3       1 9DR202      0.0000 
      8 CAB        29.4570   20.0100    8.1470 C.3       1 9DR202      0.0000 
      9 NAC        28.0400    8.2630    9.8700 N.pl3     1 9DR202      0.0000 
     10 NAD        25.8880   11.5440   12.3680 N.pl3     1 9DR202      0.0000 
     11 CAE        26.7730   14.5840   11.0900 C.1       1 9DR202      0.0000 
     12 CAF        26.9950   13.5180   10.8740 C.1       1 9DR202      0.0000 
     13 CAG        24.8680   18.4890    4.8120 C.ar      1 9DR202      0.0000 
     14 CAH        23.4870   16.7710    5.8130 C.ar      1 9DR202      0.0000 
     15 CAI        25.6830   18.4780    5.9380 C.ar      1 9DR202      0.0000 
     16 CAJ        24.3050   16.7720    6.9370 C.ar      1 9DR202      0.0000 
     17 CAK        27.8710   17.6020   10.3460 C.ar      1 9DR202      0.0000 
     18 CAL        25.9230   16.7840    9.1920 C.ar      1 9DR202      0.0000 
     19 CAM        27.3490   18.4300    8.1540 C.ar      1 9DR202      0.0000 
     20 CAN        28.7080   12.7530    8.7760 C.3       1 9DR202      0.0000 
     21 CAO        26.4620   15.9690   11.3980 C.3       1 9DR202      0.0000 
     22 NAP        23.7620   17.6330    4.7460 N.ar      1 9DR202      0.0000 
     23 OAS        29.2860   19.2240    9.3320 O.3       1 9DR202      0.0000 
     24 CAU        26.7500   16.7840   10.3100 C.ar      1 9DR202      0.0000 
     25 CAW        28.1770   18.4280    9.2710 C.ar      1 9DR202      0.0000 
     26 CAX        25.4060   17.6180    6.9940 C.ar      1 9DR202      0.0000 
     27 CAY        26.2220   17.6160    8.1180 C.ar      1 9DR202      0.0000 
     28 H          28.9228    8.0669    9.4432 H         1 9DR202      0.0000 
     29 H          27.3278    7.6117   10.1320 H         1 9DR202      0.0000 
     30 H          25.8871   10.9685   13.1858 H         1 9DR202      0.0000 
     31 H          25.3550   12.3736   12.2019 H         1 9DR202      0.0000 
     32 H          25.0722   19.1200    4.0303 H         1 9DR202      0.0000 
     33 H          22.6792   16.1385    5.7621 H         1 9DR202      0.0000 
     34 H          26.4952   19.1096    5.9898 H         1 9DR202      0.0000 
     35 H          24.0952   16.1467    7.7261 H         1 9DR202      0.0000 
     36 H          28.4828   17.5973   11.1777 H         1 9DR202      0.0000 
     37 H          25.0990   16.1754    9.1593 H         1 9DR202      0.0000 
     38 H          27.5707   19.0355    7.3515 H         1 9DR202      0.0000 
     39 H          29.8044   12.7014    8.7884 H         1 9DR202      0.0000 
     40 H          28.4201   13.7763    9.0498 H         1 9DR202      0.0000 
     41 H          27.0380   16.2750   12.2978 H         1 9DR202      0.0000 
     42 H          25.3912   16.0412   11.6867 H         1 9DR202      0.0000 
     43 H          28.6712   13.2017    6.7077 H         1 9DR202      0.0000 
     44 H          28.5231   11.6262    6.9937 H         1 9DR202      0.0000 
     45 H          27.2708   12.6073    7.2288 H         1 9DR202      0.0000 
     46 H          30.2720   20.5871    8.1985 H         1 9DR202      0.0000 
     47 H          29.5540   19.4378    7.3326 H         1 9DR202      0.0000 
     48 H          28.6780   20.6165    7.9880 H         1 9DR202      0.0000 
@<TRIPOS>BOND
     1    2    1 ar   
     2    6    1 ar   
     3    3    2 ar   
     4    9    2 1    
     5    4    3 ar   
     6    5    4 ar   
     7   20    4 1    
     8    6    5 ar   
     9   12    5 1    
    10   10    6 1    
    11   20    7 1    
    12   43    7 1    
    13   44    7 1    
    14   45    7 1    
    15   23    8 1    
    16   46    8 1    
    17   47    8 1    
    18   48    8 1    
    19   28    9 1    
    20   29    9 1    
    21   30   10 1    
    22   31   10 1    
    23   12   11 3    
    24   21   11 1    
    25   15   13 ar   
    26   22   13 ar   
    27   32   13 1    
    28   16   14 ar   
    29   22   14 ar   
    30   33   14 1    
    31   26   15 ar   
    32   34   15 1    
    33   26   16 ar   
    34   35   16 1    
    35   24   17 ar   
    36   25   17 ar   
    37   36   17 1    
    38   24   18 ar   
    39   27   18 ar   
    40   37   18 1    
    41   25   19 ar   
    42   27   19 ar   
    43   38   19 1    
    44   39   20 1    
    45   40   20 1    
    46   24   21 1    
    47   41   21 1    
    48   42   21 1    
    49   25   23 1    
    50   27   26 1    
@<TRIPOS>SUBSTRUCTURE
     1 9DR202      1 GROUP   
@<TRIPOS>SET

