#    Name: 2zju_IM4_4_INTS_M
#    Modification time : Mon Apr  7 18:47:31 2014

@<TRIPOS>MOLECULE
2zju_IM4_4_INTS_M
   37     0     3     0     0
SMALL
NO_CHARGES


@<TRIPOS>ATOM
      1 CA         53.9980   12.9800  -31.0915 C.3       1 GLC5        0.0000 
      2 CA         53.6410   14.0470  -33.0270 C.3       3 GLL5        0.0000 
      3 CA         54.3550   11.9130  -29.1560 C.3       2 GLP5        0.0000 
      4 CA         53.0635   11.3890  -35.3185 C.3       1 GLC5        0.0000 
      5 CA         53.7380   12.6010  -33.9800 C.3       3 GLL5        0.0000 
      6 CA         52.3890   10.1770  -36.6570 C.3       2 GLP5        0.0000 
      7 CA         54.4945   13.2540  -35.4630 C.3       1 GLC5        0.0000 
      8 CA         55.2510   13.9070  -36.9460 C.3       2 GLP5        0.0000 
      9 CA         54.1285   10.9120  -33.4010 C.3       1 GLC5        0.0000 
     10 CA         54.5190    9.2230  -32.8220 C.3       2 GLP5        0.0000 
     11 CA         51.2960   14.9100  -32.9075 C.3       1 GLC5        0.0000 
     12 CA         52.6970   15.1860  -31.2020 C.3       3 GLL5        0.0000 
     13 CA         49.8950   14.6340  -34.6130 C.3       2 GLP5        0.0000 
     14 CA         53.5260   13.5495  -30.1790 C.3       1 GLC5        0.0000 
     15 CA         53.8090   19.2655  -29.2970 C.3       1 GLC5        0.0000 
     16 CA         53.3240   17.6340  -30.6170 C.3       3 GLL5        0.0000 
     17 CA         54.2940   20.8970  -27.9770 C.3       2 GLP5        0.0000 
     18 CA         53.5255   18.9965  -31.8445 C.3       1 GLC5        0.0000 
     19 CA         53.7270   20.3590  -33.0720 C.3       2 GLP5        0.0000 
     20 CA         50.7910   15.7635  -28.0280 C.3       1 GLC5        0.0000 
     21 CA         51.8680   17.3820  -28.4990 C.3       3 GLL5        0.0000 
     22 CA         49.7140   14.1450  -27.5570 C.3       2 GLP5        0.0000 
     23 CA         50.7090   16.0855  -26.8040 C.3       1 GLC5        0.0000 
     24 CA         52.1730   17.1550  -27.0050 C.3       3 GLL5        0.0000 
     25 CA         49.2450   15.0160  -26.6030 C.3       2 GLP5        0.0000 
     26 CA         52.7575   16.9310  -25.2590 C.3       1 GLC5        0.0000 
     27 CA         53.3420   16.7070  -23.5130 C.3       2 GLP5        0.0000 
     28 CA         56.1462   14.8332  -33.0883 C.3       1 GLC5        0.0000 
     29 CA         54.3290   16.3330  -32.5910 C.3       3 GLL5        0.0000 
     30 CA         57.9130   13.9180  -33.1900 C.3       2 GLP5        0.0000 
     31 CA         54.6432   14.2562  -35.0752 C.3       1 GLC5        0.0000 
     32 CA         54.4300   15.1640  -33.3820 C.3       3 GLL5        0.0000 
     33 CA         51.7923   13.9790  -34.0583 C.3       1 GLC5        0.0000 
     34 CA         55.5973   12.8915  -33.3372 C.3       1 GLC5        0.0000 
     35 CA         57.5050   12.4590  -33.1710 C.3       2 GLP5        0.0000 
     36 CA         52.7742   18.8807  -27.3230 C.3       1 GLC5        0.0000 
     37 CA         53.5280   20.4930  -26.8940 C.3       2 GLP5        0.0000 
@<TRIPOS>BOND
@<TRIPOS>SUBSTRUCTURE
     1 GLC5        1 GROUP        1 X    GLC  0     ROOT GLC X 6
     2 GLP5        3 GROUP        1 Y    GLP  0     ROOT GLP Y 13
     3 GLL5        2 GROUP        1 Z    GLL  0     ROOT GLL Z 20
@<TRIPOS>SET

