#    Name: 2zju_IM4_4_ligand
#    Modification time : Mon Apr  7 18:47:31 2014

@<TRIPOS>MOLECULE
2zju_IM4_4_ligand
   27    28     1     0     0
SMALL
NO_CHARGES


@<TRIPOS>ATOM
      1 C5         54.3290   16.3330  -32.5910 C.ar      1 IM4302      0.0000 
      2 C6         54.4300   15.1640  -33.3820 C.ar      1 IM4302      0.0000 
      3 C1         53.6410   14.0470  -33.0270 C.ar      1 IM4302      0.0000 
      4 CL7        53.7380   12.6010  -33.9800 Cl        1 IM4302      0.0000 
      5 N2         52.8130   14.0870  -31.9770 N.ar      1 IM4302      0.0000 
      6 C3         52.6970   15.1860  -31.2020 C.ar      1 IM4302      0.0000 
      7 C4         53.4500   16.3690  -31.4820 C.ar      1 IM4302      0.0000 
      8 C8         53.3240   17.6340  -30.6170 C.3       1 IM4302      0.0000 
      9 N9         53.1680   17.4310  -29.1700 N.pl3     1 IM4302      0.0000 
     10 C13        51.8680   17.3820  -28.4990 C.3       1 IM4302      0.0000 
     11 C12        52.1730   17.1550  -27.0050 C.3       1 IM4302      0.0000 
     12 N11        53.6320   17.0890  -26.9170 N.pl3     1 IM4302      0.0000 
     13 C10        54.1890   17.2500  -28.2050 C.2       1 IM4302      0.0000 
     14 N14        55.4410   17.2560  -28.4970 N.2       1 IM4302      0.0000 
     15 N15        56.6010   17.1110  -27.7870 N.pl3     1 IM4302      0.0000 
     16 O16        56.6380   16.9290  -26.5050 O.2       1 IM4302      0.0000 
     17 O17        57.7160   17.1670  -28.4280 O.2       1 IM4302      0.0000 
     18 H          54.8922   17.1537  -32.8208 H         1 IM4302      0.0000 
     19 H          55.0484   15.1301  -34.1770 H         1 IM4302      0.0000 
     20 H          52.0617   15.2079  -30.3832 H         1 IM4302      0.0000 
     21 H          52.4626   18.2283  -31.0164 H         1 IM4302      0.0000 
     22 H          54.2233   18.2699  -30.8208 H         1 IM4302      0.0000 
     23 H          51.2737   16.5590  -28.8514 H         1 IM4302      0.0000 
     24 H          51.3383   18.3116  -28.5982 H         1 IM4302      0.0000 
     25 H          51.7179   16.2323  -26.7038 H         1 IM4302      0.0000 
     26 H          51.7819   17.9850  -26.4505 H         1 IM4302      0.0000 
     27 H          54.0999   16.9587  -26.1138 H         1 IM4302      0.0000 
@<TRIPOS>BOND
     1    2    1 ar   
     2    7    1 ar   
     3   18    1 1    
     4    3    2 ar   
     5   19    2 1    
     6    4    3 1    
     7    5    3 ar   
     8    6    5 ar   
     9    7    6 ar   
    10   20    6 1    
    11    8    7 1    
    12    9    8 1    
    13   21    8 1    
    14   22    8 1    
    15   10    9 1    
    16   13    9 1    
    17   11   10 1    
    18   23   10 1    
    19   24   10 1    
    20   12   11 1    
    21   25   11 1    
    22   26   11 1    
    23   13   12 1    
    24   27   12 1    
    25   14   13 2    
    26   15   14 1    
    27   16   15 2    
    28   17   15 2    
@<TRIPOS>SUBSTRUCTURE
     1 IM4302      1 GROUP   
@<TRIPOS>SET

