#    Name: 2xyo_FAD_1_INTS_M
#    Modification time : Tue Mar 25 07:08:36 2014

@<TRIPOS>MOLECULE
2xyo_FAD_1_INTS_M
   89     0     9     0     0
SMALL
NO_CHARGES


@<TRIPOS>ATOM
      1 CA         29.4935   11.0190   19.6630 C.3       3 GLC5        0.0000 
      2 CA         28.7170   11.0680   17.8170 C.3       9 GLL5        0.0000 
      3 CA         30.2700   10.9700   21.5090 C.3       6 GLP5        0.0000 
      4 CA         29.6615   13.6760   15.9395 C.3       3 GLC5        0.0000 
      5 CA         28.9630   11.6920   16.4740 C.3       9 GLL5        0.0000 
      6 CA         30.3600   15.6600   15.4050 C.3       6 GLP5        0.0000 
      7 O          28.6805   12.1120   13.4500 O.2       1 ALC1        0.0000 
      8 O          28.3550   10.9730   14.1840 O.2       7 ALL1        0.0000 
      9 O          29.0060   13.2510   12.7160 O.2       4 ALP1        0.0000 
     10 O          30.3440   10.9055   12.7475 O.2       1 ALC1        0.0000 
     11 O          30.7660   10.3110   13.7350 O.2       7 ALL1        0.0000 
     12 O          29.9220   11.5000   11.7600 O.2       4 ALP1        0.0000 
     13 CA         30.6700   13.7680   15.4395 C.3       3 GLC5        0.0000 
     14 CA         30.9800   11.8760   15.4740 C.3       9 GLL5        0.0000 
     15 CA         31.2920   12.7580   17.3265 C.3       3 GLC5        0.0000 
     16 CA         31.6040   13.6400   19.1790 C.3       6 GLP5        0.0000 
     17 CA         37.0800   12.2540   13.8620 C.3       3 GLC5        0.0000 
     18 CA         35.6460   12.9390   15.2440 C.3       9 GLL5        0.0000 
     19 CA         38.5140   11.5690   12.4800 C.3       6 GLP5        0.0000 
     20 O          38.1000   13.3830   15.4885 O.2       1 ALC1        0.0000 
     21 O          36.8800   12.6450   15.6190 O.2       7 ALL1        0.0000 
     22 O          39.3200   14.1210   15.3580 O.2       4 ALP1        0.0000 
     23 N          36.7125   14.6330   13.8195 N.am      2 SEC2        0.0000 
     24 N          35.4690   14.0670   14.4940 N.am      8 SEL2        0.0000 
     25 N          37.9560   15.1990   13.1450 N.am      5 SEP2        0.0000 
     26 CA         34.3600   15.8075   15.3515 C.3       3 GLC5        0.0000 
     27 CA         34.2240   14.4620   14.0900 C.3       9 GLL5        0.0000 
     28 CA         34.4960   17.1530   16.6130 C.3       6 GLP5        0.0000 
     29 CA         32.2920   15.0610   14.7475 C.3       3 GLC5        0.0000 
     30 CA         32.7705   14.7075   12.4675 C.3       3 GLC5        0.0000 
     31 CA         31.3170   14.9530   10.8450 C.3       6 GLP5        0.0000 
     32 CA         33.9630   12.6725   12.9990 C.3       3 GLC5        0.0000 
     33 CA         33.7020   10.8830   11.9080 C.3       6 GLP5        0.0000 
     34 CA         35.8705   14.0595   12.7065 C.3       3 GLC5        0.0000 
     35 CA         37.5170   13.6570   11.3230 C.3       6 GLP5        0.0000 
     36 CA         31.8235   14.1355   15.3150 C.3       3 GLC5        0.0000 
     37 CA         33.2870   12.6110   15.2250 C.3       9 GLL5        0.0000 
     38 N          19.5380    8.9775   25.0280 N.am      2 SEC2        0.0000 
     39 N          18.8060    7.8490   24.9150 N.am      8 SEL2        0.0000 
     40 N          20.2700   10.1060   25.1410 N.am      5 SEP2        0.0000 
     41 CA         24.0510   -2.4130   22.2270 C.3       3 GLC5        0.0000 
     42 CA         23.8620   -0.6670   23.5020 C.3       9 GLL5        0.0000 
     43 CA         24.2400   -4.1590   20.9520 C.3       6 GLP5        0.0000 
     44 CA         27.3730    0.6705   23.1575 C.3       3 GLC5        0.0000 
     45 CA         25.7800    1.4090   23.6790 C.3       9 GLL5        0.0000 
     46 CA         28.9660   -0.0680   22.6360 C.3       6 GLP5        0.0000 
     47 CA         20.8490    6.9935   22.0575 C.3       3 GLC5        0.0000 
     48 CA         22.6950    6.8430   23.1870 C.3       9 GLL5        0.0000 
     49 CA         19.0030    7.1440   20.9280 C.3       6 GLP5        0.0000 
     50 N          22.4165    5.6975   21.1970 N.am      2 SEC2        0.0000 
     51 N          23.0180    6.0860   22.0360 N.am      8 SEL2        0.0000 
     52 N          21.8150    5.3090   20.3580 N.am      5 SEP2        0.0000 
     53 O          24.4270    9.4320   24.7555 O.2       1 ALC1        0.0000 
     54 O          23.1960    8.9220   24.3250 O.2       7 ALL1        0.0000 
     55 O          25.6580    9.9420   25.1860 O.2       4 ALP1        0.0000 
     56 CA         21.5300    9.8335   22.3840 C.3       3 GLC5        0.0000 
     57 CA         23.4840    8.9350   21.9540 C.3       9 GLL5        0.0000 
     58 CA         19.5760   10.7320   22.8140 C.3       6 GLP5        0.0000 
     59 N          22.7770    7.4020   19.6720 N.am      2 SEC2        0.0000 
     60 N          23.5300    8.1280   20.7760 N.am      8 SEL2        0.0000 
     61 N          22.0240    6.6760   18.5680 N.am      5 SEP2        0.0000 
     62 N          22.6725    6.7185   20.5670 N.am      2 SEC2        0.0000 
     63 CA         26.1900   10.2625   23.1490 C.3       3 GLC5        0.0000 
     64 CA         24.6470    9.9170   22.0090 C.3       9 GLL5        0.0000 
     65 CA         27.7330   10.6080   24.2890 C.3       6 GLP5        0.0000 
     66 N          23.8350   13.8000   19.3480 N.am      2 SEC2        0.0000 
     67 N          24.9880   12.8870   19.6570 N.am      8 SEL2        0.0000 
     68 N          22.6820   14.7130   19.0390 N.am      5 SEP2        0.0000 
     69 N          26.2405   12.9280   23.3800 N.am      2 SEC2        0.0000 
     70 N          25.5910   12.9310   22.0400 N.am      8 SEL2        0.0000 
     71 N          26.8900   12.9250   24.7200 N.am      5 SEP2        0.0000 
     72 CA         27.0590   12.2035   16.7712 C.3       3 GLC5        0.0000 
     73 CA         25.2780   13.0270   16.3970 C.3       6 GLP5        0.0000 
     74 CA         30.2220   12.5100   18.1623 C.3       3 GLC5        0.0000 
     75 CA         33.9459   11.7340   13.6189 C.3       3 GLC5        0.0000 
     76 CA         34.5390   12.1790   15.6250 C.3       9 GLL5        0.0000 
     77 CA         33.5904   13.2390   16.9309 C.3       3 GLC5        0.0000 
     78 CA         32.9910   13.8930   18.5320 C.3       6 GLP5        0.0000 
     79 CA         23.6822    0.7905   25.4318 C.3       3 GLC5        0.0000 
     80 CA         23.3810    0.7430   23.7150 C.3       9 GLL5        0.0000 
     81 CA         23.7430    1.5430   27.2550 C.3       6 GLP5        0.0000 
     82 CA         24.1159    1.9440   25.5625 C.3       3 GLC5        0.0000 
     83 CA         24.3310    1.7670   23.8030 C.3       9 GLL5        0.0000 
     84 CA         22.2846    2.3167   25.6351 C.3       3 GLC5        0.0000 
     85 CA         22.5500    3.4240   24.1010 C.3       9 GLL5        0.0000 
     86 CA         22.3960    2.0650   27.2550 C.3       6 GLP5        0.0000 
     87 CA         22.2469    8.0436   25.1904 C.3       3 GLC5        0.0000 
     88 CA         22.9460    5.9760   24.4160 C.3       9 GLL5        0.0000 
     89 CA         21.3070    8.8310   26.8640 C.3       6 GLP5        0.0000 
@<TRIPOS>BOND
@<TRIPOS>SUBSTRUCTURE
     1 ALC1        7 GROUP        1 X    ALC  0     ROOT ALC X 1
     2 SEC2       23 GROUP        1 X    SEC  0     **** SEC X 2
     3 GLC5        1 GROUP        1 X    GLC  0     **** GLC X 6
     4 ALP1        9 GROUP        1 Y    ALP  0     ROOT ALP Y 8
     5 SEP2       25 GROUP        1 Y    SEP  0     **** SEP Y 9
     6 GLP5        3 GROUP        1 Y    GLP  0     **** GLP Y 13
     7 ALL1        8 GROUP        1 Z    ALL  0     ROOT ALL Z 15
     8 SEL2       24 GROUP        1 Z    SEL  0     **** SEL Z 16
     9 GLL5        2 GROUP        1 Z    GLL  0     **** GLL Z 20
@<TRIPOS>SET

