#    Name: 2xyo_FAD_1_ligand
#    Modification time : Tue Mar 25 07:08:36 2014

@<TRIPOS>MOLECULE
2xyo_FAD_1_ligand
   84    89     1     0     0
SMALL
NO_CHARGES


@<TRIPOS>ATOM
      1 PA         26.7300   10.1440   19.2810 P.3       1 FAD1384     0.0000 
      2 O1A        27.6820    8.9840   19.5820 O.co2     1 FAD1384     0.0000 
      3 O2A        25.3000    9.7710   18.9040 O.co2     1 FAD1384     0.0000 
      4 O5B        27.3520   10.8350   17.9540 O.3       1 FAD1384     0.0000 
      5 C5B        28.7170   11.0680   17.8170 C.3       1 FAD1384     0.0000 
      6 C4B        28.9630   11.6920   16.4740 C.3       1 FAD1384     0.0000 
      7 O4B        30.2590   12.2430   16.6020 O.3       1 FAD1384     0.0000 
      8 C3B        29.0240   10.6160   15.3830 C.3       1 FAD1384     0.0000 
      9 O3B        28.3550   10.9730   14.1840 O.3       1 FAD1384     0.0000 
     10 C2B        30.4940   10.5090   15.0920 C.3       1 FAD1384     0.0000 
     11 O2B        30.7660   10.3110   13.7350 O.3       1 FAD1384     0.0000 
     12 C1B        30.9800   11.8760   15.4740 C.3       1 FAD1384     0.0000 
     13 N9A        32.3750   11.7510   15.7380 N.pl3     1 FAD1384     0.0000 
     14 C8A        33.0200   10.7720   16.4230 C.2       1 FAD1384     0.0000 
     15 N7A        34.3550   11.0410   16.3550 N.2       1 FAD1384     0.0000 
     16 C5A        34.5390   12.1790   15.6250 C.ar      1 FAD1384     0.0000 
     17 C6A        35.6460   12.9390   15.2440 C.ar      1 FAD1384     0.0000 
     18 N6A        36.8800   12.6450   15.6190 N.pl3     1 FAD1384     0.0000 
     19 N1A        35.4690   14.0670   14.4940 N.ar      1 FAD1384     0.0000 
     20 C2A        34.2240   14.4620   14.0900 C.ar      1 FAD1384     0.0000 
     21 N3A        33.1410   13.7220   14.4740 N.ar      1 FAD1384     0.0000 
     22 C4A        33.2870   12.6110   15.2250 C.ar      1 FAD1384     0.0000 
     23 N1         20.4380    6.3410   24.6220 N.2       1 FAD1384     0.0000 
     24 C2         19.1210    6.6730   24.7320 C.2       1 FAD1384     0.0000 
     25 O2         18.8060    7.8490   24.9150 O.2       1 FAD1384     0.0000 
     26 N3         18.1980    5.6610   24.6230 N.am      1 FAD1384     0.0000 
     27 C4         18.5950    4.3520   24.4380 C.2       1 FAD1384     0.0000 
     28 O4         17.8390    3.4200   24.3630 O.2       1 FAD1384     0.0000 
     29 C4X        19.8830    4.0040   24.3300 C.2       1 FAD1384     0.0000 
     30 N5         20.2380    2.6710   24.1500 N.2       1 FAD1384     0.0000 
     31 C5X        21.5900    2.3780   24.0230 C.ar      1 FAD1384     0.0000 
     32 C6         22.0030    1.0480   23.8360 C.ar      1 FAD1384     0.0000 
     33 C7         23.3810    0.7430   23.7150 C.ar      1 FAD1384     0.0000 
     34 C7M        23.8620   -0.6670   23.5020 C.3       1 FAD1384     0.0000 
     35 C8         24.3310    1.7670   23.8030 C.ar      1 FAD1384     0.0000 
     36 C8M        25.7800    1.4090   23.6790 C.3       1 FAD1384     0.0000 
     37 C9         23.9220    3.1020   23.9990 C.ar      1 FAD1384     0.0000 
     38 C9A        22.5500    3.4240   24.1010 C.ar      1 FAD1384     0.0000 
     39 N10        22.1110    4.7470   24.3010 N.pl3     1 FAD1384     0.0000 
     40 C10        20.7960    5.0280   24.4170 C.2       1 FAD1384     0.0000 
     41 C1'        22.9460    5.9760   24.4160 C.3       1 FAD1384     0.0000 
     42 C2'        22.6950    6.8430   23.1870 C.3       1 FAD1384     0.0000 
     43 O2'        23.0180    6.0860   22.0360 O.3       1 FAD1384     0.0000 
     44 C3'        23.5530    8.1030   23.2320 C.3       1 FAD1384     0.0000 
     45 O3'        23.1960    8.9220   24.3250 O.3       1 FAD1384     0.0000 
     46 C4'        23.4840    8.9350   21.9540 C.3       1 FAD1384     0.0000 
     47 O4'        23.5300    8.1280   20.7760 O.3       1 FAD1384     0.0000 
     48 C5'        24.6470    9.9170   22.0090 C.3       1 FAD1384     0.0000 
     49 O5'        24.3930   10.9500   21.0910 O.3       1 FAD1384     0.0000 
     50 P          25.4780   12.0830   20.8310 P.3       1 FAD1384     0.0000 
     51 O1P        24.9880   12.8870   19.6570 O.co2     1 FAD1384     0.0000 
     52 O2P        25.5910   12.9310   22.0400 O.co2     1 FAD1384     0.0000 
     53 O3P        26.7640   11.2120   20.5130 O.3       1 FAD1384     0.0000 
     54 H          29.3070   10.1428   17.8731 H         1 FAD1384     0.0000 
     55 H          29.1035   11.7532   18.5840 H         1 FAD1384     0.0000 
     56 H          28.2392   12.4004   16.2564 H         1 FAD1384     0.0000 
     57 H          28.7031    9.6949   15.8001 H         1 FAD1384     0.0000 
     58 H          30.9300    9.8085   15.7431 H         1 FAD1384     0.0000 
     59 H          30.7977   12.5232   14.6414 H         1 FAD1384     0.0000 
     60 H          32.6169   10.0316   16.8702 H         1 FAD1384     0.0000 
     61 H          36.9803   11.8511   16.2187 H         1 FAD1384     0.0000 
     62 H          37.6007   13.2433   15.2687 H         1 FAD1384     0.0000 
     63 H          34.1048   15.3008   13.5077 H         1 FAD1384     0.0000 
     64 H          17.1833    5.8820   24.6804 H         1 FAD1384     0.0000 
     65 H          21.3123    0.2963   23.7866 H         1 FAD1384     0.0000 
     66 H          24.6241    3.8454   24.0682 H         1 FAD1384     0.0000 
     67 H          23.9965    5.7157   24.4546 H         1 FAD1384     0.0000 
     68 H          22.6738    6.5350   25.3027 H         1 FAD1384     0.0000 
     69 H          21.6585    7.1347   23.1882 H         1 FAD1384     0.0000 
     70 H          24.6055    7.7799   23.3431 H         1 FAD1384     0.0000 
     71 H          22.5678    9.5224   22.0031 H         1 FAD1384     0.0000 
     72 H          25.5596    9.3634   21.7723 H         1 FAD1384     0.0000 
     73 H          24.7244   10.2818   23.0368 H         1 FAD1384     0.0000 
     74 H          24.8589   -0.7137   23.4379 H         1 FAD1384     0.0000 
     75 H          23.5879   -1.2701   24.2511 H         1 FAD1384     0.0000 
     76 H          23.4953   -1.0612   22.6593 H         1 FAD1384     0.0000 
     77 H          26.3690    2.2138   23.7522 H         1 FAD1384     0.0000 
     78 H          26.0670    0.7699   24.3925 H         1 FAD1384     0.0000 
     79 H          25.9819    0.9770   22.8000 H         1 FAD1384     0.0000 
     80 H          28.7818   11.8299   13.8950 H         1 FAD1384     0.0000 
     81 H          30.2182   10.9986   13.2584 H         1 FAD1384     0.0000 
     82 H          23.6997    6.6326   21.5498 H         1 FAD1384     0.0000 
     83 H          24.0574    9.3169   24.6445 H         1 FAD1384     0.0000 
     84 H          24.0835    8.6495   20.1266 H         1 FAD1384     0.0000 
@<TRIPOS>BOND
     1    2    1 ar   
     2    3    1 ar   
     3    4    1 1    
     4   53    1 1    
     5    5    4 1    
     6    6    5 1    
     7   54    5 1    
     8   55    5 1    
     9    7    6 1    
    10    8    6 1    
    11   56    6 1    
    12   12    7 1    
    13    9    8 1    
    14   10    8 1    
    15   57    8 1    
    16   80    9 1    
    17   11   10 1    
    18   12   10 1    
    19   58   10 1    
    20   81   11 1    
    21   13   12 1    
    22   59   12 1    
    23   14   13 1    
    24   22   13 1    
    25   15   14 2    
    26   60   14 1    
    27   16   15 1    
    28   17   16 ar   
    29   22   16 ar   
    30   18   17 1    
    31   19   17 ar   
    32   61   18 1    
    33   62   18 1    
    34   20   19 ar   
    35   21   20 ar   
    36   63   20 1    
    37   22   21 ar   
    38   24   23 1    
    39   40   23 2    
    40   25   24 2    
    41   26   24 am   
    42   27   26 am   
    43   64   26 1    
    44   28   27 2    
    45   29   27 1    
    46   30   29 2    
    47   40   29 1    
    48   31   30 1    
    49   32   31 ar   
    50   38   31 ar   
    51   33   32 ar   
    52   65   32 1    
    53   34   33 1    
    54   35   33 ar   
    55   74   34 1    
    56   75   34 1    
    57   76   34 1    
    58   36   35 1    
    59   37   35 ar   
    60   77   36 1    
    61   78   36 1    
    62   79   36 1    
    63   38   37 ar   
    64   66   37 1    
    65   39   38 1    
    66   40   39 1    
    67   41   39 1    
    68   42   41 1    
    69   67   41 1    
    70   68   41 1    
    71   43   42 1    
    72   44   42 1    
    73   69   42 1    
    74   82   43 1    
    75   45   44 1    
    76   46   44 1    
    77   70   44 1    
    78   83   45 1    
    79   47   46 1    
    80   48   46 1    
    81   71   46 1    
    82   84   47 1    
    83   49   48 1    
    84   72   48 1    
    85   73   48 1    
    86   50   49 1    
    87   51   50 ar   
    88   52   50 ar   
    89   53   50 1    
@<TRIPOS>SUBSTRUCTURE
     1 FAD1384     1 GROUP   
@<TRIPOS>SET

