#    Name: 4h84_Y38_1_INTS_M
#    Modification time : Tue Mar 25 00:39:09 2014

@<TRIPOS>MOLECULE
4h84_Y38_1_INTS_M
   74     0     9     0     0
SMALL
NO_CHARGES


@<TRIPOS>ATOM
      1 N          -4.7645    0.5825   -2.8465 N.am      1 SEC2        0.0000 
      2 N          -5.9280   -0.0550   -2.2690 N.am      7 SEL2        0.0000 
      3 N          -3.6010    1.2200   -3.4240 N.am      4 SEP2        0.0000 
      4 Zn         -9.7065   -1.9040   -1.4645 Zn        2 ZIC7        0.0000 
      5 Zn         -7.4810   -1.4010   -0.9160 Zn        8 ZIL7        0.0000 
      6 Zn        -11.9320   -2.4070   -2.0130 Zn        5 ZIP7        0.0000 
      7 CA         -9.6880    2.9075   -0.0145 C.3       3 GLC5        0.0000 
      8 CA        -10.1100    1.1330    0.4030 C.3       9 GLL5        0.0000 
      9 CA         -9.2660    4.6820   -0.4320 C.3       6 GLP5        0.0000 
     10 CA         -5.9045    0.5485    1.0885 C.3       3 GLC5        0.0000 
     11 CA         -7.6830    1.0490    0.9910 C.3       9 GLL5        0.0000 
     12 CA         -4.1260    0.0480    1.1860 C.3       6 GLP5        0.0000 
     13 CA         -8.4745    2.8655    0.2795 C.3       3 GLC5        0.0000 
     14 Zn        -11.1265   -2.1340   -1.5955 Zn        2 ZIC7        0.0000 
     15 Zn        -10.3210   -1.8610   -1.1780 Zn        8 ZIL7        0.0000 
     16 N         -10.0710    0.5690   -3.6190 N.am      1 SEC2        0.0000 
     17 N         -10.2550   -0.1860   -2.5580 N.am      7 SEL2        0.0000 
     18 N          -9.8870    1.3240   -4.6800 N.am      4 SEP2        0.0000 
     19 CA         -5.5255   -1.2440    1.2385 C.3       3 GLC5        0.0000 
     20 CA         -6.9250   -2.5360    1.2910 C.3       9 GLL5        0.0000 
     21 CA         -6.5280   -7.3710    5.3365 C.3       3 GLC5        0.0000 
     22 CA         -7.3710   -7.6350    3.8100 C.3       9 GLL5        0.0000 
     23 CA         -5.6850   -7.1070    6.8630 C.3       6 GLP5        0.0000 
     24 CA        -10.1120   -7.9350    1.8615 C.3       3 GLC5        0.0000 
     25 CA         -9.7650   -7.3200    3.9870 C.3       9 GLL5        0.0000 
     26 CA        -10.4590   -8.5500   -0.2640 C.3       6 GLP5        0.0000 
     27 CA         -5.8725   -0.2905   -5.0620 C.3       3 GLC5        0.0000 
     28 CA         -7.5520   -1.2220   -4.3800 C.3       9 GLL5        0.0000 
     29 CA         -4.1930    0.6410   -5.7440 C.3       6 GLP5        0.0000 
     30 CA         -6.0875   -1.7080   -6.1595 C.3       3 GLC5        0.0000 
     31 CA         -8.1200   -1.7810   -5.5360 C.3       9 GLL5        0.0000 
     32 CA         -4.0550   -1.6350   -6.7830 C.3       6 GLP5        0.0000 
     33 CA         -7.9530   -0.3235   -7.1100 C.3       3 GLC5        0.0000 
     34 CA         -7.7860    1.1340   -8.6840 C.3       6 GLP5        0.0000 
     35 CA         -7.3860   -6.0280   -4.3585 C.3       3 GLC5        0.0000 
     36 CA         -7.7300   -3.9690   -4.6710 C.3       9 GLL5        0.0000 
     37 CA         -7.0420   -8.0870   -4.0460 C.3       6 GLP5        0.0000 
     38 CA         -9.5315   -6.4763    1.3855 C.3       3 GLC5        0.0000 
     39 CA         -8.3660   -5.5710    3.0910 C.3       9 GLL5        0.0000 
     40 CA        -10.0680   -7.1440   -0.4980 C.3       6 GLP5        0.0000 
     41 CA         -7.3133   -6.0530    5.1242 C.3       3 GLC5        0.0000 
     42 CA         -6.8240   -6.1440    7.0700 C.3       6 GLP5        0.0000 
     43 CA         -5.8810   -7.5160    2.4895 C.3       3 GLC5        0.0000 
     44 CA         -7.2390   -6.3530    3.2660 C.3       9 GLL5        0.0000 
     45 CA         -4.4570   -8.0380    1.4410 C.3       6 GLP5        0.0000 
     46 CA         -8.0122   -6.9285    5.5728 C.3       3 GLC5        0.0000 
     47 CA         -8.6360   -8.1060    4.1640 C.3       9 GLL5        0.0000 
     48 CA         -9.9295   -2.1369   -5.1647 C.3       3 GLC5        0.0000 
     49 CA         -8.2380   -3.1600   -5.6970 C.3       9 GLL5        0.0000 
     50 CA        -11.8220   -1.9430   -5.0020 C.3       6 GLP5        0.0000 
     51 CA         -6.9870   -4.9928   -6.2575 C.3       3 GLC5        0.0000 
     52 CA         -5.9900   -6.4210   -7.3310 C.3       6 GLP5        0.0000 
     53 CA        -10.6288   -3.4760   -6.5553 C.3       3 GLC5        0.0000 
     54 CA         -8.7670   -3.7780   -6.9460 C.3       9 GLL5        0.0000 
     55 CA        -12.1210   -2.5800   -6.1650 C.3       6 GLP5        0.0000 
     56 CA         -7.5633   -5.3965   -7.1383 C.3       3 GLC5        0.0000 
     57 CA         -9.5060   -4.9660   -6.9450 C.3       9 GLL5        0.0000 
     58 CA        -10.9787   -3.6547   -8.1710 C.3       3 GLC5        0.0000 
     59 CA         -9.9270   -5.5280   -8.1590 C.3       9 GLL5        0.0000 
     60 CA        -12.2020   -2.0760   -7.5750 C.3       6 GLP5        0.0000 
     61 CA        -11.7272   -5.3042   -9.6550 C.3       3 GLC5        0.0000 
     62 CA        -13.6990   -5.3750  -10.5430 C.3       6 GLP5        0.0000 
     63 CA         -7.8727   -5.8272   -8.0490 C.3       3 GLC5        0.0000 
     64 CA         -9.5840   -4.9390   -9.3750 C.3       9 GLL5        0.0000 
     65 CA         -9.2918   -6.9667   -9.8700 C.3       3 GLC5        0.0000 
     66 CA         -8.8280   -8.7000  -10.9730 C.3       6 GLP5        0.0000 
     67 CA         -9.2332   -3.8188  -11.4402 C.3       3 GLC5        0.0000 
     68 CA         -9.2640   -3.2810  -13.5000 C.3       6 GLP5        0.0000 
     69 CA         -8.8983   -1.8032   -9.5540 C.3       3 GLC5        0.0000 
     70 CA         -8.8210   -3.7740   -9.3860 C.3       9 GLL5        0.0000 
     71 CA         -9.1870   -0.1140  -10.3260 C.3       6 GLP5        0.0000 
     72 CA        -10.4058   -2.7843   -8.1785 C.3       3 GLC5        0.0000 
     73 CA         -7.2997   -4.9567   -8.0565 C.3       3 GLC5        0.0000 
     74 CA         -8.3980   -3.2110   -8.1780 C.3       9 GLL5        0.0000 
@<TRIPOS>BOND
@<TRIPOS>SUBSTRUCTURE
     1 SEC2        1 GROUP        1 X    SEC  0     ROOT SEC X 2
     2 ZIC7        4 GROUP        1 X    ZIC  0     **** ZIC X 5
     3 GLC5        7 GROUP        1 X    GLC  0     **** GLC X 6
     4 SEP2        3 GROUP        1 Y    SEP  0     ROOT SEP Y 9
     5 ZIP7        6 GROUP        1 Y    ZIP  0     **** ZIP Y 12
     6 GLP5        9 GROUP        1 Y    GLP  0     **** GLP Y 13
     7 SEL2        2 GROUP        1 Z    SEL  0     ROOT SEL Z 16
     8 ZIL7        5 GROUP        1 Z    ZIL  0     **** ZIL Z 19
     9 GLL5        8 GROUP        1 Z    GLL  0     **** GLL Z 20
@<TRIPOS>SET

