#    Name: 4h84_Y38_1_ligand
#    Modification time : Tue Mar 25 00:39:09 2014

@<TRIPOS>MOLECULE
4h84_Y38_1_ligand
   61    63     1     0     0
SMALL
NO_CHARGES


@<TRIPOS>ATOM
      1 O15        -5.3120   -2.2980   -1.5410 O.2       1 Y38306      0.0000 
      2 S13        -6.3980   -1.4130   -2.0020 S.o2      1 Y38306      0.0000 
      3 O14        -5.9280   -0.0550   -2.2690 O.2       1 Y38306      0.0000 
      4 N16        -7.4810   -1.4010   -0.9160 N.pl3     1 Y38306      0.0000 
      5 C17        -8.5020   -0.3320   -0.9360 C.3       1 Y38306      0.0000 
      6 C18        -8.8610    0.2490    0.4480 C.3       1 Y38306      0.0000 
      7 C19       -10.1100    1.1330    0.4030 C.3       1 Y38306      0.0000 
      8 C20        -7.6830    1.0490    0.9910 C.3       1 Y38306      0.0000 
      9 C21        -9.7620   -0.8250   -1.6040 C.2       1 Y38306      0.0000 
     10 O22       -10.3210   -1.8610   -1.1780 O.co2     1 Y38306      0.0000 
     11 O23       -10.2550   -0.1860   -2.5580 O.co2     1 Y38306      0.0000 
     12 C24        -7.6580   -2.5850   -0.0500 C.3       1 Y38306      0.0000 
     13 C25        -6.9250   -2.5360    1.2910 C.3       1 Y38306      0.0000 
     14 N26        -7.0760   -3.8010    2.0070 N.am      1 Y38306      0.0000 
     15 C27        -8.2470   -4.1920    2.5090 C.2       1 Y38306      0.0000 
     16 O28        -9.2370   -3.4820    2.5090 O.2       1 Y38306      0.0000 
     17 C29        -8.3660   -5.5710    3.0910 C.ar      1 Y38306      0.0000 
     18 C34        -7.2390   -6.3530    3.2660 C.ar      1 Y38306      0.0000 
     19 C31        -7.3710   -7.6350    3.8100 C.ar      1 Y38306      0.0000 
     20 C32        -8.6360   -8.1060    4.1640 C.ar      1 Y38306      0.0000 
     21 C3B        -9.6240   -6.0460    3.4470 C.ar      1 Y38306      0.0000 
     22 C33        -9.7650   -7.3200    3.9870 C.ar      1 Y38306      0.0000 
     23 C10        -7.0550   -2.0350   -3.3480 C.ar      1 Y38306      0.0000 
     24 C11        -7.5520   -1.2220   -4.3800 C.ar      1 Y38306      0.0000 
     25 C12        -8.1200   -1.7810   -5.5360 C.ar      1 Y38306      0.0000 
     26 C7         -8.2380   -3.1600   -5.6970 C.ar      1 Y38306      0.0000 
     27 C8         -7.7300   -3.9690   -4.6710 C.ar      1 Y38306      0.0000 
     28 C9         -7.1670   -3.4190   -3.5140 C.ar      1 Y38306      0.0000 
     29 C1         -8.7670   -3.7780   -6.9460 C.ar      1 Y38306      0.0000 
     30 C2         -9.5060   -4.9660   -6.9450 C.ar      1 Y38306      0.0000 
     31 C3         -9.9270   -5.5280   -8.1590 C.ar      1 Y38306      0.0000 
     32 C4         -9.5840   -4.9390   -9.3750 C.ar      1 Y38306      0.0000 
     33 C5         -8.8210   -3.7740   -9.3860 C.ar      1 Y38306      0.0000 
     34 C6         -8.3980   -3.2110   -8.1780 C.ar      1 Y38306      0.0000 
     35 H          -8.1297    0.5114   -1.5487 H         1 Y38306      0.0000 
     36 H          -9.0468   -0.5787    1.1254 H         1 Y38306      0.0000 
     37 H          -7.3247   -3.5023   -0.5888 H         1 Y38306      0.0000 
     38 H          -8.7416   -2.7443    0.1580 H         1 Y38306      0.0000 
     39 H          -7.3358   -1.7051    1.8750 H         1 Y38306      0.0000 
     40 H          -5.8686   -2.3214    1.0955 H         1 Y38306      0.0000 
     41 H          -6.2114   -4.3745    2.0987 H         1 Y38306      0.0000 
     42 H          -6.3135   -6.0036    3.0022 H         1 Y38306      0.0000 
     43 H          -6.5446   -8.2223    3.9468 H         1 Y38306      0.0000 
     44 H          -8.7292   -9.0557    4.5640 H         1 Y38306      0.0000 
     45 H         -10.4542   -5.4520    3.3102 H         1 Y38306      0.0000 
     46 H         -10.6889   -7.6706    4.2493 H         1 Y38306      0.0000 
     47 H          -7.4986   -0.1956   -4.2867 H         1 Y38306      0.0000 
     48 H          -8.4582   -1.1489   -6.2848 H         1 Y38306      0.0000 
     49 H          -7.7730   -4.9994   -4.7729 H         1 Y38306      0.0000 
     50 H          -6.8271   -4.0490   -2.7670 H         1 Y38306      0.0000 
     51 H          -9.7398   -5.4255   -6.0602 H         1 Y38306      0.0000 
     52 H         -10.4971   -6.3874   -8.1481 H         1 Y38306      0.0000 
     53 H          -9.8922   -5.3618  -10.2565 H         1 Y38306      0.0000 
     54 H          -8.5693   -3.3294  -10.2742 H         1 Y38306      0.0000 
     55 H          -7.8057   -2.3662   -8.1879 H         1 Y38306      0.0000 
     56 H         -10.3328    1.5072    1.3032 H         1 Y38306      0.0000 
     57 H          -9.9934    1.9093   -0.2165 H         1 Y38306      0.0000 
     58 H         -10.9128    0.6259    0.0895 H         1 Y38306      0.0000 
     59 H          -6.8657    0.4823    1.0952 H         1 Y38306      0.0000 
     60 H          -7.4388    1.8072    0.3865 H         1 Y38306      0.0000 
     61 H          -7.8833    1.4424    1.8883 H         1 Y38306      0.0000 
@<TRIPOS>BOND
     1    2    1 2    
     2    3    2 2    
     3    4    2 1    
     4   23    2 1    
     5    5    4 1    
     6   12    4 1    
     7    6    5 1    
     8    9    5 1    
     9   35    5 1    
    10    7    6 1    
    11    8    6 1    
    12   36    6 1    
    13   56    7 1    
    14   57    7 1    
    15   58    7 1    
    16   59    8 1    
    17   60    8 1    
    18   61    8 1    
    19   10    9 ar   
    20   11    9 ar   
    21   13   12 1    
    22   37   12 1    
    23   38   12 1    
    24   14   13 1    
    25   39   13 1    
    26   40   13 1    
    27   15   14 am   
    28   41   14 1    
    29   16   15 2    
    30   17   15 1    
    31   18   17 ar   
    32   21   17 ar   
    33   19   18 ar   
    34   42   18 1    
    35   20   19 ar   
    36   43   19 1    
    37   22   20 ar   
    38   44   20 1    
    39   22   21 ar   
    40   45   21 1    
    41   46   22 1    
    42   24   23 ar   
    43   28   23 ar   
    44   25   24 ar   
    45   47   24 1    
    46   26   25 ar   
    47   48   25 1    
    48   27   26 ar   
    49   29   26 1    
    50   28   27 ar   
    51   49   27 1    
    52   50   28 1    
    53   30   29 ar   
    54   34   29 ar   
    55   31   30 ar   
    56   51   30 1    
    57   32   31 ar   
    58   52   31 1    
    59   33   32 ar   
    60   53   32 1    
    61   34   33 ar   
    62   54   33 1    
    63   55   34 1    
@<TRIPOS>SUBSTRUCTURE
     1 Y38306      1 GROUP   
@<TRIPOS>SET

