#    Name: 1Z45_1_CAVITY_N1_ALL.mol2
#    Modification time : Mon Mar 10 21:56:38 2014

@<TRIPOS>MOLECULE
1Z45_1_CAVITY_N1_ALL.mol2
  104     0     6     0     0
SMALL
NO_CHARGES


@<TRIPOS>ATOM
      1 OD1        15.5942   15.1237   -4.3057 O.3       3 ASP3        0.0000 
      2 OG         16.1258   13.7395   -4.5322 O.2       1 SER1        0.0000 
      3 OG         15.3669   13.2518   -3.3338 O.2       1 SER1        0.0000 
      4 O          16.2420   16.8180   -3.2059 O.2       2 ALA2        0.0000 
      5 O          15.4831   16.3303   -2.0075 O.2       2 ALA2        0.0000 
      6 DU         16.7737   15.4339   -3.4325 H         6 CUB7        0.0000 
      7 CA         16.0148   14.9462   -2.2341 C.3       5 GLY6        0.0000 
      8 CA         15.2559   14.4585   -1.0356 C.3       5 GLY6        0.0000 
      9 O          17.3054   14.0497   -3.6591 O.2       2 ALA2        0.0000 
     10 OG         16.5465   13.5620   -2.4606 O.2       1 SER1        0.0000 
     11 N          15.7876   13.0743   -1.2622 N.2       2 ALA2        0.0000 
     12 OG         17.0782   12.1778   -2.6872 O.2       1 SER1        0.0000 
     13 O          16.8899   18.5124   -2.1061 O.2       2 ALA2        0.0000 
     14 DU         18.1805   17.6159   -3.5311 H         6 CUB7        0.0000 
     15 O          17.4216   17.1282   -2.3327 O.2       2 ALA2        0.0000 
     16 O          16.6627   16.6405   -1.1343 O.2       2 ALA2        0.0000 
     17 CA         18.7122   16.2317   -3.7577 C.3       5 GLY6        0.0000 
     18 DU         17.9533   15.7440   -2.5593 H         6 CUB7        0.0000 
     19 OG         17.1943   15.2563   -1.3609 O.2       1 SER1        0.0000 
     20 CA         16.4354   14.7686   -0.1625 C.3       5 GLY6        0.0000 
     21 O          18.4850   14.3598   -2.7859 O.2       2 ALA2        0.0000 
     22 OG         17.7260   13.8721   -1.5875 O.2       1 SER1        0.0000 
     23 OG         16.9671   13.3844   -0.3890 O.2       1 SER1        0.0000 
     24 O          17.5377   20.2067   -1.0063 O.2       2 ALA2        0.0000 
     25 DU         18.8284   19.3102   -2.4313 H         6 CUB7        0.0000 
     26 O          18.0694   18.8225   -1.2329 O.2       2 ALA2        0.0000 
     27 O          17.3105   18.3348   -0.0345 O.2       2 ALA2        0.0000 
     28 CA         19.3600   17.9260   -2.6579 C.3       5 GLY6        0.0000 
     29 DU         18.6011   17.4383   -1.4595 H         6 CUB7        0.0000 
     30 CA         17.8422   16.9506   -0.2611 C.3       5 GLY6        0.0000 
     31 CA         19.8917   16.5418   -2.8845 C.3       5 GLY6        0.0000 
     32 CA         19.1328   16.0541   -1.6861 C.3       5 GLY6        0.0000 
     33 OG         18.3739   15.5665   -0.4877 O.2       1 SER1        0.0000 
     34 CA         17.6150   15.0788    0.7107 C.3       5 GLY6        0.0000 
     35 OG         19.6645   14.6700   -1.9127 O.2       1 SER1        0.0000 
     36 DU         18.9445   22.3887   -1.1049 H         6 CUB7        0.0000 
     37 O          18.1856   21.9010    0.0935 O.2       2 ALA2        0.0000 
     38 DU         20.2351   21.4922   -2.5300 H         6 CUB7        0.0000 
     39 DU         19.4762   21.0045   -1.3315 H         6 CUB7        0.0000 
     40 O          18.7173   20.5168   -0.1331 O.2       2 ALA2        0.0000 
     41 O          17.9584   20.0291    1.0653 O.2       2 ALA2        0.0000 
     42 DU         20.7668   20.1081   -2.7565 H         6 CUB7        0.0000 
     43 DU         20.0079   19.6204   -1.5581 H         6 CUB7        0.0000 
     44 DU         19.2490   19.1327   -0.3597 H         6 CUB7        0.0000 
     45 N          18.4901   18.6450    0.8387 N.2       2 ALA2        0.0000 
     46 N          17.7312   18.1573    2.0371 N.2       2 ALA2        0.0000 
     47 CA         21.2985   18.7239   -2.9831 C.3       5 GLY6        0.0000 
     48 CA         20.5396   18.2362   -1.7847 C.3       5 GLY6        0.0000 
     49 CA         19.7807   17.7485   -0.5863 C.3       5 GLY6        0.0000 
     50 DU         19.0218   17.2608    0.6121 H         6 CUB7        0.0000 
     51 CA         18.2628   16.7731    1.8105 C.3       5 GLY6        0.0000 
     52 CA         20.3124   16.3643   -0.8129 C.3       5 GLY6        0.0000 
     53 CA         19.5535   15.8766    0.3855 C.3       5 GLY6        0.0000 
     54 CA         18.7945   15.3889    1.5839 C.3       5 GLY6        0.0000 
     55 O          19.5924   24.0831   -0.0052 O.2       2 ALA2        0.0000 
     56 CA         20.8830   23.1866   -1.4302 C.3       5 GLY6        0.0000 
     57 O          20.1241   22.6989   -0.2318 O.2       2 ALA2        0.0000 
     58 N          21.4147   21.8024   -1.6568 N.2       2 ALA2        0.0000 
     59 DU         20.6558   21.3147   -0.4583 H         6 CUB7        0.0000 
     60 O          19.8969   20.8270    0.7401 O.2       2 ALA2        0.0000 
     61 N          22.7053   20.9059   -3.0818 N.2       2 ALA2        0.0000 
     62 DU         21.9464   20.4182   -1.8834 H         6 CUB7        0.0000 
     63 DU         21.1875   19.9305   -0.6849 H         6 CUB7        0.0000 
     64 DU         20.4285   19.4428    0.5135 H         6 CUB7        0.0000 
     65 N          19.6696   18.9551    1.7119 N.2       2 ALA2        0.0000 
     66 CA         23.2370   19.5217   -3.3084 C.3       5 GLY6        0.0000 
     67 CA         22.4781   19.0340   -2.1099 C.3       5 GLY6        0.0000 
     68 CA         21.7192   18.5463   -0.9115 C.3       5 GLY6        0.0000 
     69 DU         20.9602   18.0586    0.2869 H         6 CUB7        0.0000 
     70 DU         20.2013   17.5709    1.4853 H         6 CUB7        0.0000 
     71 N          19.4424   17.0832    2.6837 N.2       2 ALA2        0.0000 
     72 CA         21.4919   16.6744    0.0603 C.3       5 GLY6        0.0000 
     73 OG         20.7330   16.1867    1.2587 O.2       1 SER1        0.0000 
     74 OG         19.9741   15.6991    2.4571 O.2       1 SER1        0.0000 
     75 CZ         21.2647   14.8026    1.0321 C.ar      4 PHE5        0.0000 
     76 CA         20.7719   24.3932    0.8680 C.3       5 GLY6        0.0000 
     77 O          20.0130   23.9055    2.0664 O.2       2 ALA2        0.0000 
     78 CA         21.3036   23.0090    0.6414 C.3       5 GLY6        0.0000 
     79 O          20.5447   22.5213    1.8398 O.2       2 ALA2        0.0000 
     80 CA         22.5942   22.1125   -0.7836 C.3       5 GLY6        0.0000 
     81 O          21.8353   21.6248    0.4148 O.2       2 ALA2        0.0000 
     82 O          21.0764   21.1371    1.6133 O.2       2 ALA2        0.0000 
     83 O          20.3175   20.6494    2.8117 O.2       2 ALA2        0.0000 
     84 O          23.1259   20.7283   -1.0102 O.2       2 ALA2        0.0000 
     85 O          22.3670   20.2407    0.1882 O.2       2 ALA2        0.0000 
     86 N          21.6081   19.7530    1.3867 N.2       2 ALA2        0.0000 
     87 N          20.8492   19.2653    2.5851 N.2       2 ALA2        0.0000 
     88 O          23.6576   19.3442   -1.2368 O.2       2 ALA2        0.0000 
     89 O          22.8987   18.8565   -0.0383 O.2       2 ALA2        0.0000 
     90 N          22.1398   18.3688    1.1601 N.2       2 ALA2        0.0000 
     91 CZ         21.3809   17.8811    2.3585 C.ar      4 PHE5        0.0000 
     92 N          20.6220   17.3934    3.5569 N.2       2 ALA2        0.0000 
     93 N          23.4304   17.4723   -0.2649 N.2       2 ALA2        0.0000 
     94 CZ         22.6715   16.9846    0.9335 C.ar      4 PHE5        0.0000 
     95 OG         21.9126   16.4969    2.1319 O.2       1 SER1        0.0000 
     96 OG         21.1536   16.0092    3.3303 O.2       1 SER1        0.0000 
     97 CA         21.1926   24.2156    2.9396 C.3       5 GLY6        0.0000 
     98 CA         21.7243   22.8315    2.7130 C.3       5 GLY6        0.0000 
     99 CA         20.9654   22.3438    3.9115 C.3       5 GLY6        0.0000 
    100 N          22.2560   21.4473    2.4864 N.2       2 ALA2        0.0000 
    101 O          24.0783   19.1666    0.8348 O.2       2 ALA2        0.0000 
    102 N          23.3193   18.6789    2.0333 N.2       2 ALA2        0.0000 
    103 N          23.8510   17.2947    1.8067 N.2       2 ALA2        0.0000 
    104 CZ         23.0921   16.8070    3.0051 C.ar      4 PHE5        0.0000 
@<TRIPOS>BOND
@<TRIPOS>SUBSTRUCTURE
     1 SER1        2 GROUP   
     2 ALA2        4 GROUP   
     3 ASP3        1 GROUP   
     4 PHE5       75 GROUP   
     5 GLY6        7 GROUP   
     6 CUB7        6 GROUP   
@<TRIPOS>SET

