#    Name: 1z45_GUD_1_INTS_M
#    Modification time : Mon Apr  7 16:24:29 2014

@<TRIPOS>MOLECULE
1z45_GUD_1_INTS_M
   70     0    12     0     0
SMALL
NO_CHARGES


@<TRIPOS>ATOM
      1 O          19.0725   28.6810   -6.5170 O.2       1 ALC1        0.0000 
      2 O          19.4080   27.7780   -5.3860 O.2       9 ALL1        0.0000 
      3 O          18.7370   29.5840   -7.6480 O.2       5 ALP1        0.0000 
      4 CA         20.6375   26.7885   -2.6380 C.3       4 GLC5        0.0000 
      5 CA         20.3020   25.8130   -4.4410 C.3      12 GLL5        0.0000 
      6 CA         20.9730   27.7640   -0.8350 C.3       8 GLP5        0.0000 
      7 CA         19.5630   26.3345   -6.4070 C.3       4 GLC5        0.0000 
      8 CA         18.8240   26.8560   -8.3730 C.3       8 GLP5        0.0000 
      9 CA         18.8480   27.3095   -2.9460 C.3       4 GLC5        0.0000 
     10 CA         19.1160   25.5500   -3.9500 C.3      12 GLL5        0.0000 
     11 CA         18.5800   29.0690   -1.9420 C.3       8 GLP5        0.0000 
     12 N          16.4590   28.1850   -6.5080 N.am      2 SEC2        0.0000 
     13 N          17.1740   28.2680   -5.0840 N.am     10 SEL2        0.0000 
     14 N          15.7440   28.1020   -7.9320 N.am      6 SEP2        0.0000 
     15 CA         17.6345   27.5485   -2.7595 C.3       4 GLC5        0.0000 
     16 CA         16.6890   26.0280   -3.5770 C.3      12 GLL5        0.0000 
     17 CA         14.3645   24.0555   -4.3435 C.3       4 GLC5        0.0000 
     18 CA         16.4330   24.5330   -3.6590 C.3      12 GLL5        0.0000 
     19 CA         12.2960   23.5780   -5.0280 C.3       8 GLP5        0.0000 
     20 CA         13.8965   23.4420   -3.0710 C.3       4 GLC5        0.0000 
     21 CA         15.7210   24.1780   -2.3550 C.3      12 GLL5        0.0000 
     22 CA         12.0720   22.7060   -3.7870 C.3       8 GLP5        0.0000 
     23 CA         16.8485   26.8290   -0.6155 C.3       4 GLC5        0.0000 
     24 CA         16.3950   25.1610   -1.4440 C.3      12 GLL5        0.0000 
     25 CA         17.3020   28.4970    0.2130 C.3       8 GLP5        0.0000 
     26 CA         18.6465   26.1390   -0.5435 C.3       4 GLC5        0.0000 
     27 CA         17.7120   24.7590   -0.8480 C.3      12 GLL5        0.0000 
     28 CA         19.5810   27.5190   -0.2390 C.3       8 GLP5        0.0000 
     29 CA         16.9915   25.2585    1.0910 C.3       4 GLC5        0.0000 
     30 CA         16.2710   25.7580    3.0300 C.3       8 GLP5        0.0000 
     31 N          21.0075   25.3975   -0.3900 N.am      2 SEC2        0.0000 
     32 N          20.2890   24.2450    0.0200 N.am     10 SEL2        0.0000 
     33 N          21.7260   26.5500   -0.8000 N.am      6 SEP2        0.0000 
     34 N          18.6530   22.0225    1.4245 N.am      2 SEC2        0.0000 
     35 N          19.0690   21.9790    0.0200 N.am     10 SEL2        0.0000 
     36 N          18.2370   22.0660    2.8290 N.am      6 SEP2        0.0000 
     37 NZ         15.8840   19.5960   -0.5230 N.4       3 LYC4        0.0000 
     38 NZ         17.3360   20.3180    0.0700 N.4      11 LYL4        0.0000 
     39 NZ         13.6690   19.9590   -1.0010 N.4       7 LYP4        0.0000 
     40 N          17.7865   21.1920    1.4495 N.am      2 SEC2        0.0000 
     41 N          17.3360   20.3180    0.0700 N.am     10 SEL2        0.0000 
     42 N          15.8840   19.5960   -0.5230 N.am      2 SEC2        0.0000 
     43 N          14.4320   18.8740   -1.1160 N.am      6 SEP2        0.0000 
     44 CA         22.7930   15.3925    1.5230 C.3       4 GLC5        0.0000 
     45 CA         21.8430   17.1980    2.0990 C.3      12 GLL5        0.0000 
     46 CA         23.7430   13.5870    0.9470 C.3       8 GLP5        0.0000 
     47 CA         17.4375   15.6930    4.3740 C.3       4 GLC5        0.0000 
     48 CA         18.3290   16.9020    3.3440 C.3      12 GLL5        0.0000 
     49 CA         16.5460   14.4840    5.4040 C.3       8 GLP5        0.0000 
     50 CA         18.1345   17.4200    5.4460 C.3       4 GLC5        0.0000 
     51 CA         17.9400   17.9380    7.5480 C.3       8 GLP5        0.0000 
     52 CA         16.6830   16.5595    2.6145 C.3       4 GLC5        0.0000 
     53 CA         15.0370   16.2170    1.8850 C.3       8 GLP5        0.0000 
     54 N          24.0355   15.4040    2.7635 N.am      2 SEC2        0.0000 
     55 N          23.2040   16.8210    2.4940 N.am     10 SEL2        0.0000 
     56 N          24.8670   13.9870    3.0330 N.am      6 SEP2        0.0000 
     57 N          20.8510   14.6945    3.9010 N.am      2 SEC2        0.0000 
     58 N          20.6430   15.8500    3.9860 N.am     10 SEL2        0.0000 
     59 N          21.0590   13.5390    3.8160 N.am      6 SEP2        0.0000 
     60 N          16.4975   18.5890    4.0540 N.am      2 SEC2        0.0000 
     61 N          17.2210   17.6800    2.8740 N.am     10 SEL2        0.0000 
     62 N          15.7740   19.4980    5.2340 N.am      6 SEP2        0.0000 
     63 O          17.6200   18.9145    3.4205 O.2       1 ALC1        0.0000 
     64 O          17.2210   17.6800    2.8740 O.2       9 ALL1        0.0000 
     65 O          18.0190   20.1490    3.9670 O.2       5 ALP1        0.0000 
     66 CA         22.2106   17.4115    3.9897 C.3       4 GLC5        0.0000 
     67 CA         20.8270   17.0660    3.2490 C.3      12 GLL5        0.0000 
     68 CA         23.1130   17.3290    5.4520 C.3       8 GLP5        0.0000 
     69 CA         15.0248   26.1095   -2.3679 C.3       4 GLC5        0.0000 
     70 CA         13.7400   27.2440   -1.9770 C.3       8 GLP5        0.0000 
@<TRIPOS>BOND
@<TRIPOS>SUBSTRUCTURE
     1 ALC1        1 GROUP        1 X    ALC  0     ROOT ALC X 1
     2 SEC2       12 GROUP        1 X    SEC  0     **** SEC X 2
     3 LYC4       37 GROUP        1 X    LYC  0     **** LYC X 4
     4 GLC5        4 GROUP        1 X    GLC  0     **** GLC X 6
     5 ALP1        3 GROUP        1 Y    ALP  0     ROOT ALP Y 8
     6 SEP2       14 GROUP        1 Y    SEP  0     **** SEP Y 9
     7 LYP4       39 GROUP        1 Y    LYP  0     **** LYP Y 11
     8 GLP5        6 GROUP        1 Y    GLP  0     **** GLP Y 13
     9 ALL1        2 GROUP        1 Z    ALL  0     ROOT ALL Z 15
    10 SEL2       13 GROUP        1 Z    SEL  0     **** SEL Z 16
    11 LYL4       38 GROUP        1 Z    LYL  0     **** LYL Z 18
    12 GLL5        5 GROUP        1 Z    GLL  0     **** GLL Z 20
@<TRIPOS>SET

