#    Name: 1z45_GUD_1_ligand
#    Modification time : Mon Apr  7 16:24:29 2014

@<TRIPOS>MOLECULE
1z45_GUD_1_ligand
   58    60     1     0     0
SMALL
NO_CHARGES


@<TRIPOS>ATOM
      1 N1         18.0180   26.3790   -4.1470 N.am      1 GUD704      0.0000 
      2 C2         18.1330   27.5300   -4.8910 C.2       1 GUD704      0.0000 
      3 N3         19.4080   27.7780   -5.3860 N.am      1 GUD704      0.0000 
      4 C4         20.5570   26.9770   -5.2160 C.2       1 GUD704      0.0000 
      5 C5         20.3020   25.8130   -4.4410 C.2       1 GUD704      0.0000 
      6 C6         19.1160   25.5500   -3.9500 C.2       1 GUD704      0.0000 
      7 O2         17.1740   28.2680   -5.0840 O.2       1 GUD704      0.0000 
      8 O4         21.6580   27.2810   -5.6940 O.2       1 GUD704      0.0000 
      9 C1D        16.6890   26.0280   -3.5770 C.3       1 GUD704      0.0000 
     10 C2D        16.4330   24.5330   -3.6590 C.3       1 GUD704      0.0000 
     11 O2D        15.5180   24.2230   -4.7160 O.3       1 GUD704      0.0000 
     12 C3D        15.7210   24.1780   -2.3550 C.3       1 GUD704      0.0000 
     13 C4D        16.3950   25.1610   -1.4440 C.3       1 GUD704      0.0000 
     14 O4D        16.5210   26.3780   -2.2310 O.3       1 GUD704      0.0000 
     15 O3D        14.3350   24.4970   -2.4490 O.3       1 GUD704      0.0000 
     16 C5D        17.7120   24.7590   -0.8480 C.3       1 GUD704      0.0000 
     17 O5D        18.3290   23.6820   -1.5520 O.3       1 GUD704      0.0000 
     18 PA         19.7080   23.2120   -0.8740 P.3       1 GUD704      0.0000 
     19 O1A        20.8350   22.6400   -1.6800 O.co2     1 GUD704      0.0000 
     20 O2A        20.2890   24.2450    0.0200 O.co2     1 GUD704      0.0000 
     21 O3A        19.0690   21.9790    0.0200 O.3       1 GUD704      0.0000 
     22 PB         18.7490   20.5060   -0.3820 P.3       1 GUD704      0.0000 
     23 O1B        17.3360   20.3180    0.0700 O.co2     1 GUD704      0.0000 
     24 O2B        18.7830   20.3430   -1.8710 O.co2     1 GUD704      0.0000 
     25 O3B        19.8080   19.3600    0.2070 O.3       1 GUD704      0.0000 
     26 C1'        20.3510   19.3530    1.5380 C.3       1 GUD704      0.0000 
     27 C2'        21.7360   18.6460    1.5130 C.3       1 GUD704      0.0000 
     28 C3'        21.8430   17.1980    2.0990 C.3       1 GUD704      0.0000 
     29 C4'        20.8270   17.0660    3.2490 C.3       1 GUD704      0.0000 
     30 C5'        19.5280   17.3670    2.5650 C.3       1 GUD704      0.0000 
     31 C6'        18.3290   16.9020    3.3440 C.3       1 GUD704      0.0000 
     32 O2'        22.2920   18.7060    0.1910 O.3       1 GUD704      0.0000 
     33 O3'        23.2040   16.8210    2.4940 O.3       1 GUD704      0.0000 
     34 O4'        20.6430   15.8500    3.9860 O.3       1 GUD704      0.0000 
     35 O5'        19.4330   18.7870    2.4990 O.3       1 GUD704      0.0000 
     36 O6'        17.2210   17.6800    2.8740 O.3       1 GUD704      0.0000 
     37 H          19.5412   28.6765   -5.9625 H         1 GUD704      0.0000 
     38 H          21.1218   25.1727   -4.2835 H         1 GUD704      0.0000 
     39 H          18.9523   24.6743   -3.3723 H         1 GUD704      0.0000 
     40 H          15.9044   26.4993   -4.1919 H         1 GUD704      0.0000 
     41 H          17.3317   24.0100   -3.7077 H         1 GUD704      0.0000 
     42 H          15.9559   23.2204   -2.0830 H         1 GUD704      0.0000 
     43 H          15.6842   25.3826   -0.6208 H         1 GUD704      0.0000 
     44 H          17.5411   24.4923    0.2172 H         1 GUD704      0.0000 
     45 H          18.3708   25.6539   -0.8327 H         1 GUD704      0.0000 
     46 H          20.5727   20.4095    1.8252 H         1 GUD704      0.0000 
     47 H          22.4092   19.2856    2.1763 H         1 GUD704      0.0000 
     48 H          21.4851   16.5239    1.2939 H         1 GUD704      0.0000 
     49 H          20.9889   17.9290    3.9199 H         1 GUD704      0.0000 
     50 H          19.5178   16.9430    1.5926 H         1 GUD704      0.0000 
     51 H          18.5137   17.0662    4.3990 H         1 GUD704      0.0000 
     52 H          18.1819   15.8445    3.1591 H         1 GUD704      0.0000 
     53 H          14.6367   24.0864   -4.2635 H         1 GUD704      0.0000 
     54 H          13.8652   23.7508   -1.9773 H         1 GUD704      0.0000 
     55 H          21.5249   18.9526   -0.4013 H         1 GUD704      0.0000 
     56 H          23.8029   17.3225    1.8696 H         1 GUD704      0.0000 
     57 H          20.2738   16.1367    4.8700 H         1 GUD704      0.0000 
     58 H          17.4157   18.6143    3.1728 H         1 GUD704      0.0000 
@<TRIPOS>BOND
     1    2    1 1    
     2    6    1 1    
     3    9    1 1    
     4    3    2 1    
     5    7    2 2    
     6    4    3 1    
     7   37    3 1    
     8    5    4 1    
     9    8    4 2    
    10    6    5 2    
    11   38    5 1    
    12   39    6 1    
    13   10    9 1    
    14   14    9 1    
    15   40    9 1    
    16   11   10 1    
    17   12   10 1    
    18   41   10 1    
    19   53   11 1    
    20   13   12 1    
    21   15   12 1    
    22   42   12 1    
    23   14   13 1    
    24   16   13 1    
    25   43   13 1    
    26   54   15 1    
    27   17   16 1    
    28   44   16 1    
    29   45   16 1    
    30   18   17 1    
    31   19   18 ar   
    32   20   18 ar   
    33   21   18 1    
    34   22   21 1    
    35   23   22 ar   
    36   24   22 ar   
    37   25   22 1    
    38   26   25 1    
    39   27   26 1    
    40   35   26 1    
    41   46   26 1    
    42   28   27 1    
    43   32   27 1    
    44   47   27 1    
    45   29   28 1    
    46   33   28 1    
    47   48   28 1    
    48   30   29 1    
    49   34   29 1    
    50   49   29 1    
    51   31   30 1    
    52   35   30 1    
    53   50   30 1    
    54   36   31 1    
    55   51   31 1    
    56   52   31 1    
    57   55   32 1    
    58   56   33 1    
    59   57   34 1    
    60   58   36 1    
@<TRIPOS>SUBSTRUCTURE
     1 GUD704      1 GROUP   
@<TRIPOS>SET

