#    Name: 3zh8_C58_3_INTS_M
#    Modification time : Tue Mar 25 02:55:33 2014

@<TRIPOS>MOLECULE
3zh8_C58_3_INTS_M
   80     0    12     0     0
SMALL
NO_CHARGES


@<TRIPOS>ATOM
      1 OD1        20.8635   66.4645  -14.8125 O.co2     3 ASC3        0.0000 
      2 OD1        21.3150   67.2930  -13.5850 O.co2    11 ASL3        0.0000 
      3 OD1        20.4120   65.6360  -16.0400 O.co2     7 ASP3        0.0000 
      4 O          20.8435   65.8760  -13.2000 O.2       1 ALC1        0.0000 
      5 O          21.3150   67.2930  -13.5850 O.2       9 ALL1        0.0000 
      6 O          20.3720   64.4590  -12.8150 O.2       5 ALP1        0.0000 
      7 CA         25.5095   67.3645   -5.4430 C.3       4 GLC5        0.0000 
      8 CA         24.4030   67.1800   -7.3060 C.3      12 GLL5        0.0000 
      9 CA         26.6160   67.5490   -3.5800 C.3       8 GLP5        0.0000 
     10 CA         23.3405   70.6455  -12.5865 C.3       4 GLC5        0.0000 
     11 CA         23.3500   68.6720  -13.3960 C.3      12 GLL5        0.0000 
     12 CA         23.3310   72.6190  -11.7770 C.3       8 GLP5        0.0000 
     13 CA         26.6810   68.6440  -10.3700 C.3       4 GLC5        0.0000 
     14 CA         25.8190   66.6420  -10.8800 C.3      12 GLL5        0.0000 
     15 CA         27.5430   70.6460   -9.8600 C.3       8 GLP5        0.0000 
     16 N          25.7110   65.0600   -9.1465 N.am      2 SEC2        0.0000 
     17 N          25.7060   66.5130   -9.5530 N.am     10 SEL2        0.0000 
     18 N          25.7160   63.6070   -8.7400 N.am      6 SEP2        0.0000 
     19 CA         24.2670   65.1750   -9.6085 C.3       4 GLC5        0.0000 
     20 CA         24.6800   67.1760   -9.0250 C.3      12 GLL5        0.0000 
     21 CA         23.8540   63.1740  -10.1920 C.3       8 GLP5        0.0000 
     22 N          30.3785   64.3165  -13.6890 N.am      2 SEC2        0.0000 
     23 N          29.3710   64.9340  -12.7400 N.am     10 SEL2        0.0000 
     24 N          31.3860   63.6990  -14.6380 N.am      6 SEP2        0.0000 
     25 CA         22.4940   71.0500  -10.4705 C.3       4 GLC5        0.0000 
     26 CA         21.6570   69.4810   -9.1640 C.3      12 GLL5        0.0000 
     27 CA         26.5060   63.9395  -10.1425 C.3       4 GLC5        0.0000 
     28 CA         27.9590   65.3070  -10.8100 C.3      12 GLL5        0.0000 
     29 CA         25.0530   62.5720   -9.4750 C.3       8 GLP5        0.0000 
     30 CA         31.1100   64.6850  -12.3295 C.3       4 GLC5        0.0000 
     31 CA         29.0760   64.7990  -11.4430 C.3      12 GLL5        0.0000 
     32 CA         33.1440   64.5710  -13.2160 C.3       8 GLP5        0.0000 
     33 CA         29.8390   66.7905  -12.1650 C.3       4 GLC5        0.0000 
     34 CA         28.4510   65.6360  -13.4080 C.3      12 GLL5        0.0000 
     35 CA         31.2270   67.9450  -10.9220 C.3       8 GLP5        0.0000 
     36 CA         29.0310   63.8505  -14.2995 C.3       4 GLC5        0.0000 
     37 CA         29.6110   62.0650  -15.1910 C.3       8 GLP5        0.0000 
     38 CA         27.9005   68.2820  -13.3510 C.3       4 GLC5        0.0000 
     39 CA         27.3040   66.1850  -12.8690 C.3      12 GLL5        0.0000 
     40 CA         28.4970   70.3790  -13.8330 C.3       8 GLP5        0.0000 
     41 CA         22.1290   65.5645  -16.1360 C.3       4 GLC5        0.0000 
     42 CA         22.8430   67.5440  -15.5750 C.3      12 GLL5        0.0000 
     43 CA         21.4150   63.5850  -16.6970 C.3       8 GLP5        0.0000 
     44 CA         25.9685   70.4275  -15.5965 C.3       4 GLC5        0.0000 
     45 CA         24.9650   68.6700  -16.3840 C.3      12 GLL5        0.0000 
     46 CA         26.9720   72.1850  -14.8090 C.3       8 GLP5        0.0000 
     47 CA         23.4312   65.5442  -14.5353 C.3       4 GLC5        0.0000 
     48 CA         24.0870   63.6130  -14.2620 C.3       8 GLP5        0.0000 
     49 CA         25.2482   68.7930   -8.0533 C.3       4 GLC5        0.0000 
     50 CA         25.9550   70.4080   -7.9410 C.3       8 GLP5        0.0000 
     51 CA         23.3722   65.8840   -7.3272 C.3       4 GLC5        0.0000 
     52 CA         22.2030   64.5900   -6.4890 C.3       8 GLP5        0.0000 
     53 CA         24.9015   69.1890   -9.1835 C.3       4 GLC5        0.0000 
     54 CA         23.7460   67.9510   -9.7140 C.3      12 GLL5        0.0000 
     55 CA         26.2880   64.6415  -12.1040 C.3       4 GLC5        0.0000 
     56 CA         26.1600   62.9430  -13.0090 C.3       8 GLP5        0.0000 
     57 CA         25.1350   64.7570  -10.6955 C.3       4 GLC5        0.0000 
     58 CA         27.0130   66.0380  -11.5180 C.3      12 GLL5        0.0000 
     59 CA         22.4253   66.5295   -6.6982 C.3       4 GLC5        0.0000 
     60 CA         23.0330   68.2350   -7.5070 C.3      12 GLL5        0.0000 
     61 CA         20.5815   69.2750   -4.9405 C.3       4 GLC5        0.0000 
     62 CA         22.2620   68.7030   -6.3080 C.3      12 GLL5        0.0000 
     63 CA         19.3730   69.2840   -3.3800 C.3       8 GLP5        0.0000 
     64 CA         22.2195   70.5240   -4.9035 C.3       4 GLC5        0.0000 
     65 CA         21.3180   69.8290   -6.6940 C.3      12 GLL5        0.0000 
     66 CA         22.6490   71.7820   -3.3060 C.3       8 GLP5        0.0000 
     67 CA         24.2704   69.4799   -7.5857 C.3       4 GLC5        0.0000 
     68 CA         19.7865   71.4642   -7.0815 C.3       4 GLC5        0.0000 
     69 CA         18.5890   73.2310   -6.8020 C.3       8 GLP5        0.0000 
     70 CA         29.8723   66.4990  -11.0243 C.3       4 GLC5        0.0000 
     71 CA         27.3388   63.9980  -12.0678 C.3       4 GLC5        0.0000 
     72 CA         27.0188   64.4267  -13.0738 C.3       4 GLC5        0.0000 
     73 CA         24.7982   65.8462  -17.7452 C.3       4 GLC5        0.0000 
     74 CA         25.0250   66.3460  -16.0550 C.3      12 GLL5        0.0000 
     75 CA         24.9390   64.7590  -19.4620 C.3       8 GLP5        0.0000 
     76 CA         27.5717   69.2182  -15.3277 C.3       4 GLC5        0.0000 
     77 CA         27.0050   67.4700  -16.8480 C.3      12 GLL5        0.0000 
     78 CA         25.8077   65.8275  -18.0600 C.3       4 GLC5        0.0000 
     79 CA         24.7949   65.1204  -15.2551 C.3       4 GLC5        0.0000 
     80 CA         26.3480   66.3220  -16.4680 C.3      12 GLL5        0.0000 
@<TRIPOS>BOND
@<TRIPOS>SUBSTRUCTURE
     1 ALC1        4 GROUP        1 X    ALC  0     ROOT ALC X 1
     2 SEC2       16 GROUP        1 X    SEC  0     **** SEC X 2
     3 ASC3        1 GROUP        1 X    ASC  0     **** ASC X 3
     4 GLC5        7 GROUP        1 X    GLC  0     **** GLC X 6
     5 ALP1        6 GROUP        1 Y    ALP  0     ROOT ALP Y 8
     6 SEP2       18 GROUP        1 Y    SEP  0     **** SEP Y 9
     7 ASP3        3 GROUP        1 Y    ASP  0     **** ASP Y 10
     8 GLP5        9 GROUP        1 Y    GLP  0     **** GLP Y 13
     9 ALL1        5 GROUP        1 Z    ALL  0     ROOT ALL Z 15
    10 SEL2       17 GROUP        1 Z    SEL  0     **** SEL Z 16
    11 ASL3        2 GROUP        1 Z    ASL  0     **** ASL Z 17
    12 GLL5        8 GROUP        1 Z    GLL  0     **** GLL Z 20
@<TRIPOS>SET

