#    Name: 3zh8_C58_3_ligand
#    Modification time : Tue Mar 25 02:55:33 2014

@<TRIPOS>MOLECULE
3zh8_C58_3_ligand
   56    60     1     0     0
SMALL
NO_CHARGES


@<TRIPOS>ATOM
      1 C          22.7080   67.4070  -14.0420 C.3       1 C581580     0.0000 
      2 N          21.3150   67.2930  -13.5850 N.4       1 C581580     0.0000 
      3 S          24.4030   67.1800   -7.3060 S.3       1 C581580     0.0000 
      4 C1         23.3500   68.6720  -13.3960 C.3       1 C581580     0.0000 
      5 N1         23.1400   68.6730  -11.9560 N.pl3     1 C581580     0.0000 
      6 C2         23.9500   67.9890  -11.1380 C.ar      1 C581580     0.0000 
      7 N2         24.9870   67.3270  -11.6740 N.ar      1 C581580     0.0000 
      8 C3         25.8190   66.6420  -10.8800 C.ar      1 C581580     0.0000 
      9 N3         25.7060   66.5130   -9.5530 N.ar      1 C581580     0.0000 
     10 C4         24.6800   67.1760   -9.0250 C.ar      1 C581580     0.0000 
     11 N4         29.3710   64.9340  -12.7400 N.ar      1 C581580     0.0000 
     12 C5         23.7460   67.9510   -9.7140 C.ar      1 C581580     0.0000 
     13 C6         22.7860   68.5660   -8.7990 C.2       1 C581580     0.0000 
     14 C7         23.0330   68.2350   -7.5070 C.2       1 C581580     0.0000 
     15 C8         22.2620   68.7030   -6.3080 C.3       1 C581580     0.0000 
     16 C9         21.3180   69.8290   -6.6940 C.3       1 C581580     0.0000 
     17 C10        20.6500   69.5660   -8.0280 C.3       1 C581580     0.0000 
     18 C11        21.6570   69.4810   -9.1640 C.3       1 C581580     0.0000 
     19 C12        27.0130   66.0380  -11.5180 C.ar      1 C581580     0.0000 
     20 C13        27.9590   65.3070  -10.8100 C.ar      1 C581580     0.0000 
     21 C14        29.0760   64.7990  -11.4430 C.ar      1 C581580     0.0000 
     22 C15        28.4510   65.6360  -13.4080 C.ar      1 C581580     0.0000 
     23 C16        27.3040   66.1850  -12.8690 C.ar      1 C581580     0.0000 
     24 C17        22.8430   67.5440  -15.5750 C.3       1 C581580     0.0000 
     25 C18        24.2900   67.5210  -16.0020 C.ar      1 C581580     0.0000 
     26 C19        24.9650   68.6700  -16.3840 C.ar      1 C581580     0.0000 
     27 C20        26.2880   68.6450  -16.7970 C.ar      1 C581580     0.0000 
     28 C21        27.0050   67.4700  -16.8480 C.ar      1 C581580     0.0000 
     29 C22        26.3480   66.3220  -16.4680 C.ar      1 C581580     0.0000 
     30 C23        25.0250   66.3460  -16.0550 C.ar      1 C581580     0.0000 
     31 H          23.2941   66.5620  -13.7224 H         1 C581580     0.0000 
     32 H          22.8948   69.5464  -13.8682 H         1 C581580     0.0000 
     33 H          24.4141   68.6619  -13.6461 H         1 C581580     0.0000 
     34 H          22.3376   69.2269  -11.6078 H         1 C581580     0.0000 
     35 H          22.9506   69.0619   -5.5422 H         1 C581580     0.0000 
     36 H          21.6816   67.8768   -5.8956 H         1 C581580     0.0000 
     37 H          21.8802   70.7667   -6.7486 H         1 C581580     0.0000 
     38 H          20.5517   69.9371   -5.9198 H         1 C581580     0.0000 
     39 H          19.9360   70.3702   -8.2409 H         1 C581580     0.0000 
     40 H          20.0899   68.6252   -7.9740 H         1 C581580     0.0000 
     41 H          21.1530   69.1101  -10.0586 H         1 C581580     0.0000 
     42 H          22.0422   70.4809   -9.3729 H         1 C581580     0.0000 
     43 H          27.8214   65.1436   -9.7972 H         1 C581580     0.0000 
     44 H          29.7626   64.2456  -10.8198 H         1 C581580     0.0000 
     45 H          28.6018   65.7982  -14.4647 H         1 C581580     0.0000 
     46 H          26.6513   66.7126  -13.4750 H         1 C581580     0.0000 
     47 H          22.3797   68.4833  -15.8808 H         1 C581580     0.0000 
     48 H          22.3032   66.7206  -16.0450 H         1 C581580     0.0000 
     49 H          24.4602   69.5843  -16.3598 H         1 C581580     0.0000 
     50 H          26.7475   69.5381  -17.0746 H         1 C581580     0.0000 
     51 H          27.9701   67.4523  -17.1509 H         1 C581580     0.0000 
     52 H          26.8535   65.4107  -16.4898 H         1 C581580     0.0000 
     53 H          24.5665   65.4503  -15.7746 H         1 C581580     0.0000 
     54 H          20.6842   67.7765  -14.1920 H         1 C581580     0.0000 
     55 H          21.0132   66.3403  -13.5474 H         1 C581580     0.0000 
     56 H          21.1920   67.6758  -12.6694 H         1 C581580     0.0000 
@<TRIPOS>BOND
     1    2    1 1    
     2    4    1 1    
     3   24    1 1    
     4   31    1 1    
     5   54    2 1    
     6   55    2 1    
     7   56    2 1    
     8   10    3 1    
     9   14    3 1    
    10    5    4 1    
    11   32    4 1    
    12   33    4 1    
    13    6    5 1    
    14   34    5 1    
    15    7    6 ar   
    16   12    6 ar   
    17    8    7 ar   
    18    9    8 ar   
    19   19    8 1    
    20   10    9 ar   
    21   12   10 ar   
    22   21   11 ar   
    23   22   11 ar   
    24   13   12 1    
    25   14   13 2    
    26   18   13 1    
    27   15   14 1    
    28   16   15 1    
    29   35   15 1    
    30   36   15 1    
    31   17   16 1    
    32   37   16 1    
    33   38   16 1    
    34   18   17 1    
    35   39   17 1    
    36   40   17 1    
    37   41   18 1    
    38   42   18 1    
    39   20   19 ar   
    40   23   19 ar   
    41   21   20 ar   
    42   43   20 1    
    43   44   21 1    
    44   23   22 ar   
    45   45   22 1    
    46   46   23 1    
    47   25   24 1    
    48   47   24 1    
    49   48   24 1    
    50   26   25 ar   
    51   30   25 ar   
    52   27   26 ar   
    53   49   26 1    
    54   28   27 ar   
    55   50   27 1    
    56   29   28 ar   
    57   51   28 1    
    58   30   29 ar   
    59   52   29 1    
    60   53   30 1    
@<TRIPOS>SUBSTRUCTURE
     1 C581580     1 GROUP   
@<TRIPOS>SET

