#    Name: 1R5G_1_CAVITY_N1_6.mol2
#    Modification time : Tue Mar 11 05:17:29 2014

@<TRIPOS>MOLECULE
1R5G_1_CAVITY_N1_6.mol2
   93     0     6     0     0
SMALL
NO_CHARGES


@<TRIPOS>ATOM
      1 N          12.6796   28.9262   23.0903 N.2       1 ALA2        0.0000 
      2 CA         20.5678   34.5500   16.5025 C.3       5 GLY6        0.0000 
      3 N          20.5012   33.6104   17.6699 N.2       1 ALA2        0.0000 
      4 CA         19.4664   34.7901   14.7056 C.3       5 GLY6        0.0000 
      5 CA         19.3998   33.8505   15.8730 C.3       5 GLY6        0.0000 
      6 N          19.3331   32.9110   17.0404 N.2       1 ALA2        0.0000 
      7 N          19.0666   29.1529   21.7100 N.2       1 ALA2        0.0000 
      8 CA         18.2983   34.0907   14.0760 C.3       5 GLY6        0.0000 
      9 CA         18.2317   33.1511   15.2434 C.3       5 GLY6        0.0000 
     10 N          18.1650   32.2116   16.4108 N.2       1 ALA2        0.0000 
     11 N          18.0984   31.2720   17.5782 N.2       1 ALA2        0.0000 
     12 N          18.0317   30.3325   18.7456 N.2       1 ALA2        0.0000 
     13 N          17.9651   29.3930   19.9130 N.2       1 ALA2        0.0000 
     14 N          17.8985   28.4534   21.0804 N.2       1 ALA2        0.0000 
     15 CA         17.8318   27.5139   22.2478 C.3       5 GLY6        0.0000 
     16 DU         16.7970   28.6935   19.2834 H         6 CUB7        0.0000 
     17 N          16.7304   27.7540   20.4508 N.2       1 ALA2        0.0000 
     18 N          16.6637   26.8145   21.6182 N.2       1 ALA2        0.0000 
     19 CA         15.6289   27.9941   18.6538 C.3       5 GLY6        0.0000 
     20 O          21.5065   33.6129   15.8020 O.2       1 ALA2        0.0000 
     21 O          21.4399   32.6734   16.9694 O.2       1 ALA2        0.0000 
     22 CA         20.3384   32.9135   15.1724 C.3       5 GLY6        0.0000 
     23 N          20.2718   31.9739   16.3398 N.2       1 ALA2        0.0000 
     24 N          20.2052   31.0344   17.5072 N.2       1 ALA2        0.0000 
     25 CA         20.0052   28.2158   21.0094 C.3       5 GLY6        0.0000 
     26 CA         19.1703   32.2141   14.5428 C.3       5 GLY6        0.0000 
     27 N          19.1037   31.2745   15.7102 N.2       1 ALA2        0.0000 
     28 N          19.0371   30.3350   16.8776 N.2       1 ALA2        0.0000 
     29 N          18.9704   29.3955   18.0450 N.2       1 ALA2        0.0000 
     30 N          18.9038   28.4559   19.2124 N.2       1 ALA2        0.0000 
     31 NZ         18.8371   27.5164   20.3798 N.2       3 LYS4        0.0000 
     32 CZ         18.7705   26.5768   21.5472 C.ar      4 PHE5        0.0000 
     33 CA         18.0023   31.5146   13.9132 C.3       5 GLY6        0.0000 
     34 N          17.8023   28.6960   17.4154 N.2       1 ALA2        0.0000 
     35 NZ         17.7357   27.7565   18.5828 N.2       3 LYS4        0.0000 
     36 NZ         17.6691   26.8170   19.7502 N.2       3 LYS4        0.0000 
     37 CZ         16.1544   32.2066   20.1467 C.ar      4 PHE5        0.0000 
     38 DU         16.0877   31.2671   21.3141 H         6 CUB7        0.0000 
     39 CA         16.0211   30.3275   22.4815 C.3       5 GLY6        0.0000 
     40 N          15.0529   32.4467   18.3497 N.2       1 ALA2        0.0000 
     41 N          14.9863   31.5072   19.5171 N.2       1 ALA2        0.0000 
     42 DU         14.9197   30.5677   20.6845 H         6 CUB7        0.0000 
     43 DU         14.8530   29.6281   21.8519 H         6 CUB7        0.0000 
     44 CA         14.7864   28.6886   23.0193 C.3       5 GLY6        0.0000 
     45 CA         13.8848   31.7473   17.7202 C.3       5 GLY6        0.0000 
     46 N          13.8182   30.8078   18.8876 N.2       1 ALA2        0.0000 
     47 DU         13.7516   29.8682   20.0550 H         6 CUB7        0.0000 
     48 O          13.6849   28.9287   21.2224 O.2       1 ALA2        0.0000 
     49 CZ         18.4611   34.7876   16.5735 C.ar      4 PHE5        0.0000 
     50 CA         18.1279   30.0899   22.4105 C.3       5 GLY6        0.0000 
     51 CA         17.2930   34.0882   15.9439 C.3       5 GLY6        0.0000 
     52 CZ         17.2263   33.1486   17.1114 C.ar      4 PHE5        0.0000 
     53 N          17.1597   32.2091   18.2788 N.2       1 ALA2        0.0000 
     54 N          17.0931   31.2696   19.4462 N.2       1 ALA2        0.0000 
     55 N          17.0264   30.3300   20.6136 N.2       1 ALA2        0.0000 
     56 CA         16.9598   29.3905   21.7810 C.3       5 GLY6        0.0000 
     57 N          15.9250   30.5701   18.8166 N.2       1 ALA2        0.0000 
     58 DU         15.8583   29.6306   19.9840 H         6 CUB7        0.0000 
     59 N          15.7917   28.6911   21.1514 N.2       1 ALA2        0.0000 
     60 O          15.7251   27.7515   22.3188 O.2       1 ALA2        0.0000 
     61 O          14.6902   28.9312   19.3544 O.2       1 ALA2        0.0000 
     62 N          14.6236   27.9916   20.5218 N.2       1 ALA2        0.0000 
     63 CA         23.4134   30.5567   19.2332 C.3       5 GLY6        0.0000 
     64 O          22.4452   32.6759   15.1014 O.2       1 ALA2        0.0000 
     65 O          22.3786   31.7363   16.2688 O.2       1 ALA2        0.0000 
     66 CA         22.3119   30.7968   17.4362 C.3       5 GLY6        0.0000 
     67 CA         22.2453   29.8572   18.6036 C.3       5 GLY6        0.0000 
     68 CA         22.1786   28.9177   19.7710 C.3       5 GLY6        0.0000 
     69 CA         21.2771   31.9764   14.4718 C.3       5 GLY6        0.0000 
     70 CZ         21.2105   31.0369   15.6392 C.ar      4 PHE5        0.0000 
     71 CA         21.1438   30.0974   16.8066 C.3       5 GLY6        0.0000 
     72 CA         21.0772   29.1578   17.9740 C.3       5 GLY6        0.0000 
     73 NZ         21.0106   28.2183   19.1414 N.2       3 LYS4        0.0000 
     74 CZ         20.9439   27.2787   20.3088 C.ar      4 PHE5        0.0000 
     75 CA         20.1090   31.2770   13.8422 C.3       5 GLY6        0.0000 
     76 CZ         20.0424   30.3375   15.0096 C.ar      4 PHE5        0.0000 
     77 DU         19.9757   29.3979   16.1770 H         6 CUB7        0.0000 
     78 OD1        19.9091   28.4584   17.3444 O.3       2 ASP3        0.0000 
     79 NZ         19.8425   27.5189   18.5118 N.2       3 LYS4        0.0000 
     80 CA         18.8743   29.6380   14.3801 C.3       5 GLY6        0.0000 
     81 CA         18.8077   28.6985   15.5475 C.3       5 GLY6        0.0000 
     82 OD1        18.7410   27.7590   16.7149 O.3       2 ASP3        0.0000 
     83 O          24.4187   30.5591   17.3652 O.2       1 ALA2        0.0000 
     84 CA         24.3521   29.6196   18.5326 C.3       5 GLY6        0.0000 
     85 O          24.2854   28.6801   19.7000 O.2       1 ALA2        0.0000 
     86 CZ         23.3172   30.7993   15.5682 C.ar      4 PHE5        0.0000 
     87 CZ         23.2506   29.8597   16.7356 C.ar      4 PHE5        0.0000 
     88 NZ         23.1840   28.9202   17.9030 N.2       3 LYS4        0.0000 
     89 NZ         23.1173   27.9806   19.0704 N.2       3 LYS4        0.0000 
     90 CZ         22.0825   29.1603   16.1060 C.ar      4 PHE5        0.0000 
     91 NZ         22.0159   28.2208   17.2734 N.2       3 LYS4        0.0000 
     92 CZ         20.9811   29.4004   14.3091 C.ar      4 PHE5        0.0000 
     93 OD1        20.9144   28.4609   15.4765 O.3       2 ASP3        0.0000 
@<TRIPOS>BOND
@<TRIPOS>SUBSTRUCTURE
     1 ALA2        1 GROUP   
     2 ASP3       78 GROUP   
     3 LYS4       31 GROUP   
     4 PHE5       32 GROUP   
     5 GLY6        2 GROUP   
     6 CUB7       16 GROUP   
@<TRIPOS>SET

