#    Name: 1r5g_AO1_1_INTS_M
#    Modification time : Tue Mar 25 00:22:54 2014

@<TRIPOS>MOLECULE
1r5g_AO1_1_INTS_M
   53     0     9     0     0
SMALL
NO_CHARGES


@<TRIPOS>ATOM
      1 CA         18.7220   35.0560   17.6945 C.3       3 GLC5        0.0000 
      2 CA         19.2480   33.7340   16.8230 C.3       9 GLL5        0.0000 
      3 CA         18.1960   36.3780   18.5660 C.3       6 GLP5        0.0000 
      4 CA         17.3995   33.8325   14.5265 C.3       3 GLC5        0.0000 
      5 CA         18.9690   33.1550   15.4470 C.3       9 GLL5        0.0000 
      6 CA         15.8300   34.5100   13.6060 C.3       6 GLP5        0.0000 
      7 CA         21.2780   31.5560   13.5930 C.3       3 GLC5        0.0000 
      8 CA         20.0340   31.7290   15.1370 C.3       9 GLL5        0.0000 
      9 CA         22.5220   31.3830   12.0490 C.3       6 GLP5        0.0000 
     10 CA         17.8760   29.7230   14.1375 C.3       3 GLC5        0.0000 
     11 CA         18.9110   30.5100   15.4980 C.3       9 GLL5        0.0000 
     12 CA         16.8410   28.9360   12.7770 C.3       6 GLP5        0.0000 
     13 CA         16.7170   30.8855   15.4145 C.3       3 GLC5        0.0000 
     14 CA         14.5230   31.2610   15.3310 C.3       6 GLP5        0.0000 
     15 CA         20.4135   30.7825   18.5590 C.3       3 GLC5        0.0000 
     16 CA         19.5070   29.8660   16.7390 C.3       9 GLL5        0.0000 
     17 CA         21.3200   31.6990   20.3790 C.3       6 GLP5        0.0000 
     18 CA         18.7810   28.2200   14.4210 C.3       3 GLC5        0.0000 
     19 CA         19.5750   28.3780   16.4560 C.3       9 GLL5        0.0000 
     20 CA         17.9870   28.0620   12.3860 C.3       6 GLP5        0.0000 
     21 CA         16.3995   26.5645   17.2485 C.3       3 GLC5        0.0000 
     22 CA         17.9770   27.5740   18.0830 C.3       9 GLL5        0.0000 
     23 CA         14.8220   25.5550   16.4140 C.3       6 GLP5        0.0000 
     24 CA         17.2685   28.1345   23.1660 C.3       3 GLC5        0.0000 
     25 CA         16.9370   27.9400   21.4610 C.3       9 GLL5        0.0000 
     26 CA         17.6000   28.3290   24.8710 C.3       6 GLP5        0.0000 
     27 CA         14.1170   29.8125   17.1870 C.3       3 GLC5        0.0000 
     28 CA         14.5610   29.3950   19.2600 C.3       9 GLL5        0.0000 
     29 CA         13.6730   30.2300   15.1140 C.3       6 GLP5        0.0000 
     30 CA         12.2450   26.9200   17.5940 C.3       3 GLC5        0.0000 
     31 CA         12.2550   28.2310   18.9990 C.3       9 GLL5        0.0000 
     32 CA         12.2350   25.6090   16.1890 C.3       6 GLP5        0.0000 
     33 CA         14.2635   26.8520   17.8515 C.3       3 GLC5        0.0000 
     34 CA         13.7050   28.1490   19.2890 C.3       9 GLL5        0.0000 
     35 Zn         20.6230   25.8145   16.8720 Zn        2 ZIC7        0.0000 
     36 Zn         19.7450   26.1250   17.5420 Zn        8 ZIL7        0.0000 
     37 Zn         21.5010   25.5040   16.2020 Zn        5 ZIP7        0.0000 
     38 Zn         18.9235   25.7375   16.9085 Zn        2 ZIC7        0.0000 
     39 Zn         18.1020   25.3500   16.2750 Zn        5 ZIP7        0.0000 
     40 O          19.4410   25.2665   18.4125 O.2       1 ALC1        0.0000 
     41 O          19.7450   26.1250   17.5420 O.2       7 ALL1        0.0000 
     42 O          19.1370   24.4080   19.2830 O.2       4 ALP1        0.0000 
     43 Zn         21.1030   26.7210   15.9260 Zn        2 ZIC7        0.0000 
     44 Zn         20.7050   27.9380   15.6500 Zn        8 ZIL7        0.0000 
     45 CA         20.1092   33.5120   13.8445 C.3       3 GLC5        0.0000 
     46 CA         20.7170   34.5820   12.3970 C.3       6 GLP5        0.0000 
     47 CA         14.5541   31.3230   17.1427 C.3       3 GLC5        0.0000 
     48 CA         13.8530   30.7560   18.9130 C.3       9 GLL5        0.0000 
     49 CA         12.8430   30.1933   16.8840 C.3       3 GLC5        0.0000 
     50 CA         12.4150   30.7800   18.6340 C.3       9 GLL5        0.0000 
     51 CA         10.2020   28.0395   19.2497 C.3       3 GLC5        0.0000 
     52 CA         11.6110   29.5330   18.6740 C.3       9 GLL5        0.0000 
     53 CA          8.4710   27.1970   19.6630 C.3       6 GLP5        0.0000 
@<TRIPOS>BOND
@<TRIPOS>SUBSTRUCTURE
     1 ALC1       40 GROUP        1 X    ALC  0     ROOT ALC X 1
     2 ZIC7       35 GROUP        1 X    ZIC  0     **** ZIC X 5
     3 GLC5        1 GROUP        1 X    GLC  0     **** GLC X 6
     4 ALP1       42 GROUP        1 Y    ALP  0     ROOT ALP Y 8
     5 ZIP7       37 GROUP        1 Y    ZIP  0     **** ZIP Y 12
     6 GLP5        3 GROUP        1 Y    GLP  0     **** GLP Y 13
     7 ALL1       41 GROUP        1 Z    ALL  0     ROOT ALL Z 15
     8 ZIL7       36 GROUP        1 Z    ZIL  0     **** ZIL Z 19
     9 GLL5        2 GROUP        1 Z    GLL  0     **** GLL Z 20
@<TRIPOS>SET

