#    Name: 1r5g_AO1_1_ligand
#    Modification time : Tue Mar 25 00:22:54 2014

@<TRIPOS>MOLECULE
1r5g_AO1_1_ligand
   50    51     1     0     0
SMALL
NO_CHARGES


@<TRIPOS>ATOM
      1 C1         19.2480   33.7340   16.8230 C.3       1 AO1501      0.0000 
      2 C2         18.9690   33.1550   15.4470 C.3       1 AO1501      0.0000 
      3 S3         20.0340   31.7290   15.1370 S.3       1 AO1501      0.0000 
      4 C4         18.9110   30.5100   15.4980 C.3       1 AO1501      0.0000 
      5 C5         19.5070   29.8660   16.7390 C.3       1 AO1501      0.0000 
      6 C6         19.5750   28.3780   16.4560 C.3       1 AO1501      0.0000 
      7 C8         19.3960   27.5050   17.7830 C.3       1 AO1501      0.0000 
      8 C9         17.9770   27.5740   18.0830 C.2       1 AO1501      0.0000 
      9 N10        18.1360   27.9950   19.3360 N.am      1 AO1501      0.0000 
     10 C11        16.8550   28.0660   19.9400 C.3       1 AO1501      0.0000 
     11 C12        16.0610   29.4040   19.5460 C.ar      1 AO1501      0.0000 
     12 C14        16.9370   27.9400   21.4610 C.3       1 AO1501      0.0000 
     13 C15        16.7730   30.7700   19.4660 C.ar      1 AO1501      0.0000 
     14 C16        16.0380   32.0180   19.1280 C.ar      1 AO1501      0.0000 
     15 C17        14.5970   32.0100   18.8640 C.ar      1 AO1501      0.0000 
     16 C18        13.8530   30.7560   18.9130 C.ar      1 AO1501      0.0000 
     17 C19        14.5610   29.3950   19.2600 C.ar      1 AO1501      0.0000 
     18 C20        12.4150   30.7800   18.6340 C.ar      1 AO1501      0.0000 
     19 C21        11.6110   29.5330   18.6740 C.ar      1 AO1501      0.0000 
     20 C22        12.2550   28.2310   18.9990 C.ar      1 AO1501      0.0000 
     21 C23        13.7050   28.1490   19.2890 C.ar      1 AO1501      0.0000 
     22 O24        19.7450   26.1250   17.5420 O.3       1 AO1501      0.0000 
     23 N7         20.7050   27.9380   15.6500 N.3       1 AO1501      0.0000 
     24 H          19.2223   33.8090   14.6462 H         1 AO1501      0.0000 
     25 H          17.9941   32.7399   15.3451 H         1 AO1501      0.0000 
     26 H          18.9198   29.8734   14.6747 H         1 AO1501      0.0000 
     27 H          18.0180   31.0066   15.6958 H         1 AO1501      0.0000 
     28 H          18.8687   30.0470   17.5815 H         1 AO1501      0.0000 
     29 H          20.4943   30.2498   16.9060 H         1 AO1501      0.0000 
     30 H          18.6198   28.1339   15.8656 H         1 AO1501      0.0000 
     31 H          19.9691   27.9586   18.5345 H         1 AO1501      0.0000 
     32 H          17.3118   27.3841   17.5568 H         1 AO1501      0.0000 
     33 H          18.9429   28.2210   19.7919 H         1 AO1501      0.0000 
     34 H          16.2071   27.2405   19.5872 H         1 AO1501      0.0000 
     35 H          17.7564   30.7931   19.6504 H         1 AO1501      0.0000 
     36 H          16.5529   32.8868   19.0817 H         1 AO1501      0.0000 
     37 H          14.1235   32.8696   18.6494 H         1 AO1501      0.0000 
     38 H          11.9587   31.6492   18.4115 H         1 AO1501      0.0000 
     39 H          10.6307   29.5658   18.4817 H         1 AO1501      0.0000 
     40 H          11.6952   27.3975   19.0212 H         1 AO1501      0.0000 
     41 H          14.1308   27.2756   19.5055 H         1 AO1501      0.0000 
     42 H          20.1960   34.0394   16.9122 H         1 AO1501      0.0000 
     43 H          18.6661   34.5234   17.0187 H         1 AO1501      0.0000 
     44 H          19.0865   33.0640   17.5476 H         1 AO1501      0.0000 
     45 H          17.3434   27.0700   21.7402 H         1 AO1501      0.0000 
     46 H          17.4935   28.6664   21.8644 H         1 AO1501      0.0000 
     47 H          16.0338   27.9918   21.8872 H         1 AO1501      0.0000 
     48 H          21.5059   28.5219   15.7831 H         1 AO1501      0.0000 
     49 H          20.4918   27.9511   14.6731 H         1 AO1501      0.0000 
     50 H          19.8687   25.7269   18.4510 H         1 AO1501      0.0000 
@<TRIPOS>BOND
     1    2    1 1    
     2   42    1 1    
     3   43    1 1    
     4   44    1 1    
     5    3    2 1    
     6   24    2 1    
     7   25    2 1    
     8    4    3 1    
     9    5    4 1    
    10   26    4 1    
    11   27    4 1    
    12    6    5 1    
    13   28    5 1    
    14   29    5 1    
    15    7    6 1    
    16   23    6 1    
    17   30    6 1    
    18    8    7 1    
    19   22    7 1    
    20   31    7 1    
    21    9    8 am   
    22   32    8 1    
    23   10    9 1    
    24   33    9 1    
    25   11   10 1    
    26   12   10 1    
    27   34   10 1    
    28   13   11 ar   
    29   17   11 ar   
    30   45   12 1    
    31   46   12 1    
    32   47   12 1    
    33   14   13 ar   
    34   35   13 1    
    35   15   14 ar   
    36   36   14 1    
    37   16   15 ar   
    38   37   15 1    
    39   17   16 ar   
    40   18   16 ar   
    41   21   17 ar   
    42   19   18 ar   
    43   38   18 1    
    44   20   19 ar   
    45   39   19 1    
    46   21   20 ar   
    47   40   20 1    
    48   41   21 1    
    49   50   22 1    
    50   48   23 1    
    51   49   23 1    
@<TRIPOS>SUBSTRUCTURE
     1 AO1501      1 GROUP   
@<TRIPOS>SET

