#    Name: 1cow_AUR_2_INTS_M
#    Modification time : Mon Mar 24 20:50:55 2014

@<TRIPOS>MOLECULE
1cow_AUR_2_INTS_M
   66     0     6     0     0
SMALL
NO_CHARGES


@<TRIPOS>ATOM
      1 CA         96.8505   77.4580   93.0645 C.3       2 GLC5        0.0000 
      2 CA         94.9660   76.5490   93.0520 C.3       6 GLL5        0.0000 
      3 CA         98.7350   78.3670   93.0770 C.3       4 GLP5        0.0000 
      4 CA         96.4995   76.3995   95.9950 C.3       2 GLC5        0.0000 
      5 CA         94.8560   76.4840   94.5500 C.3       6 GLL5        0.0000 
      6 CA         98.1430   76.3150   97.4400 C.3       4 GLP5        0.0000 
      7 CA         96.6060   74.1240   98.1475 C.3       2 GLC5        0.0000 
      8 CA         94.6620   73.2000   98.1090 C.3       6 GLL5        0.0000 
      9 CA         98.5500   75.0480   98.1860 C.3       4 GLP5        0.0000 
     10 CA         95.3575   71.8570   99.0475 C.3       2 GLC5        0.0000 
     11 CA         96.0530   70.5140   99.9860 C.3       4 GLP5        0.0000 
     12 CA         92.6380   73.6955   98.8900 C.3       2 GLC5        0.0000 
     13 CA         90.6140   74.1910   99.6710 C.3       4 GLP5        0.0000 
     14 CA         93.9875   68.8255   95.3960 C.3       2 GLC5        0.0000 
     15 CA         93.0220   70.2930   95.3290 C.3       6 GLL5        0.0000 
     16 CA         94.9530   67.3580   95.4630 C.3       4 GLP5        0.0000 
     17 CA         92.2555   69.2880   96.8155 C.3       2 GLC5        0.0000 
     18 CA         91.4890   68.2830   98.3020 C.3       4 GLP5        0.0000 
     19 CA         92.1540   69.2960   93.6015 C.3       2 GLC5        0.0000 
     20 CA         91.2860   68.2990   91.8740 C.3       4 GLP5        0.0000 
     21 N          90.8365   72.6085   97.2670 N.am      1 SEC2        0.0000 
     22 N          92.0460   71.6500   96.9890 N.am      5 SEL2        0.0000 
     23 N          89.6270   73.5670   97.5450 N.am      3 SEP2        0.0000 
     24 CA         93.0665   80.9785   98.6405 C.3       2 GLC5        0.0000 
     25 CA         91.4670   80.5680   99.8710 C.3       6 GLL5        0.0000 
     26 CA         94.6660   81.3890   97.4100 C.3       4 GLP5        0.0000 
     27 CA         89.5925   80.0330  102.1650 C.3       2 GLC5        0.0000 
     28 CA         90.6360   81.2550  100.8780 C.3       6 GLL5        0.0000 
     29 CA         88.5490   78.8110  103.4520 C.3       4 GLP5        0.0000 
     30 CA         91.0170   81.6060  102.8815 C.3       2 GLC5        0.0000 
     31 CA         91.3980   81.9570  104.8850 C.3       4 GLP5        0.0000 
     32 CA         91.6540   82.5635  102.8580 C.3       2 GLC5        0.0000 
     33 CA         90.7750   82.5080  101.3110 C.3       6 GLL5        0.0000 
     34 CA         92.5330   82.6190  104.4050 C.3       4 GLP5        0.0000 
     35 CA         86.4460   83.3470  104.9065 C.3       2 GLC5        0.0000 
     36 CA         88.0250   84.3050  103.9140 C.3       6 GLL5        0.0000 
     37 CA         84.8670   82.3890  105.8990 C.3       4 GLP5        0.0000 
     38 CA         92.0620   84.5610  103.5660 C.3       2 GLC5        0.0000 
     39 CA         91.2300   85.2730  102.1990 C.3       6 GLL5        0.0000 
     40 CA         92.8940   83.8490  104.9330 C.3       4 GLP5        0.0000 
     41 CA         89.8965   85.3010  105.6825 C.3       2 GLC5        0.0000 
     42 CA         88.8150   86.8380  105.0220 C.3       6 GLL5        0.0000 
     43 CA         90.9780   83.7640  106.3430 C.3       4 GLP5        0.0000 
     44 N          87.9555   81.1590  102.1900 N.am      1 SEC2        0.0000 
     45 N          88.7910   82.4800  102.5690 N.am      5 SEL2        0.0000 
     46 N          87.1200   79.8380  101.8110 N.am      3 SEP2        0.0000 
     47 N          87.0485   81.0205  102.7575 N.am      1 SEC2        0.0000 
     48 N          86.9770   82.2030  103.7040 N.am      5 SEL2        0.0000 
     49 CA         94.3425   77.6446   95.2685 C.3       2 GLC5        0.0000 
     50 CA         94.0420   79.4680   96.1090 C.3       4 GLP5        0.0000 
     51 CA         92.0220   74.1208   98.2173 C.3       2 GLC5        0.0000 
     52 CA         93.9970   74.2740   97.2390 C.3       6 GLL5        0.0000 
     53 CA         93.2122   78.1792   96.9665 C.3       2 GLC5        0.0000 
     54 CA         92.8450   76.4920   97.3900 C.3       6 GLL5        0.0000 
     55 CA         93.3647   78.6243   99.7480 C.3       2 GLC5        0.0000 
     56 CA         91.9200   77.2890   98.2580 C.3       6 GLL5        0.0000 
     57 CA         94.7010   79.3550  100.9900 C.3       4 GLP5        0.0000 
     58 CA         91.5790   75.4040   98.8434 C.3       2 GLC5        0.0000 
     59 CA         92.8603   79.1845   97.6342 C.3       2 GLC5        0.0000 
     60 CA         92.1370   78.4980   98.7540 C.3       6 GLL5        0.0000 
     61 CA         92.3209   79.8282  101.1750 C.3       2 GLC5        0.0000 
     62 CA         91.2200   79.3040   99.5650 C.3       6 GLL5        0.0000 
     63 CA         93.6520   79.0610  102.0520 C.3       4 GLP5        0.0000 
     64 CA         88.9683   83.2417  105.0353 C.3       2 GLC5        0.0000 
     65 CA         89.1080   84.9800  103.5130 C.3       6 GLL5        0.0000 
     66 CA         89.3700   81.8410  106.3570 C.3       4 GLP5        0.0000 
@<TRIPOS>BOND
@<TRIPOS>SUBSTRUCTURE
     1 SEC2       21 GROUP        1 X    SEC  0     ROOT SEC X 2
     2 GLC5        1 GROUP        1 X    GLC  0     **** GLC X 6
     3 SEP2       23 GROUP        1 Y    SEP  0     ROOT SEP Y 9
     4 GLP5        3 GROUP        1 Y    GLP  0     **** GLP Y 13
     5 SEL2       22 GROUP        1 Z    SEL  0     ROOT SEL Z 16
     6 GLL5        2 GROUP        1 Z    GLL  0     **** GLL Z 20
@<TRIPOS>SET

