#    Name: 1cow_AUR_2_ligand
#    Modification time : Mon Mar 24 20:50:56 2014

@<TRIPOS>MOLECULE
1cow_AUR_2_ligand
   65    67     1     0     0
SMALL
NO_CHARGES


@<TRIPOS>ATOM
      1 C1         94.9660   76.5490   93.0520 C.3       1 AUR602      0.0000 
      2 C2         94.8560   76.4840   94.5500 C.3       1 AUR602      0.0000 
      3 C3         94.3750   75.1260   95.0550 C.3       1 AUR602      0.0000 
      4 C4         92.8760   75.0260   95.3780 C.3       1 AUR602      0.0000 
      5 C5         92.8630   73.8270   96.2880 C.3       1 AUR602      0.0000 
      6 C6         93.9970   74.2740   97.2390 C.3       1 AUR602      0.0000 
      7 C7         93.4910   75.3980   98.1570 C.3       1 AUR602      0.0000 
      8 C8         92.8450   76.4920   97.3900 C.3       1 AUR602      0.0000 
      9 C20        92.1180   74.7530   94.1020 C.3       1 AUR602      0.0000 
     10 C21        94.6620   73.2000   98.1090 C.3       1 AUR602      0.0000 
     11 C24        93.0220   70.2930   95.3290 C.3       1 AUR602      0.0000 
     12 C25        92.5240   71.6380   95.8520 C.2       1 AUR602      0.0000 
     13 O3         95.0130   74.8650   96.3090 O.3       1 AUR602      0.0000 
     14 O4         92.2620   76.1120   96.1210 O.3       1 AUR602      0.0000 
     15 O5         93.1940   72.7780   95.4860 O.3       1 AUR602      0.0000 
     16 O7         94.5630   75.8700   98.9680 O.3       1 AUR602      0.0000 
     17 O25        92.0460   71.6500   96.9890 O.2       1 AUR602      0.0000 
     18 C9         91.9200   77.2890   98.2580 C.2       1 AUR602      0.0000 
     19 C10        92.1370   78.4980   98.7540 C.2       1 AUR602      0.0000 
     20 C11        91.2200   79.3040   99.5650 C.2       1 AUR602      0.0000 
     21 C12        91.4670   80.5680   99.8710 C.2       1 AUR602      0.0000 
     22 C13        90.6360   81.2550  100.8780 C.2       1 AUR602      0.0000 
     23 C14        90.7750   82.5080  101.3110 C.2       1 AUR602      0.0000 
     24 C15        89.8280   83.2400  102.0940 C.2       1 AUR602      0.0000 
     25 C16        90.0750   84.4360  102.6520 C.2       1 AUR602      0.0000 
     26 C17        89.1080   84.9800  103.5130 C.2       1 AUR602      0.0000 
     27 C18        88.0250   84.3050  103.9140 C.2       1 AUR602      0.0000 
     28 C19        87.8770   82.9680  103.3950 C.2       1 AUR602      0.0000 
     29 C22        91.2300   85.2730  102.1990 C.3       1 AUR602      0.0000 
     30 C23        88.8150   86.8380  105.0220 C.3       1 AUR602      0.0000 
     31 O15        88.7910   82.4800  102.5690 O.3       1 AUR602      0.0000 
     32 O17        89.4430   86.2720  103.8140 O.3       1 AUR602      0.0000 
     33 O19        86.9770   82.2030  103.7040 O.2       1 AUR602      0.0000 
     34 H          94.1575   77.2586   94.9027 H         1 AUR602      0.0000 
     35 H          95.8364   76.7007   95.0017 H         1 AUR602      0.0000 
     36 H          94.6257   74.3605   94.3520 H         1 AUR602      0.0000 
     37 H          91.9759   73.8091   96.7942 H         1 AUR602      0.0000 
     38 H          92.7202   74.9331   98.8065 H         1 AUR602      0.0000 
     39 H          93.7045   77.2307   97.1468 H         1 AUR602      0.0000 
     40 H          91.0021   76.7698   98.4628 H         1 AUR602      0.0000 
     41 H          93.0812   78.9907   98.5690 H         1 AUR602      0.0000 
     42 H          90.3561   78.8085   99.8847 H         1 AUR602      0.0000 
     43 H          92.2170   81.1265   99.4480 H         1 AUR602      0.0000 
     44 H          89.8505   80.6353  101.2719 H         1 AUR602      0.0000 
     45 H          91.6706   83.0519  101.0684 H         1 AUR602      0.0000 
     46 H          87.3259   84.6637  104.5391 H         1 AUR602      0.0000 
     47 H          95.2845   77.4446   92.7415 H         1 AUR602      0.0000 
     48 H          95.6088   75.8701   92.6970 H         1 AUR602      0.0000 
     49 H          94.0863   76.3804   92.6073 H         1 AUR602      0.0000 
     50 H          92.2515   75.4796   93.4280 H         1 AUR602      0.0000 
     51 H          92.4091   73.8980   93.6728 H         1 AUR602      0.0000 
     52 H          91.1338   74.6798   94.2631 H         1 AUR602      0.0000 
     53 H          95.0862   72.4836   97.5551 H         1 AUR602      0.0000 
     54 H          95.3792   73.5845   98.6902 H         1 AUR602      0.0000 
     55 H          94.0036   72.7518   98.7137 H         1 AUR602      0.0000 
     56 H          93.9617   70.1076   95.6164 H         1 AUR602      0.0000 
     57 H          92.4596   69.5349   95.6591 H         1 AUR602      0.0000 
     58 H          93.0082   70.2549   94.3298 H         1 AUR602      0.0000 
     59 H          92.1029   84.8024  102.3281 H         1 AUR602      0.0000 
     60 H          91.1627   85.5047  101.2286 H         1 AUR602      0.0000 
     61 H          91.2843   86.1349  102.7031 H         1 AUR602      0.0000 
     62 H          89.0522   86.3177  105.8424 H         1 AUR602      0.0000 
     63 H          89.1010   87.7829  105.1813 H         1 AUR602      0.0000 
     64 H          87.8172   86.8411  104.9551 H         1 AUR602      0.0000 
     65 H          95.3707   75.3801   98.6399 H         1 AUR602      0.0000 
@<TRIPOS>BOND
     1    2    1 1    
     2   47    1 1    
     3   48    1 1    
     4   49    1 1    
     5    3    2 1    
     6   34    2 1    
     7   35    2 1    
     8    4    3 1    
     9   13    3 1    
    10   36    3 1    
    11    5    4 1    
    12    9    4 1    
    13   14    4 1    
    14    6    5 1    
    15   15    5 1    
    16   37    5 1    
    17    7    6 1    
    18   10    6 1    
    19   13    6 1    
    20    8    7 1    
    21   16    7 1    
    22   38    7 1    
    23   14    8 1    
    24   18    8 1    
    25   39    8 1    
    26   50    9 1    
    27   51    9 1    
    28   52    9 1    
    29   53   10 1    
    30   54   10 1    
    31   55   10 1    
    32   12   11 1    
    33   56   11 1    
    34   57   11 1    
    35   58   11 1    
    36   15   12 1    
    37   17   12 2    
    38   65   16 1    
    39   19   18 2    
    40   40   18 1    
    41   20   19 1    
    42   41   19 1    
    43   21   20 2    
    44   42   20 1    
    45   22   21 1    
    46   43   21 1    
    47   23   22 2    
    48   44   22 1    
    49   24   23 1    
    50   45   23 1    
    51   25   24 2    
    52   31   24 1    
    53   26   25 1    
    54   29   25 1    
    55   27   26 2    
    56   32   26 1    
    57   28   27 1    
    58   46   27 1    
    59   31   28 1    
    60   33   28 2    
    61   59   29 1    
    62   60   29 1    
    63   61   29 1    
    64   32   30 1    
    65   62   30 1    
    66   63   30 1    
    67   64   30 1    
@<TRIPOS>SUBSTRUCTURE
     1 AUR602      1 GROUP   
@<TRIPOS>SET

