#    Name: 4hbm_0Y7_6_INTS_M
#    Modification time : Tue Mar 25 00:48:03 2014

@<TRIPOS>MOLECULE
4hbm_0Y7_6_INTS_M
   80     0    12     0     0
SMALL
NO_CHARGES


@<TRIPOS>ATOM
      1 CA         42.0680   16.4145  -11.7810 C.3       4 GLC5        0.0000 
      2 CA         43.0140   14.7770  -11.3120 C.3      12 GLL5        0.0000 
      3 CA         41.1220   18.0520  -12.2500 C.3       8 GLP5        0.0000 
      4 CA         42.6245   16.2125  -10.0445 C.3       4 GLC5        0.0000 
      5 CA         42.2350   17.6480   -8.7770 C.3       8 GLP5        0.0000 
      6 CA         43.0855   12.5505   -6.3295 C.3       4 GLC5        0.0000 
      7 CA         43.5660   12.1440   -8.3070 C.3      12 GLL5        0.0000 
      8 CA         42.6050   12.9570   -4.3520 C.3       8 GLP5        0.0000 
      9 CA         44.9795   14.0515  -10.2875 C.3       4 GLC5        0.0000 
     10 CA         44.0340   12.2500  -11.0960 C.3      12 GLL5        0.0000 
     11 CA         45.9250   15.8530   -9.4790 C.3       8 GLP5        0.0000 
     12 O          48.4940    8.9890  -10.0995 O.2       1 ALC1        0.0000 
     13 O          47.5350    9.0940   -9.1130 O.2       9 ALL1        0.0000 
     14 O          49.4530    8.8840  -11.0860 O.2       5 ALP1        0.0000 
     15 CA         42.9965   10.8345   -3.7855 C.3       4 GLC5        0.0000 
     16 CA         43.2920    9.1820   -4.6580 C.3      12 GLL5        0.0000 
     17 CA         42.7010   12.4870   -2.9130 C.3       8 GLP5        0.0000 
     18 N          40.1060    8.3215   -5.2545 N.am      2 SEC2        0.0000 
     19 N          41.0750    8.1450   -4.3560 N.am     10 SEL2        0.0000 
     20 N          39.1370    8.4980   -6.1530 N.am      6 SEP2        0.0000 
     21 NZ         42.2375    7.4615   -1.7065 N.4       3 LYC4        0.0000 
     22 NZ         42.7750    7.4360   -3.1020 N.4      11 LYL4        0.0000 
     23 NZ         41.7000    7.4870   -0.3110 N.4       7 LYP4        0.0000 
     24 N          42.2375    7.4615   -1.7065 N.am      2 SEC2        0.0000 
     25 N          42.7750    7.4360   -3.1020 N.am     10 SEL2        0.0000 
     26 N          41.7000    7.4870   -0.3110 N.am      6 SEP2        0.0000 
     27 CA         41.4995    4.8800  -11.3665 C.3       4 GLC5        0.0000 
     28 CA         41.5550    6.9620  -10.7380 C.3      12 GLL5        0.0000 
     29 CA         41.4440    2.7980  -11.9950 C.3       8 GLP5        0.0000 
     30 CA         38.9210    8.7920   -9.0445 C.3       4 GLC5        0.0000 
     31 CA         40.2640    8.9460  -10.3940 C.3      12 GLL5        0.0000 
     32 CA         37.5780    8.6380   -7.6950 C.3       8 GLP5        0.0000 
     33 CA         37.7565    9.5150   -9.7480 C.3       4 GLC5        0.0000 
     34 CA         38.9980    9.9790  -10.8260 C.3      12 GLL5        0.0000 
     35 CA         36.5150    9.0510   -8.6700 C.3       8 GLP5        0.0000 
     36 CA         38.5770   11.8725  -10.7645 C.3       4 GLC5        0.0000 
     37 CA         38.1560   13.7660  -10.7030 C.3       8 GLP5        0.0000 
     38 CA         37.9490    9.9500  -12.3130 C.3       4 GLC5        0.0000 
     39 CA         36.9000    9.9210  -13.8000 C.3       8 GLP5        0.0000 
     40 CA         40.2855   11.3250   -8.9380 C.3       4 GLC5        0.0000 
     41 CA         41.0680    9.3200   -9.3220 C.3      12 GLL5        0.0000 
     42 CA         39.5030   13.3300   -8.5540 C.3       8 GLP5        0.0000 
     43 CA         49.1550   11.9245   -6.1155 C.3       4 GLC5        0.0000 
     44 CA         47.0520   11.6570   -6.5190 C.3      12 GLL5        0.0000 
     45 CA         51.2580   12.1920   -5.7120 C.3       8 GLP5        0.0000 
     46 CA         47.3990   12.7010   -8.9685 C.3       4 GLC5        0.0000 
     47 CA         46.9140   13.0870   -7.0040 C.3      12 GLL5        0.0000 
     48 CA         47.8840   12.3150  -10.9330 C.3       8 GLP5        0.0000 
     49 CA         47.5535   14.8435   -7.2290 C.3       4 GLC5        0.0000 
     50 CA         48.1930   16.6000   -7.4540 C.3       8 GLP5        0.0000 
     51 CA         45.2175   13.6165   -5.7945 C.3       4 GLC5        0.0000 
     52 CA         43.5210   14.1460   -4.5850 C.3       8 GLP5        0.0000 
     53 CA         41.3195   13.9475  -11.2280 C.3       4 GLC5        0.0000 
     54 CA         39.3860   13.8270  -11.5960 C.3       8 GLP5        0.0000 
     55 CA         44.5913   14.7747   -9.7095 C.3       4 GLC5        0.0000 
     56 CA         41.4585   13.0323   -8.6088 C.3       4 GLC5        0.0000 
     57 CA         43.2620   13.3250   -9.0200 C.3      12 GLL5        0.0000 
     58 CA         44.6312   13.5980  -12.6405 C.3       4 GLC5        0.0000 
     59 CA         43.4920   13.3590  -10.4080 C.3      12 GLL5        0.0000 
     60 CA         45.6190   14.0370  -14.3030 C.3       8 GLP5        0.0000 
     61 CA         42.7428   11.4356  -11.9200 C.3       4 GLC5        0.0000 
     62 CA         44.3320   11.0800  -10.3800 C.3      12 GLL5        0.0000 
     63 CA         41.4380   10.9290  -13.2740 C.3       8 GLP5        0.0000 
     64 CA         46.0110   11.8277  -10.3978 C.3       4 GLC5        0.0000 
     65 CA         47.5555   11.2412   -9.3227 C.3       4 GLC5        0.0000 
     66 CA         46.6360   10.6070   -7.5490 C.3      12 GLL5        0.0000 
     67 CA         39.9825    9.1430   -8.0000 C.3       4 GLC5        0.0000 
     68 CA         42.1460    8.5000   -8.9540 C.3      12 GLL5        0.0000 
     69 CA         38.3580    9.3760   -6.8620 C.3       8 GLP5        0.0000 
     70 CA         43.3252    6.9548  -11.3242 C.3       4 GLC5        0.0000 
     71 CA         42.3940    7.3090   -9.6650 C.3      12 GLL5        0.0000 
     72 CA         44.6760    6.7740  -12.4470 C.3       8 GLP5        0.0000 
     73 CA         41.2583    8.5185  -12.5305 C.3       4 GLC5        0.0000 
     74 CA         40.4800    7.7820  -11.1140 C.3      12 GLL5        0.0000 
     75 CA         41.4990    9.6650  -14.1350 C.3       8 GLP5        0.0000 
     76 CA         39.1734    6.7880  -10.5335 C.3       4 GLC5        0.0000 
     77 CA         37.7060    5.4170  -10.4070 C.3       8 GLP5        0.0000 
     78 CA         40.8937   10.1601  -11.6200 C.3       4 GLC5        0.0000 
     79 CA         47.3375   13.1250   -4.7977 C.3       4 GLC5        0.0000 
     80 CA         47.6920   13.8780   -2.8340 C.3       8 GLP5        0.0000 
@<TRIPOS>BOND
@<TRIPOS>SUBSTRUCTURE
     1 ALC1       12 GROUP        1 X    ALC  0     ROOT ALC X 1
     2 SEC2       18 GROUP        1 X    SEC  0     **** SEC X 2
     3 LYC4       21 GROUP        1 X    LYC  0     **** LYC X 4
     4 GLC5        1 GROUP        1 X    GLC  0     **** GLC X 6
     5 ALP1       14 GROUP        1 Y    ALP  0     ROOT ALP Y 8
     6 SEP2       20 GROUP        1 Y    SEP  0     **** SEP Y 9
     7 LYP4       23 GROUP        1 Y    LYP  0     **** LYP Y 11
     8 GLP5        3 GROUP        1 Y    GLP  0     **** GLP Y 13
     9 ALL1       13 GROUP        1 Z    ALL  0     ROOT ALL Z 15
    10 SEL2       19 GROUP        1 Z    SEL  0     **** SEL Z 16
    11 LYL4       22 GROUP        1 Z    LYL  0     **** LYL Z 18
    12 GLL5        2 GROUP        1 Z    GLL  0     **** GLL Z 20
@<TRIPOS>SET

