#    Name: 4hbm_0Y7_6_ligand
#    Modification time : Tue Mar 25 00:48:03 2014

@<TRIPOS>MOLECULE
4hbm_0Y7_6_ligand
   54    56     1     0     0
SMALL
NO_CHARGES


@<TRIPOS>ATOM
      1 CL1        43.0140   14.7770  -11.3120 Cl        1 0Y7201      0.0000 
      2 C1         43.4920   13.3590  -10.4080 C.ar      1 0Y7201      0.0000 
      3 C2         43.2620   13.3250   -9.0200 C.ar      1 0Y7201      0.0000 
      4 C3         43.5660   12.1440   -8.3070 C.ar      1 0Y7201      0.0000 
      5 C4         44.0340   12.2500  -11.0960 C.ar      1 0Y7201      0.0000 
      6 C5         44.3320   11.0800  -10.3800 C.ar      1 0Y7201      0.0000 
      7 C6         44.0930   11.0160   -8.9870 C.ar      1 0Y7201      0.0000 
      8 C7         44.3510    9.7170   -8.2580 C.3       1 0Y7201      0.0000 
      9 N1         45.4180    9.8250   -7.2360 N.am      1 0Y7201      0.0000 
     10 C8         46.6360   10.6070   -7.5490 C.3       1 0Y7201      0.0000 
     11 C9         47.8180    9.7280   -7.8760 C.3       1 0Y7201      0.0000 
     12 O4         47.5350    9.0940   -9.1130 O.3       1 0Y7201      0.0000 
     13 C11        45.3270    9.2240   -6.0140 C.2       1 0Y7201      0.0000 
     14 O1         46.1980    9.3500   -5.1640 O.2       1 0Y7201      0.0000 
     15 C12        44.1120    8.3600   -5.6550 C.3       1 0Y7201      0.0000 
     16 C13        43.2920    9.1820   -4.6580 C.3       1 0Y7201      0.0000 
     17 C14        42.2310    8.2160   -4.0490 C.2       1 0Y7201      0.0000 
     18 O2         41.0750    8.1450   -4.3560 O.co2     1 0Y7201      0.0000 
     19 O3         42.7750    7.4360   -3.1020 O.co2     1 0Y7201      0.0000 
     20 C15        43.2360    7.8560   -6.7990 C.3       1 0Y7201      0.0000 
     21 C16        43.0230    8.9520   -7.8180 C.3       1 0Y7201      0.0000 
     22 C17        42.1460    8.5000   -8.9540 C.ar      1 0Y7201      0.0000 
     23 C18        42.3940    7.3090   -9.6650 C.ar      1 0Y7201      0.0000 
     24 C19        41.5550    6.9620  -10.7380 C.ar      1 0Y7201      0.0000 
     25 C20        40.4800    7.7820  -11.1140 C.ar      1 0Y7201      0.0000 
     26 C21        40.2640    8.9460  -10.3940 C.ar      1 0Y7201      0.0000 
     27 CL2        38.9980    9.9790  -10.8260 Cl        1 0Y7201      0.0000 
     28 C22        41.0680    9.3200   -9.3220 C.ar      1 0Y7201      0.0000 
     29 C10        47.0520   11.6570   -6.5190 C.3       1 0Y7201      0.0000 
     30 C23        46.9140   13.0870   -7.0040 C.3       1 0Y7201      0.0000 
     31 H          42.8847   14.1330   -8.5378 H         1 0Y7201      0.0000 
     32 H          43.4069   12.0995   -7.2992 H         1 0Y7201      0.0000 
     33 H          44.2043   12.3031  -12.0966 H         1 0Y7201      0.0000 
     34 H          44.7241   10.2669  -10.8633 H         1 0Y7201      0.0000 
     35 H          44.7875    9.0128   -9.0865 H         1 0Y7201      0.0000 
     36 H          46.4314   11.1887   -8.5045 H         1 0Y7201      0.0000 
     37 H          47.9435    9.0091   -7.0686 H         1 0Y7201      0.0000 
     38 H          48.7055   10.3553   -7.9329 H         1 0Y7201      0.0000 
     39 H          44.4875    7.4898   -5.0832 H         1 0Y7201      0.0000 
     40 H          42.7873    9.9748   -5.1649 H         1 0Y7201      0.0000 
     41 H          43.9221    9.5418   -3.8746 H         1 0Y7201      0.0000 
     42 H          42.2759    7.5366   -6.3980 H         1 0Y7201      0.0000 
     43 H          43.7229    7.0052   -7.2720 H         1 0Y7201      0.0000 
     44 H          42.4130    9.7615   -7.2650 H         1 0Y7201      0.0000 
     45 H          43.1721    6.7079   -9.4034 H         1 0Y7201      0.0000 
     46 H          41.7335    6.0886  -11.2579 H         1 0Y7201      0.0000 
     47 H          39.8832    7.5229  -11.8914 H         1 0Y7201      0.0000 
     48 H          40.8806   10.1802   -8.8052 H         1 0Y7201      0.0000 
     49 H          48.1009   11.4720   -6.2287 H         1 0Y7201      0.0000 
     50 H          46.4414   11.5219   -5.6093 H         1 0Y7201      0.0000 
     51 H          47.1973   13.7448   -6.3061 H         1 0Y7201      0.0000 
     52 H          47.4739   13.2600   -7.8143 H         1 0Y7201      0.0000 
     53 H          45.9695   13.3069   -7.2479 H         1 0Y7201      0.0000 
     54 H          48.3954    9.1236   -9.6217 H         1 0Y7201      0.0000 
@<TRIPOS>BOND
     1    2    1 1    
     2    3    2 ar   
     3    5    2 ar   
     4    4    3 ar   
     5   31    3 1    
     6    7    4 ar   
     7   32    4 1    
     8    6    5 ar   
     9   33    5 1    
    10    7    6 ar   
    11   34    6 1    
    12    8    7 1    
    13    9    8 1    
    14   21    8 1    
    15   35    8 1    
    16   10    9 1    
    17   13    9 am   
    18   11   10 1    
    19   29   10 1    
    20   36   10 1    
    21   12   11 1    
    22   37   11 1    
    23   38   11 1    
    24   54   12 1    
    25   14   13 2    
    26   15   13 1    
    27   16   15 1    
    28   20   15 1    
    29   39   15 1    
    30   17   16 1    
    31   40   16 1    
    32   41   16 1    
    33   18   17 ar   
    34   19   17 ar   
    35   21   20 1    
    36   42   20 1    
    37   43   20 1    
    38   22   21 1    
    39   44   21 1    
    40   23   22 ar   
    41   28   22 ar   
    42   24   23 ar   
    43   45   23 1    
    44   25   24 ar   
    45   46   24 1    
    46   26   25 ar   
    47   47   25 1    
    48   27   26 1    
    49   28   26 ar   
    50   48   28 1    
    51   30   29 1    
    52   49   29 1    
    53   50   29 1    
    54   51   30 1    
    55   52   30 1    
    56   53   30 1    
@<TRIPOS>SUBSTRUCTURE
     1 0Y7201      1 GROUP   
@<TRIPOS>SET

