#    Name: 1egy_9AP_1_INTS_M
#    Modification time : Mon Mar 24 23:56:30 2014

@<TRIPOS>MOLECULE
1egy_9AP_1_INTS_M
   19     0     3     0     0
SMALL
NO_CHARGES


@<TRIPOS>ATOM
      1 CA         -8.5375    7.0870   10.7530 C.3       1 GLC5        0.0000 
      2 CA        -10.2830    8.2030   10.4000 C.3       3 GLL5        0.0000 
      3 CA         -6.7920    5.9710   11.1060 C.3       2 GLP5        0.0000 
      4 CA        -11.1118    5.3963   10.3352 C.3       1 GLC5        0.0000 
      5 CA        -12.4210    7.1390   10.0490 C.3       3 GLL5        0.0000 
      6 CA        -10.4990    3.6470   10.7090 C.3       2 GLP5        0.0000 
      7 CA        -12.4679    6.9804    8.6744 C.3       1 GLC5        0.0000 
      8 CA        -12.5510    6.2980    6.9930 C.3       2 GLP5        0.0000 
      9 CA         -9.9220    9.6477   13.1820 C.3       1 GLC5        0.0000 
     10 CA        -10.8900    9.2690   11.1110 C.3       3 GLL5        0.0000 
     11 CA         -9.3350    9.4970   14.9880 C.3       2 GLP5        0.0000 
     12 CA        -10.4130   10.4245   13.7085 C.3       1 GLC5        0.0000 
     13 CA        -10.7990   11.3480   12.3380 C.3       3 GLL5        0.0000 
     14 CA        -14.0715   14.2318   13.3275 C.3       1 GLC5        0.0000 
     15 CA        -12.7440   12.4280   13.2360 C.3       3 GLL5        0.0000 
     16 CA        -14.7090   16.0040   13.3050 C.3       2 GLP5        0.0000 
     17 CA        -12.3280   12.5732   15.1150 C.3       1 GLC5        0.0000 
     18 CA        -14.1240   12.4910   13.4640 C.3       3 GLL5        0.0000 
     19 CA        -11.2220   12.6870   16.8800 C.3       2 GLP5        0.0000 
@<TRIPOS>BOND
@<TRIPOS>SUBSTRUCTURE
     1 GLC5        1 GROUP        1 X    GLC  0     ROOT GLC X 6
     2 GLP5        3 GROUP        1 Y    GLP  0     ROOT GLP Y 13
     3 GLL5        2 GROUP        1 Z    GLL  0     ROOT GLL Z 20
@<TRIPOS>SET

