#    Name: 1egy_9AP_1_ligand
#    Modification time : Mon Mar 24 23:56:30 2014

@<TRIPOS>MOLECULE
1egy_9AP_1_ligand
   26    28     1     0     0
SMALL
NO_CHARGES


@<TRIPOS>ATOM
      1 C1        -11.0280    7.1520    9.8740 C.ar      1 9AP800      0.0000 
      2 C2        -10.2830    8.2030   10.4000 C.ar      1 9AP800      0.0000 
      3 C3        -13.0450    8.1800   10.7500 C.ar      1 9AP800      0.0000 
      4 C4        -10.8900    9.2690   11.1110 C.ar      1 9AP800      0.0000 
      5 C5        -12.4210    7.1390   10.0490 C.ar      1 9AP800      0.0000 
      6 C6        -12.3140    9.2590   11.2950 C.ar      1 9AP800      0.0000 
      7 C7        -10.1280   10.3280   11.6410 C.ar      1 9AP800      0.0000 
      8 C8        -10.7990   11.3480   12.3380 C.ar      1 9AP800      0.0000 
      9 N1         -8.7740   10.4500   11.5380 N.pl3     1 9AP800      0.0000 
     10 C9        -12.1830   11.3560   12.5200 C.ar      1 9AP800      0.0000 
     11 C10       -12.7440   12.4280   13.2360 C.ar      1 9AP800      0.0000 
     12 C11       -12.9650   10.3110   12.0030 C.ar      1 9AP800      0.0000 
     13 C12       -14.1240   12.4910   13.4640 C.ar      1 9AP800      0.0000 
     14 C13       -14.9310   11.4680   12.9620 C.ar      1 9AP800      0.0000 
     15 C14       -14.3570   10.4030   12.2470 C.ar      1 9AP800      0.0000 
     16 H         -10.5707    6.3938    9.3641 H         1 9AP800      0.0000 
     17 H          -9.2537    8.2173   10.2744 H         1 9AP800      0.0000 
     18 H         -14.0743    8.1619   10.8749 H         1 9AP800      0.0000 
     19 H         -12.9780    6.3715    9.6656 H         1 9AP800      0.0000 
     20 H         -10.2339   12.1319   12.7353 H         1 9AP800      0.0000 
     21 H          -8.3664   11.2360   12.0028 H         1 9AP800      0.0000 
     22 H          -8.3076    9.7428   11.0067 H         1 9AP800      0.0000 
     23 H         -12.1317   13.1730   13.5953 H         1 9AP800      0.0000 
     24 H         -14.5277   13.2648   13.9835 H         1 9AP800      0.0000 
     25 H         -15.9454   11.4902   13.1133 H         1 9AP800      0.0000 
     26 H         -14.9747    9.6508   11.8809 H         1 9AP800      0.0000 
@<TRIPOS>BOND
     1    2    1 ar   
     2    5    1 ar   
     3   16    1 1    
     4    4    2 ar   
     5   17    2 1    
     6    5    3 ar   
     7    6    3 ar   
     8   18    3 1    
     9    6    4 ar   
    10    7    4 ar   
    11   19    5 1    
    12   12    6 ar   
    13    8    7 ar   
    14    9    7 1    
    15   10    8 ar   
    16   20    8 1    
    17   21    9 1    
    18   22    9 1    
    19   11   10 ar   
    20   12   10 ar   
    21   13   11 ar   
    22   23   11 1    
    23   15   12 ar   
    24   14   13 ar   
    25   24   13 1    
    26   15   14 ar   
    27   25   14 1    
    28   26   15 1    
@<TRIPOS>SUBSTRUCTURE
     1 9AP800      1 GROUP   
@<TRIPOS>SET

