#    Name: 3uua_0CZ_2_INTS_M
#    Modification time : Mon Mar 24 23:33:50 2014

@<TRIPOS>MOLECULE
3uua_0CZ_2_INTS_M
   59     0     9     0     0
SMALL
NO_CHARGES


@<TRIPOS>ATOM
      1 CA         28.9855   -6.3545  -17.0760 C.3       3 GLC5        0.0000 
      2 CA         29.7800   -5.9130  -18.8830 C.3       9 GLL5        0.0000 
      3 CA         28.1910   -6.7960  -15.2690 C.3       6 GLP5        0.0000 
      4 N          30.4230   -7.0390  -17.0470 N.am      2 SEC2        0.0000 
      5 N          29.3370   -6.7530  -17.9140 N.am      8 SEL2        0.0000 
      6 N          31.5090   -7.3250  -16.1800 N.am      5 SEP2        0.0000 
      7 CA         29.3980   -3.9470  -16.8400 C.3       3 GLC5        0.0000 
      8 CA         30.5540   -4.8080  -18.5530 C.3       9 GLL5        0.0000 
      9 CA         28.2420   -3.0860  -15.1270 C.3       6 GLP5        0.0000 
     10 CA         32.5080   -5.5170  -18.0340 C.3       3 GLC5        0.0000 
     11 CA         34.4620   -6.2260  -17.5150 C.3       6 GLP5        0.0000 
     12 CA         34.1970   -3.0570  -19.9665 C.3       3 GLC5        0.0000 
     13 CA         33.3230   -4.0340  -21.5380 C.3       9 GLL5        0.0000 
     14 CA         35.0710   -2.0800  -18.3950 C.3       6 GLP5        0.0000 
     15 CA         34.4535   -3.1225  -24.4245 C.3       3 GLC5        0.0000 
     16 CA         32.9940   -3.1990  -23.5020 C.3       9 GLL5        0.0000 
     17 CA         35.9130   -3.0460  -25.3470 C.3       6 GLP5        0.0000 
     18 CA         31.3775    0.8765  -21.6880 C.3       3 GLC5        0.0000 
     19 CA         31.8750   -1.0920  -22.4500 C.3       9 GLL5        0.0000 
     20 CA         30.8800    2.8450  -20.9260 C.3       6 GLP5        0.0000 
     21 CA         30.4155    0.2915  -23.1970 C.3       3 GLC5        0.0000 
     22 CA         28.9560    1.6750  -23.9440 C.3       6 GLP5        0.0000 
     23 CA         33.1680    0.5945  -22.2305 C.3       3 GLC5        0.0000 
     24 CA         34.4610    2.2810  -22.0110 C.3       6 GLP5        0.0000 
     25 CA         30.6385    0.7455  -20.9145 C.3       3 GLC5        0.0000 
     26 CA         30.3970   -1.3540  -20.9030 C.3       9 GLL5        0.0000 
     27 CA         31.8500   -4.7585  -24.8830 C.3       3 GLC5        0.0000 
     28 CA         30.5640   -2.9650  -24.4480 C.3       9 GLL5        0.0000 
     29 CA         33.1360   -6.5520  -25.3180 C.3       6 GLP5        0.0000 
     30 O          28.0970   -1.7320  -27.3465 O.2       1 ALC1        0.0000 
     31 O          27.3790   -2.5100  -26.1580 O.2       7 ALL1        0.0000 
     32 O          28.8150   -0.9540  -28.5350 O.2       4 ALP1        0.0000 
     33 CA         27.1700   -0.7380  -23.9015 C.3       3 GLC5        0.0000 
     34 CA         27.8650   -2.7960  -23.8440 C.3       9 GLL5        0.0000 
     35 CA         26.4750    1.3200  -23.9590 C.3       6 GLP5        0.0000 
     36 CA         26.1475   -4.1805  -24.2230 C.3       3 GLC5        0.0000 
     37 CA         24.4300   -5.5650  -24.6020 C.3       6 GLP5        0.0000 
     38 CA         28.3585   -1.3485  -21.3920 C.3       3 GLC5        0.0000 
     39 CA         28.7930   -2.9800  -22.8270 C.3       9 GLL5        0.0000 
     40 CA         27.9240    0.2830  -19.9570 C.3       6 GLP5        0.0000 
     41 CA         29.9140   -7.8105  -19.6703 C.3       3 GLC5        0.0000 
     42 CA         29.4540   -6.1650  -20.2100 C.3       9 GLL5        0.0000 
     43 CA         30.2110   -9.5820  -19.7940 C.3       6 GLP5        0.0000 
     44 CA         34.8023   -3.8340  -22.5400 C.3       3 GLC5        0.0000 
     45 CA         32.4500   -3.9240  -22.5320 C.3       9 GLL5        0.0000 
     46 CA         36.7180   -3.6890  -23.0450 C.3       6 GLP5        0.0000 
     47 CA         32.5760   -2.0547  -24.2620 C.3       3 GLC5        0.0000 
     48 CA         32.4300   -0.5480  -25.5070 C.3       6 GLP5        0.0000 
     49 CA         33.9006   -5.6997  -21.7702 C.3       3 GLC5        0.0000 
     50 CA         32.1580   -5.1360  -22.9880 C.3       9 GLL5        0.0000 
     51 CA         35.2790   -6.8420  -21.0290 C.3       6 GLP5        0.0000 
     52 CA         32.8925   -5.2082  -24.2245 C.3       3 GLC5        0.0000 
     53 CA         32.0565   -1.0158  -23.7278 C.3       3 GLC5        0.0000 
     54 CA         31.4910   -1.8750  -21.4470 C.3       9 GLL5        0.0000 
     55 CA         29.4340   -0.6658  -20.5660 C.3       3 GLC5        0.0000 
     56 CA         32.4153   -0.8360  -19.5506 C.3       3 GLC5        0.0000 
     57 CA         33.6410   -0.0440  -18.1490 C.3       6 GLP5        0.0000 
     58 CA         31.2140   -1.7234  -25.0673 C.3       3 GLC5        0.0000 
     59 CA         29.6400   -2.7780  -25.4690 C.3       9 GLL5        0.0000 
@<TRIPOS>BOND
@<TRIPOS>SUBSTRUCTURE
     1 ALC1       30 GROUP        1 X    ALC  0     ROOT ALC X 1
     2 SEC2        4 GROUP        1 X    SEC  0     **** SEC X 2
     3 GLC5        1 GROUP        1 X    GLC  0     **** GLC X 6
     4 ALP1       32 GROUP        1 Y    ALP  0     ROOT ALP Y 8
     5 SEP2        6 GROUP        1 Y    SEP  0     **** SEP Y 9
     6 GLP5        3 GROUP        1 Y    GLP  0     **** GLP Y 13
     7 ALL1       31 GROUP        1 Z    ALL  0     ROOT ALL Z 15
     8 SEL2        5 GROUP        1 Z    SEL  0     **** SEL Z 16
     9 GLL5        2 GROUP        1 Z    GLL  0     **** GLL Z 20
@<TRIPOS>SET

