#    Name: 3uua_0CZ_2_ligand
#    Modification time : Mon Mar 24 23:33:50 2014

@<TRIPOS>MOLECULE
3uua_0CZ_2_ligand
   33    34     1     0     0
SMALL
NO_CHARGES


@<TRIPOS>ATOM
      1 CAM        29.9020   -5.3130  -21.2100 C.ar      1 0CZ1        0.0000 
      2 CAI        29.4540   -6.1650  -20.2100 C.ar      1 0CZ1        0.0000 
      3 CAQ        29.7800   -5.9130  -18.8830 C.ar      1 0CZ1        0.0000 
      4 OAA        29.3370   -6.7530  -17.9140 O.3       1 0CZ1        0.0000 
      5 CAJ        30.5540   -4.8080  -18.5530 C.ar      1 0CZ1        0.0000 
      6 CAN        31.0010   -3.9570  -19.5580 C.ar      1 0CZ1        0.0000 
      7 CAS        30.6710   -4.2000  -20.8890 C.ar      1 0CZ1        0.0000 
      8 CAW        31.1780   -3.2670  -21.9970 C.3       1 0CZ1        0.0000 
      9 CAU        32.4500   -3.9240  -22.5320 C.3       1 0CZ1        0.0000 
     10 FAD        33.3230   -4.0340  -21.5380 F         1 0CZ1        0.0000 
     11 FAE        32.1580   -5.1360  -22.9880 F         1 0CZ1        0.0000 
     12 FAC        32.9940   -3.1990  -23.5020 F         1 0CZ1        0.0000 
     13 CAV        31.4910   -1.8750  -21.4470 C.3       1 0CZ1        0.0000 
     14 FAG        32.4730   -1.9290  -20.5560 F         1 0CZ1        0.0000 
     15 FAH        31.8750   -1.0920  -22.4500 F         1 0CZ1        0.0000 
     16 FAF        30.3970   -1.3540  -20.9030 F         1 0CZ1        0.0000 
     17 CAT        30.1480   -3.0740  -23.1240 C.ar      1 0CZ1        0.0000 
     18 CAO        30.5640   -2.9650  -24.4480 C.ar      1 0CZ1        0.0000 
     19 CAK        29.6400   -2.7780  -25.4690 C.ar      1 0CZ1        0.0000 
     20 CAR        28.2880   -2.6930  -25.1640 C.ar      1 0CZ1        0.0000 
     21 OAB        27.3790   -2.5100  -26.1580 O.3       1 0CZ1        0.0000 
     22 CAL        27.8650   -2.7960  -23.8440 C.ar      1 0CZ1        0.0000 
     23 CAP        28.7930   -2.9800  -22.8270 C.ar      1 0CZ1        0.0000 
     24 H          29.6644   -5.5051  -22.1940 H         1 0CZ1        0.0000 
     25 H          28.8797   -6.9845  -20.4510 H         1 0CZ1        0.0000 
     26 H          30.7950   -4.6199  -17.5737 H         1 0CZ1        0.0000 
     27 H          31.5815   -3.1392  -19.3166 H         1 0CZ1        0.0000 
     28 H          31.5706   -3.0239  -24.6729 H         1 0CZ1        0.0000 
     29 H          29.9555   -2.7032  -26.4425 H         1 0CZ1        0.0000 
     30 H          26.8620   -2.7358  -23.6201 H         1 0CZ1        0.0000 
     31 H          28.4767   -3.0471  -21.8488 H         1 0CZ1        0.0000 
     32 H          28.3622   -6.5499  -17.8214 H         1 0CZ1        0.0000 
     33 H          27.8754   -2.0219  -26.8759 H         1 0CZ1        0.0000 
@<TRIPOS>BOND
     1    2    1 ar   
     2    7    1 ar   
     3   24    1 1    
     4    3    2 ar   
     5   25    2 1    
     6    4    3 1    
     7    5    3 ar   
     8   32    4 1    
     9    6    5 ar   
    10   26    5 1    
    11    7    6 ar   
    12   27    6 1    
    13    8    7 1    
    14    9    8 1    
    15   13    8 1    
    16   17    8 1    
    17   10    9 1    
    18   11    9 1    
    19   12    9 1    
    20   14   13 1    
    21   15   13 1    
    22   16   13 1    
    23   18   17 ar   
    24   23   17 ar   
    25   19   18 ar   
    26   28   18 1    
    27   20   19 ar   
    28   29   19 1    
    29   21   20 1    
    30   22   20 ar   
    31   33   21 1    
    32   23   22 ar   
    33   30   22 1    
    34   31   23 1    
@<TRIPOS>SUBSTRUCTURE
     1 0CZ1        1 GROUP   
@<TRIPOS>SET

