#    Name: 4l7r_M00_1_INTS_M
#    Modification time : Tue Mar 25 09:52:54 2014

@<TRIPOS>MOLECULE
4l7r_M00_1_INTS_M
   47     0     9     0     0
SMALL
NO_CHARGES


@<TRIPOS>ATOM
      1 CA         26.2945   -4.1335   15.4840 C.3       3 GLC5        0.0000 
      2 CA         24.9690   -3.6490   14.1050 C.3       9 GLL5        0.0000 
      3 CA         27.6200   -4.6180   16.8630 C.3       6 GLP5        0.0000 
      4 CA         26.6295   -3.3720   13.5700 C.3       3 GLC5        0.0000 
      5 CA         28.2900   -3.0950   13.0350 C.3       6 GLP5        0.0000 
      6 CA         25.2055   -4.6475   16.0600 C.3       3 GLC5        0.0000 
      7 CA         23.8120   -3.5370   15.0350 C.3       9 GLL5        0.0000 
      8 CA         26.5990   -5.7580   17.0850 C.3       6 GLP5        0.0000 
      9 CA         25.6775   -1.1065   14.1815 C.3       3 GLC5        0.0000 
     10 CA         23.4670   -1.1810   13.9410 C.3       9 GLL5        0.0000 
     11 CA         27.8880   -1.0320   14.4220 C.3       6 GLP5        0.0000 
     12 CA         23.8455   -0.8575   15.9875 C.3       3 GLC5        0.0000 
     13 CA         24.2240   -0.5340   18.0340 C.3       6 GLP5        0.0000 
     14 CA         18.8375   -2.0320   12.7685 C.3       3 GLC5        0.0000 
     15 CA         19.8460   -3.9320   12.5820 C.3       9 GLL5        0.0000 
     16 CA         17.8290   -0.1320   12.9550 C.3       6 GLP5        0.0000 
     17 CA         18.5965   -6.1600   14.6280 C.3       3 GLC5        0.0000 
     18 CA         19.2130   -5.1140   13.2450 C.3       9 GLL5        0.0000 
     19 CA         17.9800   -7.2060   16.0110 C.3       6 GLP5        0.0000 
     20 CA         15.5270   -7.5380    8.3130 C.3       3 GLC5        0.0000 
     21 CA         15.7520   -8.2400   10.2830 C.3       9 GLL5        0.0000 
     22 CA         15.3020   -6.8360    6.3430 C.3       6 GLP5        0.0000 
     23 CA         14.4440   -9.7970   11.0395 C.3       3 GLC5        0.0000 
     24 CA         13.1360  -11.3540   11.7960 C.3       6 GLP5        0.0000 
     25 N          14.5555   -4.3115   11.4370 N.am      2 SEC2        0.0000 
     26 N          15.0040   -5.6060   11.1070 N.am      8 SEL2        0.0000 
     27 N          14.1070   -3.0170   11.7670 N.am      5 SEP2        0.0000 
     28 N          13.7335   -5.9485   10.9245 N.am      2 SEC2        0.0000 
     29 N          12.4630   -6.2910   10.7420 N.am      5 SEP2        0.0000 
     30 O          16.6900   -4.1725   12.7520 O.2       1 ALC1        0.0000 
     31 O          17.0190   -5.3510   12.0960 O.2       7 ALL1        0.0000 
     32 O          16.3610   -2.9940   13.4080 O.2       4 ALP1        0.0000 
     33 CA         23.7770   -1.7725   16.3970 C.3       3 GLC5        0.0000 
     34 CA         22.8480   -2.4850   14.4850 C.3       9 GLL5        0.0000 
     35 CA         18.7978   -8.0330    9.7330 C.3       3 GLC5        0.0000 
     36 CA         17.8690   -7.8560   11.4180 C.3       9 GLL5        0.0000 
     37 CA         19.5060   -7.5690    8.1920 C.3       6 GLP5        0.0000 
     38 CA         18.1695   -8.6558    9.2003 C.3       3 GLC5        0.0000 
     39 CA         17.4400   -9.9670   10.4310 C.3       9 GLL5        0.0000 
     40 CA         16.0910  -10.9883   11.4268 C.3       3 GLC5        0.0000 
     41 CA         15.3490  -12.2340   12.6450 C.3       6 GLP5        0.0000 
     42 CA         16.7935  -11.4647    9.4002 C.3       3 GLC5        0.0000 
     43 CA         16.7540  -13.1870    8.5920 C.3       6 GLP5        0.0000 
     44 CA         14.0710   -9.0085    9.5033 C.3       3 GLC5        0.0000 
     45 CA         16.2260   -9.5180    9.9860 C.3       9 GLL5        0.0000 
     46 CA         12.1530   -9.1380    8.8720 C.3       6 GLP5        0.0000 
     47 CA         17.8263   -7.6903    9.4177 C.3       3 GLC5        0.0000 
@<TRIPOS>BOND
@<TRIPOS>SUBSTRUCTURE
     1 ALC1       30 GROUP        1 X    ALC  0     ROOT ALC X 1
     2 SEC2       25 GROUP        1 X    SEC  0     **** SEC X 2
     3 GLC5        1 GROUP        1 X    GLC  0     **** GLC X 6
     4 ALP1       32 GROUP        1 Y    ALP  0     ROOT ALP Y 8
     5 SEP2       27 GROUP        1 Y    SEP  0     **** SEP Y 9
     6 GLP5        3 GROUP        1 Y    GLP  0     **** GLP Y 13
     7 ALL1       31 GROUP        1 Z    ALL  0     ROOT ALL Z 15
     8 SEL2       26 GROUP        1 Z    SEL  0     **** SEL Z 16
     9 GLL5        2 GROUP        1 Z    GLL  0     **** GLL Z 20
@<TRIPOS>SET

