#    Name: 4l7r_M00_1_ligand
#    Modification time : Tue Mar 25 09:52:54 2014

@<TRIPOS>MOLECULE
4l7r_M00_1_ligand
   40    41     1     0     0
SMALL
NO_CHARGES


@<TRIPOS>ATOM
      1 CAA        24.9690   -3.6490   14.1050 C.3       1 M00601      0.0000 
      2 CAI        23.8120   -3.5370   15.0350 C.3       1 M00601      0.0000 
      3 CAU        22.8480   -2.4850   14.4850 C.3       1 M00601      0.0000 
      4 CAJ        23.4670   -1.1810   13.9410 C.3       1 M00601      0.0000 
      5 OAD        22.3240   -0.4110   13.4670 O.3       1 M00601      0.0000 
      6 NAN        21.8970   -3.1260   13.4870 N.am      1 M00601      0.0000 
      7 CAP        20.5800   -3.2470   13.7350 C.2       1 M00601      0.0000 
      8 OAB        20.0250   -2.8470   14.8080 O.2       1 M00601      0.0000 
      9 CAK        19.8460   -3.9320   12.5820 C.3       1 M00601      0.0000 
     10 CAL        19.2130   -5.1140   13.2450 C.3       1 M00601      0.0000 
     11 CAQ        18.3000   -5.8270   12.4850 C.2       1 M00601      0.0000 
     12 NAM        18.6900   -7.0680   12.1340 N.2       1 M00601      0.0000 
     13 CAS        17.8690   -7.8560   11.4180 C.ar      1 M00601      0.0000 
     14 CAG        18.3100   -9.1380   11.1300 C.ar      1 M00601      0.0000 
     15 CAE        17.4400   -9.9670   10.4310 C.ar      1 M00601      0.0000 
     16 CAF        16.2260   -9.5180    9.9860 C.ar      1 M00601      0.0000 
     17 CAH        15.7520   -8.2400   10.2830 C.ar      1 M00601      0.0000 
     18 CAT        16.5410   -7.3830   11.0040 C.ar      1 M00601      0.0000 
     19 CAR        16.1210   -6.0820   11.3640 C.2       1 M00601      0.0000 
     20 OAC        15.0040   -5.6060   11.1070 O.2       1 M00601      0.0000 
     21 NAO        17.0190   -5.3510   12.0960 N.am      1 M00601      0.0000 
     22 H          24.1449   -3.2261   16.0179 H         1 M00601      0.0000 
     23 H          23.2914   -4.4842   15.1075 H         1 M00601      0.0000 
     24 H          22.1889   -2.1793   15.3604 H         1 M00601      0.0000 
     25 H          24.1341   -1.4327   13.1443 H         1 M00601      0.0000 
     26 H          23.9720   -0.6883   14.7442 H         1 M00601      0.0000 
     27 H          22.3452   -3.4538   12.6181 H         1 M00601      0.0000 
     28 H          20.5503   -4.2437   11.8531 H         1 M00601      0.0000 
     29 H          19.1060   -3.2767   12.1980 H         1 M00601      0.0000 
     30 H          18.7468   -4.7432   14.2081 H         1 M00601      0.0000 
     31 H          20.0540   -5.7790   13.6095 H         1 M00601      0.0000 
     32 H          19.2241   -9.4582   11.4149 H         1 M00601      0.0000 
     33 H          17.7275  -10.9521   10.2461 H         1 M00601      0.0000 
     34 H          15.6251  -10.1458    9.4029 H         1 M00601      0.0000 
     35 H          14.8205   -7.9557    9.9596 H         1 M00601      0.0000 
     36 H          16.7635   -4.3734   12.3992 H         1 M00601      0.0000 
     37 H          25.4580   -2.7814   14.0144 H         1 M00601      0.0000 
     38 H          25.6328   -4.3282   14.4181 H         1 M00601      0.0000 
     39 H          24.6822   -3.9212   13.1865 H         1 M00601      0.0000 
     40 H          22.0861   -0.8175   12.5849 H         1 M00601      0.0000 
@<TRIPOS>BOND
     1    2    1 1    
     2   37    1 1    
     3   38    1 1    
     4   39    1 1    
     5    3    2 1    
     6   22    2 1    
     7   23    2 1    
     8    4    3 1    
     9    6    3 1    
    10   24    3 1    
    11    5    4 1    
    12   25    4 1    
    13   26    4 1    
    14   40    5 1    
    15    7    6 am   
    16   27    6 1    
    17    8    7 2    
    18    9    7 1    
    19   10    9 1    
    20   28    9 1    
    21   29    9 1    
    22   11   10 1    
    23   30   10 1    
    24   31   10 1    
    25   12   11 2    
    26   21   11 1    
    27   13   12 1    
    28   14   13 ar   
    29   18   13 ar   
    30   15   14 ar   
    31   32   14 1    
    32   16   15 ar   
    33   33   15 1    
    34   17   16 ar   
    35   34   16 1    
    36   18   17 ar   
    37   35   17 1    
    38   19   18 1    
    39   20   19 2    
    40   21   19 am   
    41   36   21 1    
@<TRIPOS>SUBSTRUCTURE
     1 M00601      1 GROUP   
@<TRIPOS>SET

