#    Name: 4ALI_7_CAVITY_N1_6.mol2
#    Modification time : Tue Mar 11 17:28:44 2014

@<TRIPOS>MOLECULE
4ALI_7_CAVITY_N1_6.mol2
   68     0     5     0     0
SMALL
NO_CHARGES


@<TRIPOS>ATOM
      1 N          -2.7134  -27.4167   15.9052 N.2       2 ALA2        0.0000 
      2 CA         -4.1052  -26.8585   15.8691 C.3       4 GLY6        0.0000 
      3 OG         -5.4970  -26.3004   15.8331 O.2       1 SER1        0.0000 
      4 N          -6.8888  -25.7422   15.7970 N.2       2 ALA2        0.0000 
      5 CA         -8.2807  -25.1841   15.7610 C.3       4 GLY6        0.0000 
      6 OG         -4.6478  -28.2294   15.5928 O.2       1 SER1        0.0000 
      7 CZ         -6.0396  -27.6712   15.5567 C.ar      3 PHE5        0.0000 
      8 CZ         -7.4314  -27.1131   15.5207 C.ar      3 PHE5        0.0000 
      9 CZ         -5.1904  -29.6002   15.3165 C.ar      3 PHE5        0.0000 
     10 CZ         -6.5822  -29.0421   15.2804 C.ar      3 PHE5        0.0000 
     11 OG         -6.9245  -21.5583   19.5378 O.2       1 SER1        0.0000 
     12 CA         -6.0753  -23.4873   19.2975 C.3       4 GLY6        0.0000 
     13 OG         -7.4671  -22.9291   19.2614 O.2       1 SER1        0.0000 
     14 OG         -6.6178  -24.8581   19.0211 O.2       1 SER1        0.0000 
     15 CA         -8.0097  -24.3000   18.9851 C.3       4 GLY6        0.0000 
     16 N          -7.1604  -26.2290   18.7448 N.2       2 ALA2        0.0000 
     17 OG         -4.9194  -28.7161   18.5406 O.2       1 SER1        0.0000 
     18 OG         -6.3112  -28.1580   18.5045 O.2       1 SER1        0.0000 
     19 CZ         -5.4619  -30.0870   18.2642 C.ar      3 PHE5        0.0000 
     20 CZ         -6.8538  -29.5288   18.2282 C.ar      3 PHE5        0.0000 
     21 CA         -5.3969  -21.8730   18.0999 C.3       4 GLY6        0.0000 
     22 OG         -6.7887  -21.3149   18.0639 O.2       1 SER1        0.0000 
     23 CZ         -8.1805  -20.7567   18.0278 C.ar      3 PHE5        0.0000 
     24 CA         -7.3313  -22.6857   17.7875 C.3       4 GLY6        0.0000 
     25 CA         -8.7231  -22.1276   17.7515 C.3       4 GLY6        0.0000 
     26 CA         -6.4820  -24.6147   17.5473 C.3       4 GLY6        0.0000 
     27 CA         -7.8739  -24.0566   17.5112 C.3       4 GLY6        0.0000 
     28 OG         -2.8492  -27.6600   17.3791 O.2       1 SER1        0.0000 
     29 OG         -7.0246  -25.9856   17.2709 O.2       1 SER1        0.0000 
     30 CA         -8.4165  -25.4274   17.2348 C.3       4 GLY6        0.0000 
     31 OG         -4.7836  -28.4727   17.0667 O.2       1 SER1        0.0000 
     32 OG         -6.1754  -27.9146   17.0306 O.2       1 SER1        0.0000 
     33 CZ         -7.5672  -27.3564   16.9946 C.ar      3 PHE5        0.0000 
     34 CZ         -5.3262  -29.8436   16.7903 C.ar      3 PHE5        0.0000 
     35 CA         -3.6633  -29.5176   20.0505 C.3       4 GLY6        0.0000 
     36 CA         -5.0552  -28.9595   20.0144 C.3       4 GLY6        0.0000 
     37 CZ         -6.2461  -19.9440   18.3402 C.ar      3 PHE5        0.0000 
     38 CZ         -7.6379  -19.3859   18.3042 C.ar      3 PHE5        0.0000 
     39 CA         -5.6322  -26.9411   11.1351 C.3       4 GLY6        0.0000 
     40 CA         -6.6529  -21.0715   16.5900 C.3       4 GLY6        0.0000 
     41 CZ         -8.0447  -20.5134   16.5539 C.ar      3 PHE5        0.0000 
     42 CA         -7.1955  -22.4424   16.3137 C.3       4 GLY6        0.0000 
     43 CA         -8.5873  -21.8842   16.2776 C.3       4 GLY6        0.0000 
     44 N          -6.3463  -24.3714   16.0734 N.2       2 ALA2        0.0000 
     45 CA         -7.7381  -23.8132   16.0373 C.3       4 GLY6        0.0000 
     46 CA         -9.1299  -23.2551   16.0012 C.3       4 GLY6        0.0000 
     47 N          -6.2105  -24.1280   14.5995 N.2       2 ALA2        0.0000 
     48 CA         -7.6023  -23.5698   14.5634 C.3       4 GLY6        0.0000 
     49 N          -3.9694  -26.6151   14.3953 N.2       2 ALA2        0.0000 
     50 N          -5.3612  -26.0570   14.3592 N.2       2 ALA2        0.0000 
     51 CA         -6.7531  -25.4988   14.3231 C.3       4 GLY6        0.0000 
     52 DU         -4.5120  -27.9860   14.1189 H         5 CUB7        0.0000 
     53 DU         -5.9038  -27.4278   14.0829 H         5 CUB7        0.0000 
     54 N          -7.2956  -26.8697   14.0468 N.2       2 ALA2        0.0000 
     55 DU         -5.0546  -29.3569   13.8426 H         5 CUB7        0.0000 
     56 CZ         -6.4464  -28.7987   13.8065 C.ar      3 PHE5        0.0000 
     57 N          -7.8382  -28.2405   13.7704 N.2       2 ALA2        0.0000 
     58 CZ         -6.9890  -30.1696   13.5302 C.ar      3 PHE5        0.0000 
     59 O          -3.8336  -26.3718   12.9214 O.2       2 ALA2        0.0000 
     60 CA         -6.6173  -25.2555   12.8493 C.3       4 GLY6        0.0000 
     61 CA         -4.3762  -27.7426   12.6450 C.3       4 GLY6        0.0000 
     62 CA         -5.7680  -27.1845   12.6090 C.3       4 GLY6        0.0000 
     63 N          -7.1598  -26.6263   12.5729 N.2       2 ALA2        0.0000 
     64 CA         -6.3106  -28.5553   12.3326 C.3       4 GLY6        0.0000 
     65 O          -7.7024  -27.9972   12.2966 O.2       2 ALA2        0.0000 
     66 CA         -6.8532  -29.9262   12.0563 C.3       4 GLY6        0.0000 
     67 O          -8.2450  -29.3680   12.0202 O.2       2 ALA2        0.0000 
     68 CA         -7.0597  -22.1990   14.8398 C.3       4 GLY6        0.0000 
@<TRIPOS>BOND
@<TRIPOS>SUBSTRUCTURE
     1 SER1        3 GROUP   
     2 ALA2        1 GROUP   
     3 PHE5        7 GROUP   
     4 GLY6        2 GROUP   
     5 CUB7       52 GROUP   
@<TRIPOS>SET

