#    Name: 4ali_TCL_7_INTS_M
#    Modification time : Tue Mar 25 05:43:25 2014

@<TRIPOS>MOLECULE
4ali_TCL_7_INTS_M
   59     0     9     0     0
SMALL
NO_CHARGES


@<TRIPOS>ATOM
      1 CA         -8.1045  -16.8860   19.7395 C.3       3 GLC5        0.0000 
      2 CA         -6.7690  -18.0270   18.6750 C.3       9 GLL5        0.0000 
      3 CA         -9.4400  -15.7450   20.8040 C.3       6 GLP5        0.0000 
      4 CA         -3.6380  -20.6895   17.0575 C.3       3 GLC5        0.0000 
      5 CA         -4.9220  -20.0890   18.2160 C.3       9 GLL5        0.0000 
      6 CA         -2.3540  -21.2900   15.8990 C.3       6 GLP5        0.0000 
      7 CA         -3.0060  -19.5280   17.1090 C.3       3 GLC5        0.0000 
      8 CA         -4.6440  -18.8100   17.7900 C.3       9 GLL5        0.0000 
      9 CA         -1.3680  -20.2460   16.4280 C.3       6 GLP5        0.0000 
     10 CA         -6.2270  -14.7270   17.7485 C.3       3 GLC5        0.0000 
     11 CA         -5.2220  -16.1580   17.4430 C.3       9 GLL5        0.0000 
     12 CA         -7.2320  -13.2960   18.0540 C.3       6 GLP5        0.0000 
     13 CA         -3.6015  -14.9600   17.8480 C.3       3 GLC5        0.0000 
     14 CA         -1.9810  -13.7620   18.2530 C.3       6 GLP5        0.0000 
     15 CA         -3.4385  -16.4315   16.8595 C.3       3 GLC5        0.0000 
     16 CA         -1.6550  -16.7050   16.2760 C.3       6 GLP5        0.0000 
     17 CA         -5.1930  -16.6685   19.5085 C.3       3 GLC5        0.0000 
     18 CA         -5.1640  -17.1790   21.5740 C.3       6 GLP5        0.0000 
     19 CA         -9.7605  -26.4905   16.7845 C.3       3 GLC5        0.0000 
     20 CA         -8.7010  -25.5400   15.3800 C.3       9 GLL5        0.0000 
     21 CA        -10.8200  -27.4410   18.1890 C.3       6 GLP5        0.0000 
     22 CA        -10.5915  -26.2330   15.0855 C.3       3 GLC5        0.0000 
     23 CA        -12.4820  -26.9260   14.7910 C.3       6 GLP5        0.0000 
     24 CA         -9.1180  -24.7265   14.0500 C.3       3 GLC5        0.0000 
     25 CA         -9.5350  -23.9130   12.7200 C.3       6 GLP5        0.0000 
     26 CA        -10.0575  -24.6270   16.5910 C.3       3 GLC5        0.0000 
     27 CA        -11.4140  -23.7140   17.8020 C.3       6 GLP5        0.0000 
     28 CA         -8.4470  -24.4105   20.7880 C.3       3 GLC5        0.0000 
     29 CA         -6.6450  -24.4310   20.3010 C.3       9 GLL5        0.0000 
     30 CA        -10.2490  -24.3900   21.2750 C.3       6 GLP5        0.0000 
     31 CA         -5.3625  -24.6125   19.3285 C.3       3 GLC5        0.0000 
     32 CA         -4.0800  -24.7940   18.3560 C.3       6 GLP5        0.0000 
     33 CA         -6.9710  -23.0925   21.2975 C.3       3 GLC5        0.0000 
     34 CA         -7.2970  -21.7540   22.2940 C.3       6 GLP5        0.0000 
     35 N          -8.3580  -20.5180   20.6000 N.am      2 SEC2        0.0000 
     36 N          -8.2560  -19.5650   19.6550 N.am      8 SEL2        0.0000 
     37 N          -8.4600  -21.4710   21.5450 N.am      5 SEP2        0.0000 
     38 O          -9.3655  -19.0455   19.3620 O.2       1 ALC1        0.0000 
     39 O          -8.2560  -19.5650   19.6550 O.2       7 ALL1        0.0000 
     40 O         -10.4750  -18.5260   19.0690 O.2       4 ALP1        0.0000 
     41 CA         -5.5970  -19.0242   16.1755 C.3       3 GLC5        0.0000 
     42 CA         -5.5880  -17.7770   17.9820 C.3       9 GLL5        0.0000 
     43 CA         -6.0780  -19.7550   14.4650 C.3       6 GLP5        0.0000 
     44 CA         -6.9455  -20.7923   20.6172 C.3       3 GLC5        0.0000 
     45 CA         -6.1310  -20.3690   18.7970 C.3       9 GLL5        0.0000 
     46 CA         -5.8022  -19.9920   16.4857 C.3       3 GLC5        0.0000 
     47 CA         -9.3485  -26.0075   17.6835 C.3       3 GLC5        0.0000 
     48 CA         -8.0480  -24.3680   16.5380 C.3       9 GLL5        0.0000 
     49 CA         -8.7480  -23.8023   14.5333 C.3       3 GLC5        0.0000 
     50 CA         -5.9785  -24.6840   17.7670 C.3       3 GLC5        0.0000 
     51 CA         -8.8398  -24.3622   19.7673 C.3       3 GLC5        0.0000 
     52 CA         -7.1550  -23.8890   18.7010 C.3       9 GLL5        0.0000 
     53 CA         -9.4650  -23.9727   17.8708 C.3       3 GLC5        0.0000 
     54 CA         -7.1775  -22.4773   20.4000 C.3       3 GLC5        0.0000 
     55 CA         -9.5040  -23.1365   17.2020 C.3       3 GLC5        0.0000 
     56 CA         -7.3140  -22.1030   17.0490 C.3       9 GLL5        0.0000 
     57 CA         -6.8360  -21.1570   15.5335 C.3       3 GLC5        0.0000 
     58 CA         -7.8740  -23.0150   16.1550 C.3       9 GLL5        0.0000 
     59 CA         -5.6330  -23.7229   18.0667 C.3       3 GLC5        0.0000 
@<TRIPOS>BOND
@<TRIPOS>SUBSTRUCTURE
     1 ALC1       38 GROUP        1 X    ALC  0     ROOT ALC X 1
     2 SEC2       35 GROUP        1 X    SEC  0     **** SEC X 2
     3 GLC5        1 GROUP        1 X    GLC  0     **** GLC X 6
     4 ALP1       40 GROUP        1 Y    ALP  0     ROOT ALP Y 8
     5 SEP2       37 GROUP        1 Y    SEP  0     **** SEP Y 9
     6 GLP5        3 GROUP        1 Y    GLP  0     **** GLP Y 13
     7 ALL1       39 GROUP        1 Z    ALL  0     ROOT ALL Z 15
     8 SEL2       36 GROUP        1 Z    SEL  0     **** SEL Z 16
     9 GLL5        2 GROUP        1 Z    GLL  0     **** GLL Z 20
@<TRIPOS>SET

