#    Name: 4ali_TCL_7_ligand
#    Modification time : Tue Mar 25 05:43:25 2014

@<TRIPOS>MOLECULE
4ali_TCL_7_ligand
   24    25     1     0     0
SMALL
NO_CHARGES


@<TRIPOS>ATOM
      1 C1         -6.7690  -18.0270   18.6750 C.ar      1 TCL1258     0.0000 
      2 C2         -5.5880  -17.7770   17.9820 C.ar      1 TCL1258     0.0000 
      3 C6         -7.0570  -19.2920   19.0840 C.ar      1 TCL1258     0.0000 
      4 C5         -6.1310  -20.3690   18.7970 C.ar      1 TCL1258     0.0000 
      5 C4         -4.9220  -20.0890   18.2160 C.ar      1 TCL1258     0.0000 
      6 C3         -4.6440  -18.8100   17.7900 C.ar      1 TCL1258     0.0000 
      7 C11        -8.0480  -24.3680   16.5380 C.ar      1 TCL1258     0.0000 
      8 C10        -7.7060  -24.7800   17.8180 C.ar      1 TCL1258     0.0000 
      9 C9         -7.1550  -23.8890   18.7010 C.ar      1 TCL1258     0.0000 
     10 C8         -6.9610  -22.5120   18.3110 C.ar      1 TCL1258     0.0000 
     11 C12        -7.8740  -23.0150   16.1550 C.ar      1 TCL1258     0.0000 
     12 C13        -7.3140  -22.1030   17.0490 C.ar      1 TCL1258     0.0000 
     13 O7         -6.4150  -21.6280   19.1910 O.3       1 TCL1258     0.0000 
     14 CL14       -5.2220  -16.1580   17.4430 Cl        1 TCL1258     0.0000 
     15 CL15       -8.7010  -25.5400   15.3800 Cl        1 TCL1258     0.0000 
     16 CL16       -6.6450  -24.4310   20.3010 Cl        1 TCL1258     0.0000 
     17 O17        -8.2560  -19.5650   19.6550 O.3       1 TCL1258     0.0000 
     18 H          -7.4141  -17.2463   18.8707 H         1 TCL1258     0.0000 
     19 H          -4.2174  -20.8358   18.0965 H         1 TCL1258     0.0000 
     20 H          -3.7515  -18.5897   17.3292 H         1 TCL1258     0.0000 
     21 H          -7.8699  -25.7603   18.0978 H         1 TCL1258     0.0000 
     22 H          -8.1627  -22.7167   15.2194 H         1 TCL1258     0.0000 
     23 H          -7.1696  -21.1272   16.7539 H         1 TCL1258     0.0000 
     24 H          -8.9051  -18.9579   19.1966 H         1 TCL1258     0.0000 
@<TRIPOS>BOND
     1    2    1 ar   
     2    3    1 ar   
     3   18    1 1    
     4    6    2 ar   
     5   14    2 1    
     6    4    3 ar   
     7   17    3 1    
     8    5    4 ar   
     9   13    4 1    
    10    6    5 ar   
    11   19    5 1    
    12   20    6 1    
    13    8    7 ar   
    14   11    7 ar   
    15   15    7 1    
    16    9    8 ar   
    17   21    8 1    
    18   10    9 ar   
    19   16    9 1    
    20   12   10 ar   
    21   13   10 1    
    22   12   11 ar   
    23   22   11 1    
    24   23   12 1    
    25   24   17 1    
@<TRIPOS>SUBSTRUCTURE
     1 TCL1258     1 GROUP   
@<TRIPOS>SET

