#    Name: 4k1b_1OC_1_INTS_M
#    Modification time : Tue Mar 25 06:45:35 2014

@<TRIPOS>MOLECULE
4k1b_1OC_1_INTS_M
   74     0    12     0     0
SMALL
NO_CHARGES


@<TRIPOS>ATOM
      1 CA        -45.7745    1.6165    1.7420 C.3       4 GLC5        0.0000 
      2 CA        -46.2500   -0.3130    2.1730 C.3      12 GLL5        0.0000 
      3 CA        -45.2990    3.5460    1.3110 C.3       8 GLP5        0.0000 
      4 CA        -44.5745   -3.8295    0.1245 C.3       4 GLC5        0.0000 
      5 CA        -44.3800   -2.0420    1.0810 C.3      12 GLL5        0.0000 
      6 CA        -44.7690   -5.6170   -0.8320 C.3       8 GLP5        0.0000 
      7 CA        -43.3150   -2.8700   -6.9205 C.3       4 GLC5        0.0000 
      8 CA        -42.9080   -1.8260   -5.3360 C.3      12 GLL5        0.0000 
      9 CA        -43.7220   -3.9140   -8.5050 C.3       8 GLP5        0.0000 
     10 CA        -42.5335   -1.1070   -7.1520 C.3       4 GLC5        0.0000 
     11 CA        -42.1590   -0.3880   -8.9680 C.3       8 GLP5        0.0000 
     12 O         -45.0185   -1.3705   -6.3605 O.2       1 ALC1        0.0000 
     13 O         -44.2610   -1.5750   -5.2780 O.2       9 ALL1        0.0000 
     14 O         -45.7760   -1.1660   -7.4430 O.2       5 ALP1        0.0000 
     15 CA        -46.3810   -0.8355   -5.1520 C.3       4 GLC5        0.0000 
     16 CA        -44.6550   -1.4570   -3.9700 C.3      12 GLL5        0.0000 
     17 CA        -48.1070   -0.2140   -6.3340 C.3       8 GLP5        0.0000 
     18 CA        -46.6515   -2.1860   -4.6960 C.3       4 GLC5        0.0000 
     19 CA        -48.6480   -2.9150   -5.4220 C.3       8 GLP5        0.0000 
     20 CA        -47.1770    0.0125   -3.1705 C.3       4 GLC5        0.0000 
     21 CA        -45.9830   -1.1590   -2.1130 C.3      12 GLL5        0.0000 
     22 CA        -48.3710    1.1840   -4.2280 C.3       8 GLP5        0.0000 
     23 CA        -47.6415   -1.6700   -1.1620 C.3       4 GLC5        0.0000 
     24 CA        -49.3000   -2.1810   -0.2110 C.3       8 GLP5        0.0000 
     25 CA        -37.6960   -4.6525   -4.6150 C.3       4 GLC5        0.0000 
     26 CA        -38.7430   -2.7950   -4.1110 C.3      12 GLL5        0.0000 
     27 CA        -36.6490   -6.5100   -5.1190 C.3       8 GLP5        0.0000 
     28 N         -35.4840   -2.6715   -4.6985 N.am      2 SEC2        0.0000 
     29 N         -36.6160   -3.3620   -4.1260 N.am     10 SEL2        0.0000 
     30 N         -34.3520   -1.9810   -5.2710 N.am      6 SEP2        0.0000 
     31 CA        -38.1770   -0.5475   -2.5425 C.3       4 GLC5        0.0000 
     32 CA        -38.2370   -2.5170   -2.8280 C.3      12 GLL5        0.0000 
     33 CA        -38.1170    1.4220   -2.2570 C.3       8 GLP5        0.0000 
     34 CA        -37.4125   -0.3940   -1.4365 C.3       4 GLC5        0.0000 
     35 CA        -36.7080   -2.2100   -0.6160 C.3      12 GLL5        0.0000 
     36 CA        -35.3305   -1.6160   -3.4125 C.3       4 GLC5        0.0000 
     37 CA        -36.1400   -2.7200   -1.7320 C.3      12 GLL5        0.0000 
     38 CA        -34.5210   -0.5120   -5.0930 C.3       8 GLP5        0.0000 
     39 CA        -36.2965   -4.6530   -2.6670 C.3       4 GLC5        0.0000 
     40 CA        -36.4530   -6.5860   -3.6020 C.3       8 GLP5        0.0000 
     41 CA        -39.5960    0.2165    2.0340 C.3       4 GLC5        0.0000 
     42 CA        -40.0550   -1.5420    0.8210 C.3      12 GLL5        0.0000 
     43 CA        -39.1370    1.9750    3.2470 C.3       8 GLP5        0.0000 
     44 CA        -39.9870    0.0340    3.2205 C.3       4 GLC5        0.0000 
     45 CA        -40.8370   -1.9070    3.1940 C.3      12 GLL5        0.0000 
     46 OD1       -42.0895   -5.2855    4.1530 O.co2     3 ASC3        0.0000 
     47 OD1       -41.4520   -4.1300    3.9100 O.co2    11 ASL3        0.0000 
     48 OD1       -42.7270   -6.4410    4.3960 O.co2     7 ASP3        0.0000 
     49 CA        -42.5925   -5.8890    2.7920 C.3       4 GLC5        0.0000 
     50 CA        -40.7770   -4.7670    2.7640 C.3      12 GLL5        0.0000 
     51 CA        -44.4080   -7.0110    2.8200 C.3       8 GLP5        0.0000 
     52 CA        -47.3620    1.4330   -1.7135 C.3       4 GLC5        0.0000 
     53 CA        -46.8550    0.4630    0.0440 C.3      12 GLL5        0.0000 
     54 CA        -47.8690    2.4030   -3.4710 C.3       8 GLP5        0.0000 
     55 CA        -42.4898   -4.0290   -4.7580 C.3       4 GLC5        0.0000 
     56 CA        -42.3930   -1.8800   -4.0880 C.3      12 GLL5        0.0000 
     57 CA        -42.3290   -6.2050   -4.8040 C.3       8 GLP5        0.0000 
     58 CA        -43.6472    0.0905   -4.7894 C.3       4 GLC5        0.0000 
     59 CA        -43.5020    1.8060   -5.3540 C.3       8 GLP5        0.0000 
     60 CA        -44.5462   -3.2275   -3.6889 C.3       4 GLC5        0.0000 
     61 CA        -45.3000   -4.8300   -3.1530 C.3       8 GLP5        0.0000 
     62 CA        -44.7844    0.6786   -1.3350 C.3       4 GLC5        0.0000 
     63 CA        -44.4410    2.6600   -0.8640 C.3       8 GLP5        0.0000 
     64 CA        -45.2139   -3.0664   -2.4795 C.3       4 GLC5        0.0000 
     65 CA        -44.9090   -1.3200   -1.2340 C.3      12 GLL5        0.0000 
     66 CA        -37.1680   -1.3325   -4.5597 C.3       4 GLC5        0.0000 
     67 CA        -35.8460   -0.0090   -5.6500 C.3       8 GLP5        0.0000 
     68 CA        -39.7425   -4.2090   -2.7668 C.3       4 GLC5        0.0000 
     69 CA        -40.9950   -5.7620   -2.0640 C.3       8 GLP5        0.0000 
     70 CA        -40.6755   -4.9332   -0.4975 C.3       4 GLC5        0.0000 
     71 CA        -39.9730   -4.3880    0.5760 C.3      12 GLL5        0.0000 
     72 CA        -45.3366    1.2473   -0.2919 C.3       4 GLC5        0.0000 
     73 CA        -46.0830   -0.3560    0.7980 C.3      12 GLL5        0.0000 
     74 CA        -47.7766   -1.1706    0.1206 C.3       4 GLC5        0.0000 
@<TRIPOS>BOND
@<TRIPOS>SUBSTRUCTURE
     1 ALC1       12 GROUP        1 X    ALC  0     ROOT ALC X 1
     2 SEC2       28 GROUP        1 X    SEC  0     **** SEC X 2
     3 ASC3       46 GROUP        1 X    ASC  0     **** ASC X 3
     4 GLC5        1 GROUP        1 X    GLC  0     **** GLC X 6
     5 ALP1       14 GROUP        1 Y    ALP  0     ROOT ALP Y 8
     6 SEP2       30 GROUP        1 Y    SEP  0     **** SEP Y 9
     7 ASP3       48 GROUP        1 Y    ASP  0     **** ASP Y 10
     8 GLP5        3 GROUP        1 Y    GLP  0     **** GLP Y 13
     9 ALL1       13 GROUP        1 Z    ALL  0     ROOT ALL Z 15
    10 SEL2       29 GROUP        1 Z    SEL  0     **** SEL Z 16
    11 ASL3       47 GROUP        1 Z    ASL  0     **** ASL Z 17
    12 GLL5        2 GROUP        1 Z    GLL  0     **** GLL Z 20
@<TRIPOS>SET

