#    Name: 4k1b_1OC_1_ligand
#    Modification time : Tue Mar 25 06:45:35 2014

@<TRIPOS>MOLECULE
4k1b_1OC_1_ligand
   60    65     1     0     0
SMALL
NO_CHARGES


@<TRIPOS>ATOM
      1 C1        -44.5610   -1.9820    2.4500 C.ar      1 1OC402      0.0000 
      2 C2        -45.4940   -1.1210    2.9980 C.ar      1 1OC402      0.0000 
      3 C3        -46.2500   -0.3130    2.1730 C.ar      1 1OC402      0.0000 
      4 C4        -46.0830   -0.3560    0.7980 C.ar      1 1OC402      0.0000 
      5 C5        -45.1360   -1.2320    0.2350 C.ar      1 1OC402      0.0000 
      6 C6        -44.3800   -2.0420    1.0810 C.ar      1 1OC402      0.0000 
      7 C7        -44.9090   -1.3200   -1.2340 C.ar      1 1OC402      0.0000 
      8 C8        -43.6360   -1.5730   -1.7640 C.ar      1 1OC402      0.0000 
      9 C9        -43.5100   -1.6400   -3.1590 C.ar      1 1OC402      0.0000 
     10 C10       -42.3930   -1.8800   -4.0880 C.2       1 1OC402      0.0000 
     11 C11       -42.9080   -1.8260   -5.3360 C.2       1 1OC402      0.0000 
     12 N12       -44.2610   -1.5750   -5.2780 N.pl3     1 1OC402      0.0000 
     13 C14       -44.6550   -1.4570   -3.9700 C.ar      1 1OC402      0.0000 
     14 N15       -45.8370   -1.2220   -3.4170 N.ar      1 1OC402      0.0000 
     15 C16       -45.9830   -1.1590   -2.1130 C.ar      1 1OC402      0.0000 
     16 N17       -41.0520   -2.1150   -3.7290 N.am      1 1OC402      0.0000 
     17 C18       -40.1090   -2.5850   -4.5840 C.2       1 1OC402      0.0000 
     18 O19       -40.3530   -2.8550   -5.7500 O.2       1 1OC402      0.0000 
     19 C20       -38.7430   -2.7950   -4.1110 C.2       1 1OC402      0.0000 
     20 C21       -37.6830   -3.3140   -4.8730 C.2       1 1OC402      0.0000 
     21 N22       -36.6160   -3.3620   -4.1260 N.2       1 1OC402      0.0000 
     22 N23       -36.9140   -2.8760   -2.8500 N.pl3     1 1OC402      0.0000 
     23 C24       -38.2370   -2.5170   -2.8280 C.2       1 1OC402      0.0000 
     24 N25       -38.7980   -2.0170   -1.7230 N.2       1 1OC402      0.0000 
     25 C26       -38.0710   -1.8500   -0.6290 C.2       1 1OC402      0.0000 
     26 C27       -36.7080   -2.2100   -0.6160 C.2       1 1OC402      0.0000 
     27 C28       -36.1400   -2.7200   -1.7320 C.2       1 1OC402      0.0000 
     28 N29       -38.6400   -1.3280    0.5160 N.pl3     1 1OC402      0.0000 
     29 C30       -40.0550   -1.5420    0.8210 C.3       1 1OC402      0.0000 
     30 C31       -40.0830   -2.5110    2.0000 C.3       1 1OC402      0.0000 
     31 C32       -40.8370   -1.9070    3.1940 C.3       1 1OC402      0.0000 
     32 C33       -40.7680   -2.9100    4.3400 C.3       1 1OC402      0.0000 
     33 N34       -41.4520   -4.1300    3.9100 N.4       1 1OC402      0.0000 
     34 C35       -40.7770   -4.7670    2.7640 C.3       1 1OC402      0.0000 
     35 C36       -40.7390   -3.8210    1.5620 C.3       1 1OC402      0.0000 
     36 F37       -39.9730   -4.3880    0.5760 F         1 1OC402      0.0000 
     37 F38       -46.8550    0.4630    0.0440 F         1 1OC402      0.0000 
     38 H         -43.9940   -2.5860    3.0698 H         1 1OC402      0.0000 
     39 H         -45.6236   -1.0836    4.0191 H         1 1OC402      0.0000 
     40 H         -46.9485    0.3316    2.5825 H         1 1OC402      0.0000 
     41 H         -43.6836   -2.6874    0.6783 H         1 1OC402      0.0000 
     42 H         -42.8369   -1.7026   -1.1618 H         1 1OC402      0.0000 
     43 H         -42.4104   -1.9446   -6.1608 H         1 1OC402      0.0000 
     44 H         -44.8413   -1.4948   -6.0445 H         1 1OC402      0.0000 
     45 H         -46.9296   -0.9822   -1.6795 H         1 1OC402      0.0000 
     46 H         -40.7836   -1.9058   -2.7259 H         1 1OC402      0.0000 
     47 H         -37.7876   -3.5761   -5.7977 H         1 1OC402      0.0000 
     48 H         -36.1703   -2.0752    0.2515 H         1 1OC402      0.0000 
     49 H         -35.1464   -2.9878   -1.7483 H         1 1OC402      0.0000 
     50 H         -38.0920   -0.7766    1.1856 H         1 1OC402      0.0000 
     51 H         -40.5695   -1.9934   -0.0089 H         1 1OC402      0.0000 
     52 H         -40.5338   -0.6251    1.1165 H         1 1OC402      0.0000 
     53 H         -39.0680   -2.7207    2.3006 H         1 1OC402      0.0000 
     54 H         -41.8627   -1.7398    2.9187 H         1 1OC402      0.0000 
     55 H         -40.3617   -0.9880    3.4863 H         1 1OC402      0.0000 
     56 H         -41.2524   -2.4769    5.2080 H         1 1OC402      0.0000 
     57 H         -39.7257   -3.1063    4.5652 H         1 1OC402      0.0000 
     58 H         -41.3021   -5.6802    2.4674 H         1 1OC402      0.0000 
     59 H         -39.7484   -5.0353    3.0241 H         1 1OC402      0.0000 
     60 H         -41.7398   -3.6132    1.2657 H         1 1OC402      0.0000 
@<TRIPOS>BOND
     1    2    1 ar   
     2    6    1 ar   
     3   38    1 1    
     4    3    2 ar   
     5   39    2 1    
     6    4    3 ar   
     7   40    3 1    
     8    5    4 ar   
     9   37    4 1    
    10    6    5 ar   
    11    7    5 1    
    12   41    6 1    
    13    8    7 ar   
    14   15    7 ar   
    15    9    8 ar   
    16   42    8 1    
    17   10    9 1    
    18   13    9 ar   
    19   11   10 2    
    20   16   10 1    
    21   12   11 1    
    22   43   11 1    
    23   13   12 1    
    24   44   12 1    
    25   14   13 ar   
    26   15   14 ar   
    27   45   15 1    
    28   17   16 am   
    29   46   16 1    
    30   18   17 2    
    31   19   17 1    
    32   20   19 1    
    33   23   19 2    
    34   21   20 2    
    35   47   20 1    
    36   22   21 1    
    37   23   22 1    
    38   27   22 1    
    39   24   23 1    
    40   25   24 2    
    41   26   25 1    
    42   28   25 1    
    43   27   26 2    
    44   48   26 1    
    45   49   27 1    
    46   29   28 1    
    47   50   28 1    
    48   30   29 1    
    49   51   29 1    
    50   52   29 1    
    51   31   30 1    
    52   35   30 1    
    53   53   30 1    
    54   32   31 1    
    55   54   31 1    
    56   55   31 1    
    57   33   32 1    
    58   56   32 1    
    59   57   32 1    
    60   34   33 1    
    61   35   34 1    
    62   58   34 1    
    63   59   34 1    
    64   36   35 1    
    65   60   35 1    
@<TRIPOS>SUBSTRUCTURE
     1 1OC402      1 GROUP   
@<TRIPOS>SET

