#    Name: 1uk0_FRM_2_INTS_M
#    Modification time : Tue Mar 25 06:38:11 2014

@<TRIPOS>MOLECULE
1uk0_FRM_2_INTS_M
   48     0     6     0     0
SMALL
NO_CHARGES


@<TRIPOS>ATOM
      1 N          23.8805   37.4580    1.4885 N.am      1 SEC2        0.0000 
      2 N          23.7880   36.7870    2.5120 N.am      5 SEL2        0.0000 
      3 N          23.9730   38.1290    0.4650 N.am      3 SEP2        0.0000 
      4 CA         25.8630   35.7260    6.5740 C.3       2 GLC5        0.0000 
      5 CA         24.4080   34.1440    6.2110 C.3       6 GLL5        0.0000 
      6 CA         27.3180   37.3080    6.9370 C.3       4 GLP5        0.0000 
      7 CA         27.0195   34.9080    5.7950 C.3       2 GLC5        0.0000 
      8 CA         25.7590   33.7310    6.6660 C.3       6 GLL5        0.0000 
      9 CA         28.2800   36.0850    4.9240 C.3       4 GLP5        0.0000 
     10 CA         19.5510   26.8090    9.7135 C.3       2 GLC5        0.0000 
     11 CA         21.6160   26.3120    9.7850 C.3       6 GLL5        0.0000 
     12 CA         17.4860   27.3060    9.6420 C.3       4 GLP5        0.0000 
     13 CA         20.3535   26.7100   11.3655 C.3       2 GLC5        0.0000 
     14 CA         19.0910   27.1080   12.9460 C.3       4 GLP5        0.0000 
     15 CA         20.8255   37.7985    8.3140 C.3       2 GLC5        0.0000 
     16 CA         22.5550   38.1540    8.2040 C.3       6 GLL5        0.0000 
     17 CA         19.0960   37.4430    8.4240 C.3       4 GLP5        0.0000 
     18 CA         24.5540   38.2265    7.8690 C.3       2 GLC5        0.0000 
     19 CA         26.5530   38.2990    7.5340 C.3       4 GLP5        0.0000 
     20 CA         20.1508   40.6815    5.9435 C.3       2 GLC5        0.0000 
     21 CA         21.7440   39.5080    6.2930 C.3       6 GLL5        0.0000 
     22 CA         18.6050   41.7190    6.2650 C.3       4 GLP5        0.0000 
     23 CA         21.4185   36.9095    5.8925 C.3       2 GLC5        0.0000 
     24 CA         23.0160   37.7910    4.5500 C.3       6 GLL5        0.0000 
     25 CA         19.7410   36.1250    6.5430 C.3       4 GLP5        0.0000 
     26 CA         20.5100   38.5070    3.3007 C.3       2 GLC5        0.0000 
     27 CA         22.2830   38.9000    4.0560 C.3       6 GLL5        0.0000 
     28 CA         19.0540   37.6740    2.0980 C.3       4 GLP5        0.0000 
     29 CA         21.3975   40.5595    2.9407 C.3       2 GLC5        0.0000 
     30 CA         20.8290   41.7790    1.3780 C.3       4 GLP5        0.0000 
     31 CA         20.8122   37.7466    6.1428 C.3       2 GLC5        0.0000 
     32 CA         21.6490   39.7800    4.9510 C.3       6 GLL5        0.0000 
     33 CA         25.6307   29.3143    9.9462 C.3       2 GLC5        0.0000 
     34 CA         25.8890   30.2610    8.0080 C.3       6 GLL5        0.0000 
     35 CA         25.7170   29.0290   11.9270 C.3       4 GLP5        0.0000 
     36 CA         24.6340   29.2387   10.1578 C.3       2 GLC5        0.0000 
     37 CA         23.9480   28.8190    8.3300 C.3       6 GLL5        0.0000 
     38 CA         20.2747   24.6487    7.9537 C.3       2 GLC5        0.0000 
     39 CA         22.1450   25.1530    9.2580 C.3       6 GLL5        0.0000 
     40 CA         18.7370   24.7170    6.6380 C.3       4 GLP5        0.0000 
     41 CA         24.4850   24.7025    9.8373 C.3       2 GLC5        0.0000 
     42 CA         23.3390   25.1790    8.5600 C.3       6 GLL5        0.0000 
     43 CA         25.3390   23.6150   11.2490 C.3       4 GLP5        0.0000 
     44 CA         24.6608   27.2351   10.2628 C.3       2 GLC5        0.0000 
     45 CA         23.9230   26.4010    8.2910 C.3       6 GLL5        0.0000 
     46 CA         25.9630   27.5010   11.8430 C.3       4 GLP5        0.0000 
     47 CA         22.4441   24.1111   11.0356 C.3       2 GLC5        0.0000 
     48 CA         23.2080   23.3520   12.6700 C.3       4 GLP5        0.0000 
@<TRIPOS>BOND
@<TRIPOS>SUBSTRUCTURE
     1 SEC2        1 GROUP        1 X    SEC  0     ROOT SEC X 2
     2 GLC5        4 GROUP        1 X    GLC  0     **** GLC X 6
     3 SEP2        3 GROUP        1 Y    SEP  0     ROOT SEP Y 9
     4 GLP5        6 GROUP        1 Y    GLP  0     **** GLP Y 13
     5 SEL2        2 GROUP        1 Z    SEL  0     ROOT SEL Z 16
     6 GLL5        5 GROUP        1 Z    GLL  0     **** GLL Z 20
@<TRIPOS>SET

