#    Name: 1uk0_FRM_2_ligand
#    Modification time : Tue Mar 25 06:38:11 2014

@<TRIPOS>MOLECULE
1uk0_FRM_2_ligand
   53    56     1     0     0
SMALL
NO_CHARGES


@<TRIPOS>ATOM
      1 C1         21.7440   39.5080    6.2930 C.ar      1 FRM502      0.0000 
      2 C2         22.4920   38.4050    6.7750 C.ar      1 FRM502      0.0000 
      3 C3         23.1760   37.5970    5.9340 C.ar      1 FRM502      0.0000 
      4 C4         23.0160   37.7910    4.5500 C.ar      1 FRM502      0.0000 
      5 C5         22.2830   38.9000    4.0560 C.ar      1 FRM502      0.0000 
      6 C6         21.6490   39.7800    4.9510 C.ar      1 FRM502      0.0000 
      7 N10        24.0160   36.6380    6.4110 N.2       1 FRM502      0.0000 
      8 C11        24.2340   35.5450    5.6680 C.2       1 FRM502      0.0000 
      9 N12        23.9550   35.6080    4.3510 N.am      1 FRM502      0.0000 
     10 C13        23.6040   36.7300    3.7050 C.2       1 FRM502      0.0000 
     11 O14        23.7880   36.7870    2.5120 O.2       1 FRM502      0.0000 
     12 C17        24.4080   34.1440    6.2110 C.3       1 FRM502      0.0000 
     13 C20        25.7590   33.7310    6.6660 C.3       1 FRM502      0.0000 
     14 C23        25.7490   32.6560    7.7250 C.3       1 FRM502      0.0000 
     15 N26        25.1300   31.3650    7.5280 N.4       1 FRM502      0.0000 
     16 C29        25.8890   30.2610    8.0080 C.3       1 FRM502      0.0000 
     17 C30        25.2000   28.9380    7.9230 C.3       1 FRM502      0.0000 
     18 C31        23.9480   28.8190    8.3300 C.2       1 FRM502      0.0000 
     19 C32        23.1540   30.0780    8.4470 C.2       1 FRM502      0.0000 
     20 C33        23.7350   31.2280    7.6700 C.3       1 FRM502      0.0000 
     21 C40        23.3570   27.5640    8.6790 C.ar      1 FRM502      0.0000 
     22 C42        22.2310   27.5110    9.4690 C.ar      1 FRM502      0.0000 
     23 C43        21.6160   26.3120    9.7850 C.ar      1 FRM502      0.0000 
     24 C44        22.1450   25.1530    9.2580 C.ar      1 FRM502      0.0000 
     25 C45        23.3390   25.1790    8.5600 C.ar      1 FRM502      0.0000 
     26 C46        23.9230   26.4010    8.2910 C.ar      1 FRM502      0.0000 
     27 C7         22.5550   38.1540    8.2040 C.3       1 FRM502      0.0000 
     28 F1         21.4800   24.0080    9.2810 F         1 FRM502      0.0000 
     29 H          21.2637   40.1129    6.9864 H         1 FRM502      0.0000 
     30 H          22.2187   39.0551    3.0485 H         1 FRM502      0.0000 
     31 H          21.1420   40.5849    4.6006 H         1 FRM502      0.0000 
     32 H          24.0186   34.6991    3.7838 H         1 FRM502      0.0000 
     33 H          24.0456   33.4191    5.4266 H         1 FRM502      0.0000 
     34 H          23.6755   34.0052    7.0574 H         1 FRM502      0.0000 
     35 H          26.3047   34.6126    7.0609 H         1 FRM502      0.0000 
     36 H          26.3496   33.3692    5.7992 H         1 FRM502      0.0000 
     37 H          25.3181   33.1384    8.6818 H         1 FRM502      0.0000 
     38 H          26.8465   32.5019    8.0502 H         1 FRM502      0.0000 
     39 H          25.2745   31.2197    6.3027 H         1 FRM502      0.0000 
     40 H          26.1916   30.4233    9.0764 H         1 FRM502      0.0000 
     41 H          26.8616   30.1786    7.4542 H         1 FRM502      0.0000 
     42 H          25.9032   28.1902    8.4574 H         1 FRM502      0.0000 
     43 H          25.3352   28.5907    6.8274 H         1 FRM502      0.0000 
     44 H          22.3634   30.1513    8.9575 H         1 FRM502      0.0000 
     45 H          23.2311   31.2129    6.6382 H         1 FRM502      0.0000 
     46 H          23.2863   32.1852    8.1185 H         1 FRM502      0.0000 
     47 H          21.8267   28.3991    9.8422 H         1 FRM502      0.0000 
     48 H          20.7971   26.2892   10.3892 H         1 FRM502      0.0000 
     49 H          23.7793   24.3104    8.2500 H         1 FRM502      0.0000 
     50 H          24.8339   26.4123    7.7687 H         1 FRM502      0.0000 
     51 H          23.1101   37.3496    8.4157 H         1 FRM502      0.0000 
     52 H          22.9554   38.9250    8.6992 H         1 FRM502      0.0000 
     53 H          21.6478   37.9949    8.5935 H         1 FRM502      0.0000 
@<TRIPOS>BOND
     1    2    1 ar   
     2    6    1 ar   
     3   29    1 1    
     4    3    2 ar   
     5   27    2 1    
     6    4    3 ar   
     7    7    3 1    
     8    5    4 ar   
     9   10    4 1    
    10    6    5 ar   
    11   30    5 1    
    12   31    6 1    
    13    8    7 2    
    14    9    8 1    
    15   12    8 1    
    16   10    9 am   
    17   32    9 1    
    18   11   10 2    
    19   13   12 1    
    20   33   12 1    
    21   34   12 1    
    22   14   13 1    
    23   35   13 1    
    24   36   13 1    
    25   15   14 1    
    26   37   14 1    
    27   38   14 1    
    28   16   15 1    
    29   20   15 1    
    30   39   15 1    
    31   17   16 1    
    32   40   16 1    
    33   41   16 1    
    34   18   17 1    
    35   42   17 1    
    36   43   17 1    
    37   19   18 2    
    38   21   18 1    
    39   20   19 1    
    40   44   19 1    
    41   45   20 1    
    42   46   20 1    
    43   22   21 ar   
    44   26   21 ar   
    45   23   22 ar   
    46   47   22 1    
    47   24   23 ar   
    48   48   23 1    
    49   25   24 ar   
    50   28   24 1    
    51   26   25 ar   
    52   49   25 1    
    53   50   26 1    
    54   51   27 1    
    55   52   27 1    
    56   53   27 1    
@<TRIPOS>SUBSTRUCTURE
     1 FRM502      1 GROUP   
@<TRIPOS>SET

