#    Name: 2bro_DF2_1_INTS_M
#    Modification time : Mon Mar 24 21:33:51 2014

@<TRIPOS>MOLECULE
2bro_DF2_1_INTS_M
   64     0     9     0     0
SMALL
NO_CHARGES


@<TRIPOS>ATOM
      1 CA          6.4870   -2.8965   21.0900 C.3       3 GLC5        0.0000 
      2 CA          6.0080   -2.2440   19.4940 C.3       9 GLL5        0.0000 
      3 CA          6.9660   -3.5490   22.6860 C.3       6 GLP5        0.0000 
      4 CA          5.6915   -0.8885   21.0965 C.3       3 GLC5        0.0000 
      5 CA          5.3750    0.4670   22.6990 C.3       6 GLP5        0.0000 
      6 CA          5.1565   -0.2745   18.9380 C.3       3 GLC5        0.0000 
      7 CA          4.3050    1.6950   18.3820 C.3       6 GLP5        0.0000 
      8 CA          5.1935   -2.1345   17.7755 C.3       3 GLC5        0.0000 
      9 CA          4.3790   -2.0250   16.0570 C.3       6 GLP5        0.0000 
     10 CA         -0.4195   -5.0635   22.5915 C.3       3 GLC5        0.0000 
     11 CA         -1.4140   -4.0250   20.8720 C.3       9 GLL5        0.0000 
     12 CA          0.5750   -6.1020   24.3110 C.3       6 GLP5        0.0000 
     13 CA          2.2910   -4.6670   16.1175 C.3       3 GLC5        0.0000 
     14 CA          2.4130   -6.5850   17.1240 C.3       9 GLL5        0.0000 
     15 CA          2.1690   -2.7490   15.1110 C.3       6 GLP5        0.0000 
     16 CA          4.6740   -8.9125   18.5395 C.3       3 GLC5        0.0000 
     17 CA          2.8260   -8.9490   17.6610 C.3       9 GLL5        0.0000 
     18 CA          6.5220   -8.8760   19.4180 C.3       6 GLP5        0.0000 
     19 N           4.1675   -0.8100   20.5275 N.am      2 SEC2        0.0000 
     20 N           4.7640   -2.1100   19.9200 N.am      8 SEL2        0.0000 
     21 N           3.5710    0.4900   21.1350 N.am      5 SEP2        0.0000 
     22 CA          8.8520   -5.4585   13.6225 C.3       3 GLC5        0.0000 
     23 CA          8.6480   -5.4600   15.6850 C.3       9 GLL5        0.0000 
     24 CA          9.0560   -5.4570   11.5600 C.3       6 GLP5        0.0000 
     25 CA          5.4070   -3.3035   21.1860 C.3       3 GLC5        0.0000 
     26 CA          3.8480   -3.0580   19.6860 C.3       9 GLL5        0.0000 
     27 CA          3.3075   -1.0990   19.2770 C.3       3 GLC5        0.0000 
     28 CA          2.7670    0.8600   18.8680 C.3       6 GLP5        0.0000 
     29 CA          6.2470   -3.9425   20.6455 C.3       3 GLC5        0.0000 
     30 CA          5.5280   -4.3360   18.6050 C.3       9 GLL5        0.0000 
     31 O           1.7340   -1.9610   20.2090 O.2       1 ALC1        0.0000 
     32 O           2.5400   -3.1060   19.9750 O.2       7 ALL1        0.0000 
     33 O           0.9280   -0.8160   20.4430 O.2       4 ALP1        0.0000 
     34 CA          3.6990   -3.5105   17.4975 C.3       3 GLC5        0.0000 
     35 CA          3.0190   -4.9960   18.9380 C.3       9 GLL5        0.0000 
     36 CA          6.0645   -3.3035   16.2975 C.3       3 GLC5        0.0000 
     37 CA          7.7500   -4.5820   16.5380 C.3       9 GLL5        0.0000 
     38 CA          7.3385   -3.1805   15.0495 C.3       3 GLC5        0.0000 
     39 CA          6.9270   -1.7790   13.5610 C.3       6 GLP5        0.0000 
     40 CA          6.9945   -7.1385   18.6130 C.3       3 GLC5        0.0000 
     41 CA          7.4670   -5.4010   17.8080 C.3       9 GLL5        0.0000 
     42 CA         -0.7540   -3.7170   18.5635 C.3       3 GLC5        0.0000 
     43 CA          0.6750   -4.5770   19.7620 C.3       9 GLL5        0.0000 
     44 CA         -1.8610   -2.3290   17.6870 C.3       6 GLP5        0.0000 
     45 CA         -1.7737   -3.9127   18.7467 C.3       3 GLC5        0.0000 
     46 CA         -1.3250   -5.9030   19.3630 C.3       9 GLL5        0.0000 
     47 CA         -1.2993   -3.1133   19.2192 C.3       3 GLC5        0.0000 
     48 CA          1.2123   -5.0764   21.7625 C.3       3 GLC5        0.0000 
     49 CA         -0.0610   -3.7700   20.6310 C.3       9 GLL5        0.0000 
     50 CA          1.7820   -6.0590   23.3780 C.3       6 GLP5        0.0000 
     51 CA          2.1767  -10.1800   19.3655 C.3       3 GLC5        0.0000 
     52 CA          3.3390   -8.7590   18.9190 C.3       9 GLL5        0.0000 
     53 CA          1.2710  -11.5060   20.4410 C.3       6 GLP5        0.0000 
     54 CA          2.7523   -7.7453   20.8985 C.3       3 GLC5        0.0000 
     55 CA          2.1600   -7.4210   22.7540 C.3       6 GLP5        0.0000 
     56 CA          4.6372   -8.3942   19.9295 C.3       3 GLC5        0.0000 
     57 CA          3.3500   -7.3800   19.1670 C.3       9 GLL5        0.0000 
     58 CA          5.9300   -8.7190   20.8160 C.3       6 GLP5        0.0000 
     59 CA          5.5447   -5.8037   20.0870 C.3       3 GLC5        0.0000 
     60 CA          4.1910   -4.2270   19.0050 C.3       9 GLL5        0.0000 
     61 CA          6.2300   -7.3260   21.3690 C.3       6 GLP5        0.0000 
     62 CA          4.5764   -3.0071   17.5161 C.3       3 GLC5        0.0000 
     63 CA          9.5065   -4.5700   17.9089 C.3       3 GLC5        0.0000 
     64 CA         11.1800   -3.9290   18.8580 C.3       6 GLP5        0.0000 
@<TRIPOS>BOND
@<TRIPOS>SUBSTRUCTURE
     1 ALC1       31 GROUP        1 X    ALC  0     ROOT ALC X 1
     2 SEC2       19 GROUP        1 X    SEC  0     **** SEC X 2
     3 GLC5        1 GROUP        1 X    GLC  0     **** GLC X 6
     4 ALP1       33 GROUP        1 Y    ALP  0     ROOT ALP Y 8
     5 SEP2       21 GROUP        1 Y    SEP  0     **** SEP Y 9
     6 GLP5        3 GROUP        1 Y    GLP  0     **** GLP Y 13
     7 ALL1       32 GROUP        1 Z    ALL  0     ROOT ALL Z 15
     8 SEL2       20 GROUP        1 Z    SEL  0     **** SEL Z 16
     9 GLL5        2 GROUP        1 Z    GLL  0     **** GLL Z 20
@<TRIPOS>SET

