#    Name: 2bro_DF2_1_ligand
#    Modification time : Mon Mar 24 21:33:51 2014

@<TRIPOS>MOLECULE
2bro_DF2_1_ligand
   47    50     1     0     0
SMALL
NO_CHARGES


@<TRIPOS>ATOM
      1 C2          6.0080   -2.2440   19.4940 C.ar      1 DF21277     0.0000 
      2 C10         2.0170   -4.2580   19.5640 C.2       1 DF21277     0.0000 
      3 C11         0.6750   -4.5770   19.7620 C.ar      1 DF21277     0.0000 
      4 C12         0.0310   -5.6330   19.1180 C.ar      1 DF21277     0.0000 
      5 C13        -1.3250   -5.9030   19.3630 C.ar      1 DF21277     0.0000 
      6 C14        -2.0480   -5.0900   20.2500 C.ar      1 DF21277     0.0000 
      7 C15        -1.4140   -4.0250   20.8720 C.ar      1 DF21277     0.0000 
      8 C16        -0.0610   -3.7700   20.6310 C.ar      1 DF21277     0.0000 
      9 C19         2.4130   -6.5850   17.1240 C.ar      1 DF21277     0.0000 
     10 C20         2.3890   -7.9450   16.7750 C.ar      1 DF21277     0.0000 
     11 C21         2.8260   -8.9490   17.6610 C.ar      1 DF21277     0.0000 
     12 C22         3.3390   -8.7590   18.9190 C.ar      1 DF21277     0.0000 
     13 N1          4.7640   -2.1100   19.9200 N.ar      1 DF21277     0.0000 
     14 C26         8.6480   -5.4600   15.6850 C.3       1 DF21277     0.0000 
     15 C6          3.8480   -3.0580   19.6860 C.ar      1 DF21277     0.0000 
     16 C5          4.1910   -4.2270   19.0050 C.ar      1 DF21277     0.0000 
     17 O27         7.8400   -6.5480   15.2260 O.3       1 DF21277     0.0000 
     18 N9          6.0290   -5.3850   17.9910 N.pl3     1 DF21277     0.0000 
     19 C4          5.5280   -4.3360   18.6050 C.ar      1 DF21277     0.0000 
     20 N3          6.4000   -3.3520   18.8690 N.ar      1 DF21277     0.0000 
     21 N90         2.5400   -3.1060   19.9750 N.pl3     1 DF21277     0.0000 
     22 C17         3.3500   -7.3800   19.1670 C.ar      1 DF21277     0.0000 
     23 C1          3.0190   -4.9960   18.9380 C.2       1 DF21277     0.0000 
     24 C18         2.9050   -6.3050   18.3830 C.ar      1 DF21277     0.0000 
     25 C23         7.7500   -4.5820   16.5380 C.3       1 DF21277     0.0000 
     26 C8          7.4670   -5.4010   17.8080 C.3       1 DF21277     0.0000 
     27 O24         8.3350   -3.2640   16.8360 O.3       1 DF21277     0.0000 
     28 H           6.7027   -1.4648   19.6493 H         1 DF21277     0.0000 
     29 H           0.5523   -6.2242   18.4542 H         1 DF21277     0.0000 
     30 H          -1.7837   -6.6886   18.8971 H         1 DF21277     0.0000 
     31 H          -3.0355   -5.2881   20.4313 H         1 DF21277     0.0000 
     32 H          -1.9387   -3.4157   21.5160 H         1 DF21277     0.0000 
     33 H           0.3986   -2.9750   21.1018 H         1 DF21277     0.0000 
     34 H           2.0941   -5.8795   16.4975 H         1 DF21277     0.0000 
     35 H           2.0398   -8.2199   15.8384 H         1 DF21277     0.0000 
     36 H           2.7437   -9.9588   17.3033 H         1 DF21277     0.0000 
     37 H           3.6355   -9.4249   19.5215 H         1 DF21277     0.0000 
     38 H           9.0271   -4.8632   14.8632 H         1 DF21277     0.0000 
     39 H           9.4740   -5.8008   16.2988 H         1 DF21277     0.0000 
     40 H           5.4984   -6.1686   17.6422 H         1 DF21277     0.0000 
     41 H           2.0426   -2.3880   20.4271 H         1 DF21277     0.0000 
     42 H           3.7798   -7.0910   20.1401 H         1 DF21277     0.0000 
     43 H           6.8012   -4.4780   16.0146 H         1 DF21277     0.0000 
     44 H           7.8391   -6.4014   17.6530 H         1 DF21277     0.0000 
     45 H           7.9801   -4.9314   18.6324 H         1 DF21277     0.0000 
     46 H           7.1315   -6.1240   14.6619 H         1 DF21277     0.0000 
     47 H           7.8390   -2.9367   17.6403 H         1 DF21277     0.0000 
@<TRIPOS>BOND
     1   13    1 ar   
     2   20    1 ar   
     3   28    1 1    
     4    3    2 1    
     5   21    2 1    
     6   23    2 2    
     7    4    3 ar   
     8    8    3 ar   
     9    5    4 ar   
    10   29    4 1    
    11    6    5 ar   
    12   30    5 1    
    13    7    6 ar   
    14   31    6 1    
    15    8    7 ar   
    16   32    7 1    
    17   33    8 1    
    18   10    9 ar   
    19   24    9 ar   
    20   34    9 1    
    21   11   10 ar   
    22   35   10 1    
    23   12   11 ar   
    24   36   11 1    
    25   22   12 ar   
    26   37   12 1    
    27   15   13 ar   
    28   17   14 1    
    29   25   14 1    
    30   38   14 1    
    31   39   14 1    
    32   16   15 ar   
    33   21   15 1    
    34   19   16 ar   
    35   23   16 1    
    36   46   17 1    
    37   19   18 1    
    38   26   18 1    
    39   40   18 1    
    40   20   19 ar   
    41   41   21 1    
    42   24   22 ar   
    43   42   22 1    
    44   24   23 1    
    45   26   25 1    
    46   27   25 1    
    47   43   25 1    
    48   44   26 1    
    49   45   26 1    
    50   47   27 1    
@<TRIPOS>SUBSTRUCTURE
     1 DF21277     1 GROUP   
@<TRIPOS>SET

