#    Name: 2bwg_5GP_3_INTS_M
#    Modification time : Mon Mar 24 21:47:26 2014

@<TRIPOS>MOLECULE
2bwg_5GP_3_INTS_M
   64     0     9     0     0
SMALL
NO_CHARGES


@<TRIPOS>ATOM
      1 N          -6.7915   20.5280  -80.3365 N.am      2 SEC2        0.0000 
      2 N          -6.0020   21.0990  -79.4580 N.am      8 SEL2        0.0000 
      3 N          -7.5810   19.9570  -81.2150 N.am      5 SEP2        0.0000 
      4 N          -4.5070   20.6625  -79.5970 N.am      2 SEC2        0.0000 
      5 N          -3.0120   20.2260  -79.7360 N.am      5 SEP2        0.0000 
      6 N          -6.1445   24.2290  -77.2325 N.am      2 SEC2        0.0000 
      7 N          -5.8540   22.9370  -77.8450 N.am      8 SEL2        0.0000 
      8 N          -6.4350   25.5210  -76.6200 N.am      5 SEP2        0.0000 
      9 N          -7.2565   23.2760  -77.2120 N.am      2 SEC2        0.0000 
     10 N          -8.6590   23.6150  -76.5790 N.am      5 SEP2        0.0000 
     11 N          -7.6670   21.4775  -80.3810 N.am      2 SEC2        0.0000 
     12 N          -7.7530   22.9980  -79.5470 N.am      8 SEL2        0.0000 
     13 N          -8.6555   22.0580  -79.4530 N.am      2 SEC2        0.0000 
     14 N          -9.5580   21.1180  -79.3590 N.am      5 SEP2        0.0000 
     15 N          -8.2060   23.3065  -78.0630 N.am      2 SEC2        0.0000 
     16 CA         -5.8625   26.8010  -79.7785 C.3       3 GLC5        0.0000 
     17 CA         -5.7850   24.7500  -80.5610 C.3       9 GLL5        0.0000 
     18 CA         -5.9400   28.8520  -78.9960 C.3       6 GLP5        0.0000 
     19 CA         -6.8030   25.3050  -78.7170 C.3       3 GLC5        0.0000 
     20 CA         -7.8210   25.8600  -76.8730 C.3       6 GLP5        0.0000 
     21 CA         -5.7475   27.7240  -80.6275 C.3       3 GLC5        0.0000 
     22 CA         -5.5550   26.5960  -82.2590 C.3       9 GLL5        0.0000 
     23 O          -3.4005   27.2185  -81.5790 O.2       1 ALC1        0.0000 
     24 O          -4.6140   27.4870  -81.7180 O.2       7 ALL1        0.0000 
     25 O          -2.1870   26.9500  -81.4400 O.2       4 ALP1        0.0000 
     26 CA         -5.9520   27.5515  -85.5240 C.3       3 GLC5        0.0000 
     27 CA         -5.5410   26.6100  -83.7680 C.3       9 GLL5        0.0000 
     28 CA         -6.3630   28.4930  -87.2800 C.3       6 GLP5        0.0000 
     29 N          -3.9410   27.7805  -85.3270 N.am      2 SEC2        0.0000 
     30 N          -4.2040   26.7240  -84.2260 N.am      8 SEL2        0.0000 
     31 N          -3.6780   28.8370  -86.4280 N.am      5 SEP2        0.0000 
     32 O          -3.1955   26.8370  -82.8330 O.2       1 ALC1        0.0000 
     33 O          -4.2040   26.7240  -84.2260 O.2       7 ALL1        0.0000 
     34 O          -2.9145   27.0145  -83.8730 O.2       1 ALC1        0.0000 
     35 O          -1.6250   27.3050  -83.5200 O.2       4 ALP1        0.0000 
     36 N         -10.8060   26.9005  -85.2950 N.am      2 SEC2        0.0000 
     37 N          -9.6370   26.0110  -85.0620 N.am      8 SEL2        0.0000 
     38 N         -11.9750   27.7900  -85.5280 N.am      5 SEP2        0.0000 
     39 CA        -11.1220   25.5650  -85.5265 C.3       3 GLC5        0.0000 
     40 CA         -9.1870   25.3810  -86.1840 C.3       9 GLL5        0.0000 
     41 CA        -13.0570   25.7490  -84.8690 C.3       6 GLP5        0.0000 
     42 CA         -9.7870   27.5050  -86.0275 C.3       3 GLC5        0.0000 
     43 CA        -10.3870   29.6290  -85.8710 C.3       6 GLP5        0.0000 
     44 N         -11.5470   26.7820  -87.9930 N.am      2 SEC2        0.0000 
     45 N         -10.8940   25.3110  -87.7350 N.am      8 SEL2        0.0000 
     46 N         -12.2000   28.2530  -88.2510 N.am      5 SEP2        0.0000 
     47 O          -9.5835   24.5570  -89.5785 O.2       1 ALC1        0.0000 
     48 O          -8.9720   24.3900  -88.3500 O.2       7 ALL1        0.0000 
     49 O         -10.1950   24.7240  -90.8070 O.2       4 ALP1        0.0000 
     50 O          -7.8620   22.6550  -89.5580 O.2       1 ALC1        0.0000 
     51 O          -6.8840   23.4430  -88.9430 O.2       7 ALL1        0.0000 
     52 O          -8.8400   21.8670  -90.1730 O.2       4 ALP1        0.0000 
     53 CA         -7.5285   22.9735  -86.0595 C.3       3 GLC5        0.0000 
     54 CA         -7.8550   25.0320  -85.9320 C.3       9 GLL5        0.0000 
     55 CA         -7.2020   20.9150  -86.1870 C.3       6 GLP5        0.0000 
     56 CA         -4.0892   23.7398  -80.7758 C.3       3 GLC5        0.0000 
     57 CA         -2.6500   22.5330  -80.3060 C.3       6 GLP5        0.0000 
     58 CA         -7.3634   26.3356  -81.2046 C.3       3 GLC5        0.0000 
     59 CA         -5.2720   25.1430  -81.9300 C.3       9 GLL5        0.0000 
     60 CA         -9.1850   26.9000  -80.6570 C.3       6 GLP5        0.0000 
     61 CA         -6.7365   28.1420  -83.7212 C.3       3 GLC5        0.0000 
     62 CA         -7.9250   29.6810  -84.4290 C.3       6 GLP5        0.0000 
     63 CA         -8.0890   26.7662  -87.0560 C.3       3 GLC5        0.0000 
     64 CA         -7.6570   28.3260  -88.0540 C.3       6 GLP5        0.0000 
@<TRIPOS>BOND
@<TRIPOS>SUBSTRUCTURE
     1 ALC1       23 GROUP        1 X    ALC  0     ROOT ALC X 1
     2 SEC2        1 GROUP        1 X    SEC  0     **** SEC X 2
     3 GLC5       16 GROUP        1 X    GLC  0     **** GLC X 6
     4 ALP1       25 GROUP        1 Y    ALP  0     ROOT ALP Y 8
     5 SEP2        3 GROUP        1 Y    SEP  0     **** SEP Y 9
     6 GLP5       18 GROUP        1 Y    GLP  0     **** GLP Y 13
     7 ALL1       24 GROUP        1 Z    ALL  0     ROOT ALL Z 15
     8 SEL2        2 GROUP        1 Z    SEL  0     **** SEL Z 16
     9 GLL5       17 GROUP        1 Z    GLL  0     **** GLL Z 20
@<TRIPOS>SET

