#    Name: 2bwg_5GP_3_ligand
#    Modification time : Mon Mar 24 21:47:26 2014

@<TRIPOS>MOLECULE
2bwg_5GP_3_ligand
   36    38     1     0     0
SMALL
NO_CHARGES


@<TRIPOS>ATOM
      1 P          -6.3390   22.5410  -79.2180 P.3       1 5GP1339     0.0000 
      2 O1P        -6.0020   21.0990  -79.4580 O.co2     1 5GP1339     0.0000 
      3 O2P        -5.8540   22.9370  -77.8450 O.co2     1 5GP1339     0.0000 
      4 O3P        -7.7530   22.9980  -79.5470 O.co2     1 5GP1339     0.0000 
      5 O5'        -5.4720   23.3840  -80.2890 O.3       1 5GP1339     0.0000 
      6 C5'        -5.7850   24.7500  -80.5610 C.3       1 5GP1339     0.0000 
      7 C4'        -5.2720   25.1430  -81.9300 C.3       1 5GP1339     0.0000 
      8 O4'        -5.9680   24.4210  -82.9590 O.3       1 5GP1339     0.0000 
      9 C3'        -5.5550   26.5960  -82.2590 C.3       1 5GP1339     0.0000 
     10 O3'        -4.6140   27.4870  -81.7180 O.3       1 5GP1339     0.0000 
     11 C2'        -5.5410   26.6100  -83.7680 C.3       1 5GP1339     0.0000 
     12 O2'        -4.2040   26.7240  -84.2260 O.3       1 5GP1339     0.0000 
     13 C1'        -6.1150   25.2450  -84.1430 C.3       1 5GP1339     0.0000 
     14 N9         -7.5070   25.4400  -84.7000 N.pl3     1 5GP1339     0.0000 
     15 C8         -8.6030   26.0470  -84.1620 C.2       1 5GP1339     0.0000 
     16 N7         -9.6370   26.0110  -85.0620 N.2       1 5GP1339     0.0000 
     17 C5         -9.1870   25.3810  -86.1840 C.2       1 5GP1339     0.0000 
     18 C6         -9.7240   25.0440  -87.4370 C.2       1 5GP1339     0.0000 
     19 O6        -10.8940   25.3110  -87.7350 O.2       1 5GP1339     0.0000 
     20 N1         -8.9720   24.3900  -88.3500 N.am      1 5GP1339     0.0000 
     21 C2         -7.6830   24.0740  -88.0670 C.2       1 5GP1339     0.0000 
     22 N2         -6.8840   23.4430  -88.9430 N.pl3     1 5GP1339     0.0000 
     23 N3         -7.1330   24.3920  -86.8860 N.2       1 5GP1339     0.0000 
     24 C4         -7.8550   25.0320  -85.9320 C.2       1 5GP1339     0.0000 
     25 H          -5.3291   25.4232  -79.8205 H         1 5GP1339     0.0000 
     26 H          -6.8702   24.9267  -80.5405 H         1 5GP1339     0.0000 
     27 H          -4.2222   24.9773  -81.9988 H         1 5GP1339     0.0000 
     28 H          -6.5703   26.8016  -81.9502 H         1 5GP1339     0.0000 
     29 H          -6.1865   27.3581  -84.1144 H         1 5GP1339     0.0000 
     30 H          -5.4631   24.8680  -84.9439 H         1 5GP1339     0.0000 
     31 H          -8.6486   26.4432  -83.2818 H         1 5GP1339     0.0000 
     32 H          -9.3793   24.1277  -89.2708 H         1 5GP1339     0.0000 
     33 H          -7.3409   22.8568  -89.6120 H         1 5GP1339     0.0000 
     34 H          -5.9037   23.6158  -88.8479 H         1 5GP1339     0.0000 
     35 H          -3.9383   26.9058  -81.2647 H         1 5GP1339     0.0000 
     36 H          -3.6959   27.0986  -83.4504 H         1 5GP1339     0.0000 
@<TRIPOS>BOND
     1    2    1 ar   
     2    3    1 ar   
     3    4    1 ar   
     4    5    1 1    
     5    6    5 1    
     6    7    6 1    
     7   25    6 1    
     8   26    6 1    
     9    8    7 1    
    10    9    7 1    
    11   27    7 1    
    12   13    8 1    
    13   10    9 1    
    14   11    9 1    
    15   28    9 1    
    16   35   10 1    
    17   12   11 1    
    18   13   11 1    
    19   29   11 1    
    20   36   12 1    
    21   14   13 1    
    22   30   13 1    
    23   15   14 1    
    24   24   14 1    
    25   16   15 2    
    26   31   15 1    
    27   17   16 1    
    28   18   17 1    
    29   24   17 2    
    30   19   18 2    
    31   20   18 am   
    32   21   20 1    
    33   32   20 1    
    34   22   21 1    
    35   23   21 2    
    36   33   22 1    
    37   34   22 1    
    38   24   23 1    
@<TRIPOS>SUBSTRUCTURE
     1 5GP1339     1 GROUP   
@<TRIPOS>SET

