#    Name: 2za0_MGI_1_INTS_M
#    Modification time : Tue Mar 25 10:25:11 2014

@<TRIPOS>MOLECULE
2za0_MGI_1_INTS_M
   51     0    12     0     0
SMALL
NO_CHARGES


@<TRIPOS>ATOM
      1 CA         49.5480   29.0550   60.5350 C.3       4 GLC5        0.0000 
      2 CA         49.2840   30.1420   58.7540 C.3      12 GLL5        0.0000 
      3 CA         49.8120   27.9680   62.3160 C.3       8 GLP5        0.0000 
      4 CA         48.5595   31.0925   60.0760 C.3       4 GLC5        0.0000 
      5 CA         47.8350   32.0430   61.3980 C.3       8 GLP5        0.0000 
      6 CA         42.0820   27.2855   58.8375 C.3       4 GLC5        0.0000 
      7 CA         43.0680   29.0460   58.7550 C.3      12 GLL5        0.0000 
      8 CA         41.0960   25.5250   58.9200 C.3       8 GLP5        0.0000 
      9 CA         46.8005   32.2285   59.9010 C.3       4 GLC5        0.0000 
     10 CA         45.7660   32.4140   58.4040 C.3      12 GLL5        0.0000 
     11 CA         44.9890   33.2580   60.1035 C.3       4 GLC5        0.0000 
     12 CA         44.2120   34.1020   61.8030 C.3       8 GLP5        0.0000 
     13 CA         41.6835   27.7750   61.2605 C.3       4 GLC5        0.0000 
     14 CA         40.2080   29.2260   60.4030 C.3      12 GLL5        0.0000 
     15 CA         43.1590   26.3240   62.1180 C.3       8 GLP5        0.0000 
     16 Zn         38.4910   29.9500   56.2910 Zn        3 ZIC7        0.0000 
     17 Zn         39.2590   30.3000   57.0020 Zn       11 ZIL7        0.0000 
     18 Zn         37.7230   29.6000   55.5800 Zn        7 ZIP7        0.0000 
     19 O          38.5205   31.3285   57.0030 O.2       1 ALC1        0.0000 
     20 O          39.2590   30.3000   57.0020 O.2       9 ALL1        0.0000 
     21 O          37.7820   32.3570   57.0040 O.2       5 ALP1        0.0000 
     22 Zn         37.4395   29.0995   56.5725 Zn        3 ZIC7        0.0000 
     23 Zn         37.1560   28.5990   57.5650 Zn       11 ZIL7        0.0000 
     24 N          35.8645   28.3990   56.7315 N.am      2 SEC2        0.0000 
     25 N          37.1560   28.5990   57.5650 N.am     10 SEL2        0.0000 
     26 N          34.5730   28.1990   55.8980 N.am      6 SEP2        0.0000 
     27 O          37.5110   27.5025   57.0675 O.2       1 ALC1        0.0000 
     28 O          37.1560   28.5990   57.5650 O.2       9 ALL1        0.0000 
     29 O          37.8660   26.4060   56.5700 O.2       5 ALP1        0.0000 
     30 CA         41.1135   26.9920   62.0730 C.3       4 GLC5        0.0000 
     31 CA         39.0680   27.6600   62.0280 C.3      12 GLL5        0.0000 
     32 CA         37.4805   26.5770   62.7255 C.3       4 GLC5        0.0000 
     33 CA         35.8930   25.4940   63.4230 C.3       8 GLP5        0.0000 
     34 CA         39.5100   29.2515   63.1305 C.3       4 GLC5        0.0000 
     35 CA         39.9520   30.8430   64.2330 C.3       8 GLP5        0.0000 
     36 CA         46.4823   31.2707   59.9800 C.3       4 GLC5        0.0000 
     37 CA         45.3720   29.8120   58.5920 C.3      12 GLL5        0.0000 
     38 CA         44.4264   28.7986   60.5689 C.3       4 GLC5        0.0000 
     39 CA         44.4190   28.7610   58.7010 C.3      12 GLL5        0.0000 
     40 CA         44.8710   28.4310   62.4370 C.3       8 GLP5        0.0000 
     41 CA         40.6617   27.5407   59.3425 C.3       4 GLC5        0.0000 
     42 CA         39.2157   30.8972   60.1945 C.3       4 GLC5        0.0000 
     43 CA         38.2040   32.2380   60.6240 C.3       8 GLP5        0.0000 
     44 CA         38.4465   30.7400   59.4840 C.3       4 GLC5        0.0000 
     45 CA         39.2200   29.6720   58.1950 C.3      12 GLL5        0.0000 
     46 CA         39.6162   27.0030   59.0233 C.3       4 GLC5        0.0000 
     47 CA         38.1580   28.8120   58.4930 C.3      12 GLL5        0.0000 
     48 CA         38.4142   30.2462   60.4290 C.3       4 GLC5        0.0000 
     49 CA         38.1150   28.1500   59.7600 C.3      12 GLL5        0.0000 
     50 CA         40.0985   26.7673   60.1440 C.3       4 GLC5        0.0000 
     51 CA         39.1340   28.3590   60.7080 C.3      12 GLL5        0.0000 
@<TRIPOS>BOND
@<TRIPOS>SUBSTRUCTURE
     1 ALC1       19 GROUP        1 X    ALC  0     ROOT ALC X 1
     2 SEC2       24 GROUP        1 X    SEC  0     **** SEC X 2
     3 ZIC7       16 GROUP        1 X    ZIC  0     **** ZIC X 5
     4 GLC5        1 GROUP        1 X    GLC  0     **** GLC X 6
     5 ALP1       21 GROUP        1 Y    ALP  0     ROOT ALP Y 8
     6 SEP2       26 GROUP        1 Y    SEP  0     **** SEP Y 9
     7 ZIP7       18 GROUP        1 Y    ZIP  0     **** ZIP Y 12
     8 GLP5        3 GROUP        1 Y    GLP  0     **** GLP Y 13
     9 ALL1       20 GROUP        1 Z    ALL  0     ROOT ALL Z 15
    10 SEL2       25 GROUP        1 Z    SEL  0     **** SEL Z 16
    11 ZIL7       17 GROUP        1 Z    ZIL  0     **** ZIL Z 19
    12 GLL5        2 GROUP        1 Z    GLL  0     **** GLL Z 20
@<TRIPOS>SET

