#    Name: 2za0_MGI_1_ligand
#    Modification time : Tue Mar 25 10:25:11 2014

@<TRIPOS>MOLECULE
2za0_MGI_1_ligand
   38    39     1     0     0
SMALL
NO_CHARGES


@<TRIPOS>ATOM
      1 O2         47.1770   28.2680   58.5000 O.2       1 MGI300      0.0000 
      2 C1         46.8420   29.4440   58.5450 C.2       1 MGI300      0.0000 
      3 O1         47.8880   30.4530   58.5820 O.3       1 MGI300      0.0000 
      4 C9         49.2840   30.1420   58.7540 C.3       1 MGI300      0.0000 
      5 C2         45.3720   29.8120   58.5920 C.ar      1 MGI300      0.0000 
      6 C7         44.4190   28.7610   58.7010 C.ar      1 MGI300      0.0000 
      7 O3         44.8100   27.4610   58.7590 O.3       1 MGI300      0.0000 
      8 C6         43.0680   29.0460   58.7550 C.ar      1 MGI300      0.0000 
      9 C3         44.8870   31.1850   58.5320 C.ar      1 MGI300      0.0000 
     10 C8         45.7660   32.4140   58.4040 C.3       1 MGI300      0.0000 
     11 C4         43.5170   31.4340   58.5920 C.ar      1 MGI300      0.0000 
     12 C5         42.5980   30.3930   58.7040 C.ar      1 MGI300      0.0000 
     13 O4         41.2820   30.7380   58.7630 O.3       1 MGI300      0.0000 
     14 C10        40.2470   29.8870   59.1270 C.ar      1 MGI300      0.0000 
     15 C15        40.2080   29.2260   60.4030 C.ar      1 MGI300      0.0000 
     16 C11        39.2200   29.6720   58.1950 C.ar      1 MGI300      0.0000 
     17 O5         39.2590   30.3000   57.0020 O.3       1 MGI300      0.0000 
     18 C12        38.1580   28.8120   58.4930 C.ar      1 MGI300      0.0000 
     19 O6         37.1560   28.5990   57.5650 O.3       1 MGI300      0.0000 
     20 C13        38.1150   28.1500   59.7600 C.ar      1 MGI300      0.0000 
     21 C14        39.1340   28.3590   60.7080 C.ar      1 MGI300      0.0000 
     22 C16        39.0680   27.6600   62.0280 C.3       1 MGI300      0.0000 
     23 H          42.3732   28.2885   58.8333 H         1 MGI300      0.0000 
     24 H          43.1760   32.4114   58.5526 H         1 MGI300      0.0000 
     25 H          40.9516   29.3878   61.0730 H         1 MGI300      0.0000 
     26 H          37.3353   27.5233   59.9687 H         1 MGI300      0.0000 
     27 H          49.8512   30.9655   58.7497 H         1 MGI300      0.0000 
     28 H          49.4559   29.6722   59.6199 H         1 MGI300      0.0000 
     29 H          49.6246   29.5477   58.0254 H         1 MGI300      0.0000 
     30 H          46.4022   32.4971   59.1710 H         1 MGI300      0.0000 
     31 H          46.3153   32.3924   57.5686 H         1 MGI300      0.0000 
     32 H          45.2264   33.2555   58.3783 H         1 MGI300      0.0000 
     33 H          39.8608   27.0685   62.1751 H         1 MGI300      0.0000 
     34 H          39.0397   28.3071   62.7899 H         1 MGI300      0.0000 
     35 H          38.2543   27.0835   62.1027 H         1 MGI300      0.0000 
     36 H          45.8072   27.4875   58.6894 H         1 MGI300      0.0000 
     37 H          39.1131   31.2664   57.2135 H         1 MGI300      0.0000 
     38 H          37.0468   27.6057   57.5256 H         1 MGI300      0.0000 
@<TRIPOS>BOND
     1    2    1 2    
     2    3    2 1    
     3    5    2 1    
     4    4    3 1    
     5   27    4 1    
     6   28    4 1    
     7   29    4 1    
     8    6    5 ar   
     9    9    5 ar   
    10    7    6 1    
    11    8    6 ar   
    12   36    7 1    
    13   12    8 ar   
    14   23    8 1    
    15   10    9 1    
    16   11    9 ar   
    17   30   10 1    
    18   31   10 1    
    19   32   10 1    
    20   12   11 ar   
    21   24   11 1    
    22   13   12 1    
    23   14   13 1    
    24   15   14 ar   
    25   16   14 ar   
    26   21   15 ar   
    27   25   15 1    
    28   17   16 1    
    29   18   16 ar   
    30   37   17 1    
    31   19   18 1    
    32   20   18 ar   
    33   38   19 1    
    34   21   20 ar   
    35   26   20 1    
    36   22   21 1    
    37   33   22 1    
    38   34   22 1    
    39   35   22 1    
@<TRIPOS>SUBSTRUCTURE
     1 MGI300      1 GROUP   
@<TRIPOS>SET

