#    Name: 1muo_ADN_1_INTS_M
#    Modification time : Tue Mar 25 12:03:23 2014

@<TRIPOS>MOLECULE
1muo_ADN_1_INTS_M
   41     0     9     0     0
SMALL
NO_CHARGES


@<TRIPOS>ATOM
      1 N          38.4580   44.0640   20.8455 N.am      2 SEC2        0.0000 
      2 N          37.1660   43.3850   20.6320 N.am      8 SEL2        0.0000 
      3 N          39.7500   44.7430   21.0590 N.am      5 SEP2        0.0000 
      4 CA         35.0175   43.4790   21.2710 C.3       3 GLC5        0.0000 
      5 CA         36.4960   42.1520   20.8930 C.3       9 GLL5        0.0000 
      6 CA         33.5390   44.8060   21.6490 C.3       6 GLP5        0.0000 
      7 CA         38.1360   43.2875   21.6460 C.3       3 GLC5        0.0000 
      8 CA         39.7760   44.4230   22.3990 C.3       6 GLP5        0.0000 
      9 CA         37.4220   41.9545   15.4065 C.3       3 GLC5        0.0000 
     10 CA         36.2890   41.3230   17.2350 C.3       9 GLL5        0.0000 
     11 CA         38.5550   42.5860   13.5780 C.3       6 GLP5        0.0000 
     12 CA         33.1840   42.5050   17.9335 C.3       3 GLC5        0.0000 
     13 CA         35.1100   42.2460   17.5730 C.3       9 GLL5        0.0000 
     14 CA         31.2580   42.7640   18.2940 C.3       6 GLP5        0.0000 
     15 CA         33.0710   47.3260   15.3960 C.3       3 GLC5        0.0000 
     16 CA         34.6200   46.0180   14.5300 C.3       9 GLL5        0.0000 
     17 CA         31.5220   48.6340   16.2620 C.3       6 GLP5        0.0000 
     18 CA         36.2620   47.4655   14.2185 C.3       3 GLC5        0.0000 
     19 CA         37.9040   48.9130   13.9070 C.3       6 GLP5        0.0000 
     20 CA         33.3595   47.1410   13.1895 C.3       3 GLC5        0.0000 
     21 CA         32.0990   48.2640   11.8490 C.3       6 GLP5        0.0000 
     22 CA         35.1190   45.6570   12.5850 C.3       3 GLC5        0.0000 
     23 CA         35.6180   45.2960   10.6400 C.3       6 GLP5        0.0000 
     24 O          34.4605   48.4310   13.6730 O.2       1 ALC1        0.0000 
     25 O          34.6610   47.3370   14.3700 O.2       7 ALL1        0.0000 
     26 O          34.2600   49.5250   12.9760 O.2       4 ALP1        0.0000 
     27 N          33.8710   45.8000   12.3585 N.am      2 SEC2        0.0000 
     28 N          34.2360   45.2510   13.4880 N.am      8 SEL2        0.0000 
     29 N          33.5060   46.3490   11.2290 N.am      5 SEP2        0.0000 
     30 CA         34.8945   44.6110   12.1475 C.3       3 GLC5        0.0000 
     31 CA         34.1710   43.9260   13.6550 C.3       9 GLL5        0.0000 
     32 CA         36.2610   44.4880   13.8270 C.3       3 GLC5        0.0000 
     33 CA         38.3510   45.0500   13.9990 C.3       6 GLP5        0.0000 
     34 CA         34.7840   41.0705   20.8035 C.3       3 GLC5        0.0000 
     35 CA         36.0340   41.5120   19.5990 C.3       9 GLL5        0.0000 
     36 CA         33.3030   40.3090   21.3610 C.3       6 GLP5        0.0000 
     37 CA         32.8407   44.8070   16.4682 C.3       3 GLC5        0.0000 
     38 CA         34.8190   43.9950   15.7500 C.3       9 GLL5        0.0000 
     39 CA         30.8010   44.9300   17.1980 C.3       6 GLP5        0.0000 
     40 CA         36.5755   44.9476   14.7191 C.3       3 GLC5        0.0000 
     41 CA         34.9420   45.3730   15.7270 C.3       9 GLL5        0.0000 
@<TRIPOS>BOND
@<TRIPOS>SUBSTRUCTURE
     1 ALC1       24 GROUP        1 X    ALC  0     ROOT ALC X 1
     2 SEC2        1 GROUP        1 X    SEC  0     **** SEC X 2
     3 GLC5        4 GROUP        1 X    GLC  0     **** GLC X 6
     4 ALP1       26 GROUP        1 Y    ALP  0     ROOT ALP Y 8
     5 SEP2        3 GROUP        1 Y    SEP  0     **** SEP Y 9
     6 GLP5        6 GROUP        1 Y    GLP  0     **** GLP Y 13
     7 ALL1       25 GROUP        1 Z    ALL  0     ROOT ALL Z 15
     8 SEL2        2 GROUP        1 Z    SEL  0     **** SEL Z 16
     9 GLL5        5 GROUP        1 Z    GLL  0     **** GLL Z 20
@<TRIPOS>SET

