#    Name: 1muo_ADN_1_ligand
#    Modification time : Tue Mar 25 12:03:23 2014

@<TRIPOS>MOLECULE
1muo_ADN_1_ligand
   32    34     1     0     0
SMALL
NO_CHARGES


@<TRIPOS>ATOM
      1 O5'        37.1660   43.3850   20.6320 O.3       1 ADN1        0.0000 
      2 C5'        36.4960   42.1520   20.8930 C.3       1 ADN1        0.0000 
      3 C4'        36.0340   41.5120   19.5990 C.3       1 ADN1        0.0000 
      4 O4'        35.0080   42.3320   18.9850 O.3       1 ADN1        0.0000 
      5 C3'        37.1030   41.3550   18.5310 C.3       1 ADN1        0.0000 
      6 O3'        37.8440   40.1530   18.7500 O.3       1 ADN1        0.0000 
      7 C2'        36.2890   41.3230   17.2350 C.3       1 ADN1        0.0000 
      8 O2'        35.8160   40.0320   16.8960 O.3       1 ADN1        0.0000 
      9 C1'        35.1100   42.2460   17.5730 C.3       1 ADN1        0.0000 
     10 N9         35.1510   43.6110   17.0300 N.pl3     1 ADN1        0.0000 
     11 C8         35.4880   44.7710   17.6900 C.2       1 ADN1        0.0000 
     12 N7         35.3730   45.8500   16.9540 N.2       1 ADN1        0.0000 
     13 C5         34.9420   45.3730   15.7270 C.ar      1 ADN1        0.0000 
     14 C6         34.6200   46.0180   14.5300 C.ar      1 ADN1        0.0000 
     15 N6         34.6610   47.3370   14.3700 N.pl3     1 ADN1        0.0000 
     16 N1         34.2360   45.2510   13.4880 N.ar      1 ADN1        0.0000 
     17 C2         34.1710   43.9260   13.6550 C.ar      1 ADN1        0.0000 
     18 N3         34.4340   43.2020   14.7330 N.ar      1 ADN1        0.0000 
     19 C4         34.8190   43.9950   15.7500 C.ar      1 ADN1        0.0000 
     20 H          35.6122   42.3005   21.5325 H         1 ADN1        0.0000 
     21 H          37.1544   41.4364   21.4092 H         1 ADN1        0.0000 
     22 H          35.6186   40.5318   19.8072 H         1 ADN1        0.0000 
     23 H          37.6971   42.2339   18.5302 H         1 ADN1        0.0000 
     24 H          36.8553   41.8010   16.4751 H         1 ADN1        0.0000 
     25 H          34.1945   41.7418   17.1966 H         1 ADN1        0.0000 
     26 H          35.7899   44.7563   18.6461 H         1 ADN1        0.0000 
     27 H          34.4525   47.6757   13.4525 H         1 ADN1        0.0000 
     28 H          34.8966   47.8715   15.1816 H         1 ADN1        0.0000 
     29 H          33.8496   43.3532   12.7577 H         1 ADN1        0.0000 
     30 H          36.6789   44.0651   21.1799 H         1 ADN1        0.0000 
     31 H          38.7740   40.3639   18.4489 H         1 ADN1        0.0000 
     32 H          36.3792   39.4016   17.4303 H         1 ADN1        0.0000 
@<TRIPOS>BOND
     1    2    1 1    
     2   30    1 1    
     3    3    2 1    
     4   20    2 1    
     5   21    2 1    
     6    4    3 1    
     7    5    3 1    
     8   22    3 1    
     9    9    4 1    
    10    6    5 1    
    11    7    5 1    
    12   23    5 1    
    13   31    6 1    
    14    8    7 1    
    15    9    7 1    
    16   24    7 1    
    17   32    8 1    
    18   10    9 1    
    19   25    9 1    
    20   11   10 1    
    21   19   10 1    
    22   12   11 2    
    23   26   11 1    
    24   13   12 1    
    25   14   13 ar   
    26   19   13 ar   
    27   15   14 1    
    28   16   14 ar   
    29   27   15 1    
    30   28   15 1    
    31   17   16 ar   
    32   18   17 ar   
    33   29   17 1    
    34   19   18 ar   
@<TRIPOS>SUBSTRUCTURE
     1 ADN1        1 GROUP   
@<TRIPOS>SET

