#    Name: 1cx9_NHP_1_INTS_M
#    Modification time : Mon Mar 24 21:06:28 2014

@<TRIPOS>MOLECULE
1cx9_NHP_1_INTS_M
   70     0     9     0     0
SMALL
NO_CHARGES


@<TRIPOS>ATOM
      1 CA         51.2925   26.1825   16.9470 C.3       3 GLC5        0.0000 
      2 CA         51.0000   26.0310   15.1670 C.3       9 GLL5        0.0000 
      3 CA         51.5850   26.3340   18.7270 C.3       6 GLP5        0.0000 
      4 CA         52.7260   22.9040   16.1240 C.3       3 GLC5        0.0000 
      5 CA         51.5190   23.6980   14.6950 C.3       9 GLL5        0.0000 
      6 CA         53.9330   22.1100   17.5530 C.3       6 GLP5        0.0000 
      7 CA         49.6465   21.5500   15.0805 C.3       3 GLC5        0.0000 
      8 CA         50.2160   23.3310   15.0610 C.3       9 GLL5        0.0000 
      9 CA         49.0770   19.7690   15.1000 C.3       6 GLP5        0.0000 
     10 O          52.7250   27.8100   14.5180 O.2       1 ALC1        0.0000 
     11 O          51.4280   27.3930   15.2090 O.2       7 ALL1        0.0000 
     12 O          54.0220   28.2270   13.8270 O.2       4 ALP1        0.0000 
     13 CA         48.7085   28.6370   16.8390 C.3       3 GLC5        0.0000 
     14 CA         48.5390   26.8890   16.0770 C.3       9 GLL5        0.0000 
     15 CA         48.8780   30.3850   17.6010 C.3       6 GLP5        0.0000 
     16 CA         47.2120   27.4435   17.6420 C.3       3 GLC5        0.0000 
     17 CA         45.8850   27.9980   19.2070 C.3       6 GLP5        0.0000 
     18 CA         50.0620   26.6115   17.4020 C.3       3 GLC5        0.0000 
     19 CA         47.0785   25.5035   15.8090 C.3       3 GLC5        0.0000 
     20 CA         45.6180   24.1180   15.5410 C.3       6 GLP5        0.0000 
     21 CA         47.4325   29.5980   15.4065 C.3       3 GLC5        0.0000 
     22 CA         47.6900   27.6830   14.7040 C.3       9 GLL5        0.0000 
     23 CA         47.1750   31.5130   16.1090 C.3       6 GLP5        0.0000 
     24 CA         46.8245   25.8575   14.4545 C.3       3 GLC5        0.0000 
     25 CA         45.9590   24.0320   14.2050 C.3       6 GLP5        0.0000 
     26 CA         45.8925   27.9455   14.7195 C.3       3 GLC5        0.0000 
     27 CA         44.0950   28.2080   14.7350 C.3       6 GLP5        0.0000 
     28 CA         48.6375   29.6525   15.0720 C.3       3 GLC5        0.0000 
     29 CA         48.6740   28.0430   13.5890 C.3       9 GLL5        0.0000 
     30 CA         48.6010   31.2620   16.5550 C.3       6 GLP5        0.0000 
     31 CA         50.3420   29.3770   13.2210 C.3       3 GLC5        0.0000 
     32 CA         52.0100   30.7110   12.8530 C.3       6 GLP5        0.0000 
     33 CA         48.9845   26.2655   12.5135 C.3       3 GLC5        0.0000 
     34 CA         49.2950   24.4880   11.4380 C.3       6 GLP5        0.0000 
     35 CA         48.0975   26.7750   11.4925 C.3       3 GLC5        0.0000 
     36 CA         47.9300   28.7080   12.4380 C.3       9 GLL5        0.0000 
     37 CA         48.2650   24.8420   10.5470 C.3       6 GLP5        0.0000 
     38 CA         46.0125   28.4580   13.5865 C.3       3 GLC5        0.0000 
     39 CA         50.4435   30.0475   12.1480 C.3       3 GLC5        0.0000 
     40 CA         48.8770   29.3840   11.4430 C.3       9 GLL5        0.0000 
     41 CA         50.3845   28.5515   11.0935 C.3       3 GLC5        0.0000 
     42 CA         51.8920   27.7190   10.7440 C.3       6 GLP5        0.0000 
     43 N          48.8810   31.5745    9.7880 N.am      2 SEC2        0.0000 
     44 N          49.0680   30.3190    8.9180 N.am      8 SEL2        0.0000 
     45 N          48.6940   32.8300   10.6580 N.am      5 SEP2        0.0000 
     46 N          50.0185   31.0465    9.0315 N.am      2 SEC2        0.0000 
     47 N          50.9690   31.7740    9.1450 N.am      5 SEP2        0.0000 
     48 N          46.4695   30.9390   10.8555 N.am      2 SEC2        0.0000 
     49 N          46.8430   30.0480    9.7120 N.am      8 SEL2        0.0000 
     50 N          46.0960   31.8300   11.9990 N.am      5 SEP2        0.0000 
     51 N          47.7685   31.4390   10.1850 N.am      2 SEC2        0.0000 
     52 N          49.6200   28.2820    8.2515 N.am      2 SEC2        0.0000 
     53 N          48.1770   28.1410    9.0890 N.am      8 SEL2        0.0000 
     54 N          51.0630   28.4230    7.4140 N.am      5 SEP2        0.0000 
     55 N          47.2290   27.8445    7.9620 N.am      2 SEC2        0.0000 
     56 N          46.2810   27.5480    6.8350 N.am      5 SEP2        0.0000 
     57 CA         51.0482   26.2470   13.5870 C.3       3 GLC5        0.0000 
     58 CA         49.6810   25.6430   15.5410 C.3       9 GLL5        0.0000 
     59 CA         51.7560   26.6570   11.8200 C.3       6 GLP5        0.0000 
     60 CA         53.5225   23.4465   14.0910 C.3       3 GLC5        0.0000 
     61 CA         51.9090   25.0420   14.7490 C.3       9 GLL5        0.0000 
     62 CA         55.3310   22.5230   13.4600 C.3       6 GLP5        0.0000 
     63 CA         51.7350   25.5135   13.2710 C.3       3 GLC5        0.0000 
     64 CA         48.9689   23.4384   16.8320 C.3       3 GLC5        0.0000 
     65 CA         48.0860   22.7260   18.3780 C.3       6 GLP5        0.0000 
     66 CA         50.0290   27.5162   12.4168 C.3       3 GLC5        0.0000 
     67 CA         47.8287   30.7620   12.2647 C.3       3 GLC5        0.0000 
     68 CA         47.2540   32.4780   12.5890 C.3       6 GLP5        0.0000 
     69 CA         50.9744   24.5642   16.8515 C.3       3 GLC5        0.0000 
     70 CA         51.1660   24.8680   18.6990 C.3       6 GLP5        0.0000 
@<TRIPOS>BOND
@<TRIPOS>SUBSTRUCTURE
     1 ALC1       10 GROUP        1 X    ALC  0     ROOT ALC X 1
     2 SEC2       43 GROUP        1 X    SEC  0     **** SEC X 2
     3 GLC5        1 GROUP        1 X    GLC  0     **** GLC X 6
     4 ALP1       12 GROUP        1 Y    ALP  0     ROOT ALP Y 8
     5 SEP2       45 GROUP        1 Y    SEP  0     **** SEP Y 9
     6 GLP5        3 GROUP        1 Y    GLP  0     **** GLP Y 13
     7 ALL1       11 GROUP        1 Z    ALL  0     ROOT ALL Z 15
     8 SEL2       44 GROUP        1 Z    SEL  0     **** SEL Z 16
     9 GLL5        2 GROUP        1 Z    GLL  0     **** GLL Z 20
@<TRIPOS>SET

