#    Name: 1cx9_NHP_1_ligand
#    Modification time : Mon Mar 24 21:06:28 2014

@<TRIPOS>MOLECULE
1cx9_NHP_1_ligand
   30    30     1     0     0
SMALL
NO_CHARGES


@<TRIPOS>ATOM
      1 C1         49.2940   24.2980   15.4810 C.ar      1 NHP270      0.0000 
      2 C2         49.6810   25.6430   15.5410 C.ar      1 NHP270      0.0000 
      3 C3         51.0000   26.0310   15.1670 C.ar      1 NHP270      0.0000 
      4 C4         51.9090   25.0420   14.7490 C.ar      1 NHP270      0.0000 
      5 C5         51.5190   23.6980   14.6950 C.ar      1 NHP270      0.0000 
      6 C6         50.2160   23.3310   15.0610 C.ar      1 NHP270      0.0000 
      7 N1         51.4280   27.3930   15.2090 N.pl3     1 NHP270      0.0000 
      8 S1         48.5390   26.8890   16.0770 S.3       1 NHP270      0.0000 
      9 C7         47.6900   27.6830   14.7040 C.3       1 NHP270      0.0000 
     10 C8         48.6740   28.0430   13.5890 C.3       1 NHP270      0.0000 
     11 C9         47.9300   28.7080   12.4380 C.3       1 NHP270      0.0000 
     12 C10        48.8770   29.3840   11.4430 C.3       1 NHP270      0.0000 
     13 P1         48.2520   29.4710    9.8280 P.3       1 NHP270      0.0000 
     14 O1         49.0680   30.3190    8.9180 O.co2     1 NHP270      0.0000 
     15 O2         46.8430   30.0480    9.7120 O.co2     1 NHP270      0.0000 
     16 O3         48.1770   28.1410    9.0890 O.co2     1 NHP270      0.0000 
     17 H          48.3446   24.0241   15.7421 H         1 NHP270      0.0000 
     18 H          52.8637   25.3100   14.4824 H         1 NHP270      0.0000 
     19 H          52.1850   22.9824   14.3882 H         1 NHP270      0.0000 
     20 H          49.9354   22.3418   15.0203 H         1 NHP270      0.0000 
     21 H          50.9699   27.9778   15.8785 H         1 NHP270      0.0000 
     22 H          52.1498   27.6474   14.5654 H         1 NHP270      0.0000 
     23 H          47.2420   28.5335   15.1636 H         1 NHP270      0.0000 
     24 H          46.9726   26.9503   14.4147 H         1 NHP270      0.0000 
     25 H          49.1576   27.1393   13.2336 H         1 NHP270      0.0000 
     26 H          49.4220   28.7251   13.9789 H         1 NHP270      0.0000 
     27 H          47.2405   29.4591   12.8395 H         1 NHP270      0.0000 
     28 H          47.3362   27.9545   11.9084 H         1 NHP270      0.0000 
     29 H          49.8103   28.8450   11.3376 H         1 NHP270      0.0000 
     30 H          49.0766   30.4153   11.7062 H         1 NHP270      0.0000 
@<TRIPOS>BOND
     1    2    1 ar   
     2    6    1 ar   
     3   17    1 1    
     4    3    2 ar   
     5    8    2 1    
     6    4    3 ar   
     7    7    3 1    
     8    5    4 ar   
     9   18    4 1    
    10    6    5 ar   
    11   19    5 1    
    12   20    6 1    
    13   21    7 1    
    14   22    7 1    
    15    9    8 1    
    16   10    9 1    
    17   23    9 1    
    18   24    9 1    
    19   11   10 1    
    20   25   10 1    
    21   26   10 1    
    22   12   11 1    
    23   27   11 1    
    24   28   11 1    
    25   13   12 1    
    26   29   12 1    
    27   30   12 1    
    28   14   13 ar   
    29   15   13 ar   
    30   16   13 ar   
@<TRIPOS>SUBSTRUCTURE
     1 NHP270      1 GROUP   
@<TRIPOS>SET

