#    Name: 4BNH_2_CAVITY_N1_6.mol2
#    Modification time : Tue Mar 11 20:10:27 2014

@<TRIPOS>MOLECULE
4BNH_2_CAVITY_N1_6.mol2
   73     0     5     0     0
SMALL
NO_CHARGES


@<TRIPOS>ATOM
      1 CZ        -18.4082   -0.3178   60.4133 C.ar      3 PHE5        0.0000 
      2 CA        -28.7630  -10.1238   55.5274 C.3       4 GLY6        0.0000 
      3 CA        -28.6532  -10.6984   56.9086 C.3       4 GLY6        0.0000 
      4 CA        -28.9285  -11.5049   54.9660 C.3       4 GLY6        0.0000 
      5 CA        -28.8188  -12.0795   56.3472 C.3       4 GLY6        0.0000 
      6 N         -22.9783    0.5909   59.5254 N.2       2 ALA2        0.0000 
      7 DU        -22.8686    0.0162   60.9066 H         5 CUB7        0.0000 
      8 N         -23.1438   -0.7902   58.9640 N.2       2 ALA2        0.0000 
      9 N         -23.0341   -1.3649   60.3452 N.2       2 ALA2        0.0000 
     10 CA        -22.9244   -1.9395   61.7264 C.3       4 GLY6        0.0000 
     11 CA        -23.4191   -1.5967   57.0213 C.3       4 GLY6        0.0000 
     12 N         -23.3094   -2.1713   58.4025 N.2       2 ALA2        0.0000 
     13 CA        -23.5846   -2.9778   56.4599 C.3       4 GLY6        0.0000 
     14 N         -23.4749   -3.5524   57.8411 N.2       2 ALA2        0.0000 
     15 CA        -23.7502   -4.3589   55.8985 C.3       4 GLY6        0.0000 
     16 CA        -23.6404   -4.9335   57.2797 C.3       4 GLY6        0.0000 
     17 CZ        -23.9157   -5.7400   55.3371 C.ar      3 PHE5        0.0000 
     18 CA        -23.8060   -6.3146   56.7183 C.3       4 GLY6        0.0000 
     19 CA        -23.6962   -6.8892   58.0995 C.3       4 GLY6        0.0000 
     20 CZ        -23.9715   -7.6957   56.1569 C.ar      3 PHE5        0.0000 
     21 CA        -23.8618   -8.2703   57.5381 C.3       4 GLY6        0.0000 
     22 CZ        -24.1370   -9.0768   55.5955 C.ar      3 PHE5        0.0000 
     23 N         -24.0273   -9.6514   56.9767 N.2       2 ALA2        0.0000 
     24 CZ        -24.3026  -10.4579   55.0341 C.ar      3 PHE5        0.0000 
     25 N         -24.1928  -11.0325   56.4153 N.2       2 ALA2        0.0000 
     26 CA        -27.1106   -8.8541   55.9244 C.3       4 GLY6        0.0000 
     27 CZ        -27.0009   -9.4287   57.3056 C.ar      3 PHE5        0.0000 
     28 CZ        -27.2762  -10.2352   55.3629 C.ar      3 PHE5        0.0000 
     29 CZ        -27.1664  -10.8098   56.7442 C.ar      3 PHE5        0.0000 
     30 OG        -27.4417  -11.6163   54.8015 O.2       1 SER1        0.0000 
     31 OG        -27.3320  -12.1909   56.1828 O.2       1 SER1        0.0000 
     32 CA        -22.2634   -4.4703   55.7341 C.3       4 GLY6        0.0000 
     33 CA        -22.1536   -5.0449   57.1153 C.3       4 GLY6        0.0000 
     34 OG        -22.4289   -5.8514   55.1727 O.2       1 SER1        0.0000 
     35 OG        -22.3192   -6.4260   56.5539 O.2       1 SER1        0.0000 
     36 CA        -22.2094   -7.0006   57.9351 C.3       4 GLY6        0.0000 
     37 OG        -22.5944   -7.2324   54.6112 O.2       1 SER1        0.0000 
     38 CZ        -22.4847   -7.8071   55.9925 C.ar      3 PHE5        0.0000 
     39 CZ        -22.3750   -8.3817   57.3737 C.ar      3 PHE5        0.0000 
     40 CZ        -22.6502   -9.1882   55.4311 C.ar      3 PHE5        0.0000 
     41 CZ        -19.8950   -0.2065   60.5777 C.ar      3 PHE5        0.0000 
     42 OG        -19.7853   -0.7811   61.9589 O.2       1 SER1        0.0000 
     43 N         -20.1702   -1.0130   58.6351 N.2       2 ALA2        0.0000 
     44 CA        -20.4455   -1.8194   56.6924 C.3       4 GLY6        0.0000 
     45 OG        -20.3358   -2.3941   58.0737 O.2       1 SER1        0.0000 
     46 N         -20.6110   -3.2005   56.1310 N.2       2 ALA2        0.0000 
     47 OG        -20.5013   -3.7751   57.5123 O.2       1 SER1        0.0000 
     48 OG        -20.7766   -4.5816   55.5696 O.2       1 SER1        0.0000 
     49 OG        -20.6668   -5.1562   56.9509 O.2       1 SER1        0.0000 
     50 CZ        -21.4915    0.4795   59.3609 C.ar      3 PHE5        0.0000 
     51 CZ        -21.3818   -0.0951   60.7422 C.ar      3 PHE5        0.0000 
     52 OG        -21.2721   -0.6697   62.1234 O.2       1 SER1        0.0000 
     53 O         -21.7668   -0.3270   57.4183 O.2       2 ALA2        0.0000 
     54 CZ        -21.6570   -0.9016   58.7995 C.ar      3 PHE5        0.0000 
     55 OG        -21.5473   -1.4762   60.1807 O.2       1 SER1        0.0000 
     56 OG        -21.4376   -2.0508   61.5620 O.2       1 SER1        0.0000 
     57 O         -21.9323   -1.7081   56.8569 O.2       2 ALA2        0.0000 
     58 OG        -21.8226   -2.2827   58.2381 O.2       1 SER1        0.0000 
     59 CA        -22.0978   -3.0892   56.2955 C.3       4 GLY6        0.0000 
     60 CA        -21.9881   -3.6638   57.6767 C.3       4 GLY6        0.0000 
     61 N         -30.2497  -10.0124   55.6918 N.2       2 ALA2        0.0000 
     62 N         -24.4651    0.7022   59.6898 N.2       2 ALA2        0.0000 
     63 CA        -24.3554    0.1276   61.0710 C.3       4 GLY6        0.0000 
     64 CA        -24.6306   -0.6789   59.1284 C.3       4 GLY6        0.0000 
     65 CA        -24.5209   -1.2535   60.5096 C.3       4 GLY6        0.0000 
     66 O         -24.4112   -1.8281   61.8908 O.2       2 ALA2        0.0000 
     67 CA        -24.7962   -2.0600   58.5670 C.3       4 GLY6        0.0000 
     68 CA        -25.2369   -4.2475   56.0629 C.3       4 GLY6        0.0000 
     69 CZ        -25.6238   -8.9654   55.7599 C.ar      3 PHE5        0.0000 
     70 CZ        -25.5141   -9.5400   57.1411 C.ar      3 PHE5        0.0000 
     71 CZ        -25.7894  -10.3465   55.1985 C.ar      3 PHE5        0.0000 
     72 CZ        -25.6796  -10.9211   56.5797 C.ar      3 PHE5        0.0000 
     73 CA        -25.8452  -12.3022   56.0183 C.3       4 GLY6        0.0000 
@<TRIPOS>BOND
@<TRIPOS>SUBSTRUCTURE
     1 SER1       30 GROUP   
     2 ALA2        6 GROUP   
     3 PHE5        1 GROUP   
     4 GLY6        2 GROUP   
     5 CUB7        7 GROUP   
@<TRIPOS>SET

