#    Name: 4bnh_6PN_2_INTS_M
#    Modification time : Tue Mar 25 07:58:22 2014

@<TRIPOS>MOLECULE
4bnh_6PN_2_INTS_M
   78     0     9     0     0
SMALL
NO_CHARGES


@<TRIPOS>ATOM
      1 CA        -31.6385   -8.1160   54.4490 C.3       3 GLC5        0.0000 
      2 CA        -30.4210   -9.8570   54.6150 C.3       9 GLL5        0.0000 
      3 CA        -32.8560   -6.3750   54.2830 C.3       6 GLP5        0.0000 
      4 N         -20.2645   -7.2450   54.5945 N.am      2 SEC2        0.0000 
      5 N         -21.4200   -7.6620   54.5180 N.am      8 SEL2        0.0000 
      6 N         -19.1090   -6.8280   54.6710 N.am      5 SEP2        0.0000 
      7 O         -22.0360   -7.7110   53.3280 O.2       1 ALC1        0.0000 
      8 O         -21.4200   -7.6620   54.5180 O.2       7 ALL1        0.0000 
      9 O         -22.6520   -7.7600   52.1380 O.2       4 ALP1        0.0000 
     10 CA        -23.3105   -1.0975   54.9480 C.3       3 GLC5        0.0000 
     11 CA        -22.6790   -2.7400   56.2390 C.3       9 GLL5        0.0000 
     12 CA        -23.9420    0.5450   53.6570 C.3       6 GLP5        0.0000 
     13 CA        -23.0370   -4.8555   54.1430 C.3       3 GLC5        0.0000 
     14 CA        -23.0220   -5.1250   56.3300 C.3       9 GLL5        0.0000 
     15 CA        -23.0520   -4.5860   51.9560 C.3       6 GLP5        0.0000 
     16 CA        -23.9915   -9.0420   59.5290 C.3       3 GLC5        0.0000 
     17 CA        -23.6980   -9.1550   57.6530 C.3       9 GLL5        0.0000 
     18 CA        -24.2850   -8.9290   61.4050 C.3       6 GLP5        0.0000 
     19 CA        -23.6260   -7.7665   59.4735 C.3       3 GLC5        0.0000 
     20 CA        -22.7840   -8.1230   57.8340 C.3       9 GLL5        0.0000 
     21 CA        -24.4680   -7.4100   61.1130 C.3       6 GLP5        0.0000 
     22 CA        -22.5600  -10.2465   53.6255 C.3       3 GLC5        0.0000 
     23 CA        -23.0940   -9.2640   55.3340 C.3       9 GLL5        0.0000 
     24 CA        -22.0260  -11.2290   51.9170 C.3       6 GLP5        0.0000 
     25 CA        -27.5565   -8.6270   53.8680 C.3       3 GLC5        0.0000 
     26 CA        -28.9230   -9.8700   54.8580 C.3       9 GLL5        0.0000 
     27 CA        -26.1900   -7.3840   52.8780 C.3       6 GLP5        0.0000 
     28 CA        -26.4780  -13.0865   57.1755 C.3       3 GLC5        0.0000 
     29 CA        -27.2820  -11.2910   56.2600 C.3       9 GLL5        0.0000 
     30 CA        -25.6740  -14.8820   58.0910 C.3       6 GLP5        0.0000 
     31 CA        -28.4490  -13.0670   56.0555 C.3       3 GLC5        0.0000 
     32 CA        -29.6160  -14.8430   55.8510 C.3       6 GLP5        0.0000 
     33 CA        -25.9910  -11.0085   54.0085 C.3       3 GLC5        0.0000 
     34 CA        -26.1700  -10.3170   55.8600 C.3       9 GLL5        0.0000 
     35 CA        -25.8120  -11.7000   52.1570 C.3       6 GLP5        0.0000 
     36 CA        -26.1800   -8.8505   54.3690 C.3       3 GLC5        0.0000 
     37 CA        -27.3735   -8.5855   56.2225 C.3       3 GLC5        0.0000 
     38 CA        -28.5770   -6.8540   56.5850 C.3       6 GLP5        0.0000 
     39 CA        -24.7900  -12.2685   54.7065 C.3       3 GLC5        0.0000 
     40 CA        -24.8100  -10.9110   56.2960 C.3       9 GLL5        0.0000 
     41 CA        -24.7700  -13.6260   53.1170 C.3       6 GLP5        0.0000 
     42 CA        -24.4820  -12.8325   57.1640 C.3       3 GLC5        0.0000 
     43 CA        -24.1540  -14.7540   58.0320 C.3       6 GLP5        0.0000 
     44 CA        -25.3825  -11.3285   58.2740 C.3       3 GLC5        0.0000 
     45 CA        -25.9550  -11.7460   60.2520 C.3       6 GLP5        0.0000 
     46 CA        -22.9045  -11.4275   56.1585 C.3       3 GLC5        0.0000 
     47 CA        -20.9990  -11.9440   56.0210 C.3       6 GLP5        0.0000 
     48 CA        -29.9810  -10.7363   52.9737 C.3       3 GLC5        0.0000 
     49 CA        -30.2900  -11.6090   51.2110 C.3       6 GLP5        0.0000 
     50 CA        -29.1245   -8.3588   55.6608 C.3       3 GLC5        0.0000 
     51 CA        -20.8427   -1.3025   55.9090 C.3       3 GLC5        0.0000 
     52 CA        -19.6750    0.2240   55.3870 C.3       6 GLP5        0.0000 
     53 CA        -24.7347   -2.4112   56.3235 C.3       3 GLC5        0.0000 
     54 CA        -26.3660   -1.5310   56.4640 C.3       6 GLP5        0.0000 
     55 CA        -24.8575   -5.3000   56.9642 C.3       3 GLC5        0.0000 
     56 CA        -23.5280   -3.8430   56.1270 C.3       9 GLL5        0.0000 
     57 CA        -26.4400   -6.1160   57.7000 C.3       6 GLP5        0.0000 
     58 CA        -19.5235   -3.6553   55.4748 C.3       3 GLC5        0.0000 
     59 CA        -20.8480   -4.2010   56.8220 C.3       9 GLL5        0.0000 
     60 CA        -17.9520   -3.7510   54.2270 C.3       6 GLP5        0.0000 
     61 CA        -22.0114   -2.6549   54.5255 C.3       3 GLC5        0.0000 
     62 CA        -21.3420   -2.9180   56.6230 C.3       9 GLL5        0.0000 
     63 CA        -21.8000   -2.2050   52.6480 C.3       6 GLP5        0.0000 
     64 CA        -19.8417   -6.1137   56.2430 C.3       3 GLC5        0.0000 
     65 CA        -18.4150   -7.4780   55.7210 C.3       6 GLP5        0.0000 
     66 CA        -24.8405   -7.3775   57.7218 C.3       3 GLC5        0.0000 
     67 CA        -26.9068  -12.1065   54.2742 C.3       3 GLC5        0.0000 
     68 CA        -25.9090  -12.9460   52.7360 C.3       6 GLP5        0.0000 
     69 CA        -30.2673  -11.9156   55.4624 C.3       3 GLC5        0.0000 
     70 CA        -28.5270  -11.2430   55.3650 C.3       9 GLL5        0.0000 
     71 CA        -31.4350  -13.2780   55.8740 C.3       6 GLP5        0.0000 
     72 CA        -26.8890  -10.8665   57.9905 C.3       3 GLC5        0.0000 
     73 CA        -27.0520  -10.9290   59.9210 C.3       6 GLP5        0.0000 
     74 CA        -20.2635   -7.6818   55.9365 C.3       3 GLC5        0.0000 
     75 CA        -22.1670   -8.1980   55.5280 C.3       9 GLL5        0.0000 
     76 CA        -21.1010   -4.6319   58.4951 C.3       3 GLC5        0.0000 
     77 CA        -21.6890   -5.2980   56.7080 C.3       9 GLL5        0.0000 
     78 CA        -20.8100   -4.8350   60.2750 C.3       6 GLP5        0.0000 
@<TRIPOS>BOND
@<TRIPOS>SUBSTRUCTURE
     1 ALC1        7 GROUP        1 X    ALC  0     ROOT ALC X 1
     2 SEC2        4 GROUP        1 X    SEC  0     **** SEC X 2
     3 GLC5        1 GROUP        1 X    GLC  0     **** GLC X 6
     4 ALP1        9 GROUP        1 Y    ALP  0     ROOT ALP Y 8
     5 SEP2        6 GROUP        1 Y    SEP  0     **** SEP Y 9
     6 GLP5        3 GROUP        1 Y    GLP  0     **** GLP Y 13
     7 ALL1        8 GROUP        1 Z    ALL  0     ROOT ALL Z 15
     8 SEL2        5 GROUP        1 Z    SEL  0     **** SEL Z 16
     9 GLL5        2 GROUP        1 Z    GLL  0     **** GLL Z 20
@<TRIPOS>SET

