#    Name: 4bnh_6PN_2_ligand
#    Modification time : Tue Mar 25 07:58:23 2014

@<TRIPOS>MOLECULE
4bnh_6PN_2_ligand
   42    43     1     0     0
SMALL
NO_CHARGES


@<TRIPOS>ATOM
      1 CAA       -30.4210   -9.8570   54.6150 C.3       1 6PN1258     0.0000 
      2 OAB       -21.4200   -7.6620   54.5180 O.3       1 6PN1258     0.0000 
      3 CAC       -22.6790   -2.7400   56.2390 C.ar      1 6PN1258     0.0000 
      4 CAD       -23.5280   -3.8430   56.1270 C.ar      1 6PN1258     0.0000 
      5 CAE       -21.3420   -2.9180   56.6230 C.ar      1 6PN1258     0.0000 
      6 CAF       -23.0220   -5.1250   56.3300 C.ar      1 6PN1258     0.0000 
      7 CAG       -20.8480   -4.2010   56.8220 C.ar      1 6PN1258     0.0000 
      8 CAH       -23.6980   -9.1550   57.6530 C.ar      1 6PN1258     0.0000 
      9 CAI       -22.7840   -8.1230   57.8340 C.ar      1 6PN1258     0.0000 
     10 CAJ       -23.0940   -9.2640   55.3340 C.ar      1 6PN1258     0.0000 
     11 CAK       -28.9230   -9.8700   54.8580 C.3       1 6PN1258     0.0000 
     12 CAL       -28.5270  -11.2430   55.3650 C.3       1 6PN1258     0.0000 
     13 CAM       -27.2820  -11.2910   56.2600 C.3       1 6PN1258     0.0000 
     14 CAN       -26.1700  -10.3170   55.8600 C.3       1 6PN1258     0.0000 
     15 CAO       -24.8100  -10.9110   56.2960 C.3       1 6PN1258     0.0000 
     16 OAP       -21.1700   -6.5380   56.9670 O.3       1 6PN1258     0.0000 
     17 CAQ       -23.7990   -9.7870   56.4250 C.ar      1 6PN1258     0.0000 
     18 CAR       -22.1670   -8.1980   55.5280 C.ar      1 6PN1258     0.0000 
     19 CAS       -21.6890   -5.2980   56.7080 C.ar      1 6PN1258     0.0000 
     20 CAT       -22.0570   -7.5730   56.7760 C.ar      1 6PN1258     0.0000 
     21 H         -23.0313   -1.7970   56.0407 H         1 6PN1258     0.0000 
     22 H         -24.5170   -3.7087   55.8968 H         1 6PN1258     0.0000 
     23 H         -20.7371   -2.1017   56.7546 H         1 6PN1258     0.0000 
     24 H         -23.6284   -5.9439   56.2020 H         1 6PN1258     0.0000 
     25 H         -19.8534   -4.3371   57.0550 H         1 6PN1258     0.0000 
     26 H         -24.3003   -9.4483   58.4357 H         1 6PN1258     0.0000 
     27 H         -22.6338   -7.7435   58.7952 H         1 6PN1258     0.0000 
     28 H         -23.2357   -9.6383   54.3946 H         1 6PN1258     0.0000 
     29 H         -28.6701   -9.1230   55.5986 H         1 6PN1258     0.0000 
     30 H         -28.4044   -9.6619   53.9316 H         1 6PN1258     0.0000 
     31 H         -28.3599  -11.9161   54.4967 H         1 6PN1258     0.0000 
     32 H         -29.3792  -11.6818   55.9272 H         1 6PN1258     0.0000 
     33 H         -26.8771  -12.3184   56.2501 H         1 6PN1258     0.0000 
     34 H         -27.5846  -11.0792   57.3007 H         1 6PN1258     0.0000 
     35 H         -26.3177   -9.3734   56.3585 H         1 6PN1258     0.0000 
     36 H         -26.1699  -10.1859   54.7907 H         1 6PN1258     0.0000 
     37 H         -24.4828  -11.6179   55.5477 H         1 6PN1258     0.0000 
     38 H         -24.9353  -11.4060   57.2478 H         1 6PN1258     0.0000 
     39 H         -30.7351   -8.9689   54.2796 H         1 6PN1258     0.0000 
     40 H         -30.6931  -10.5395   53.9366 H         1 6PN1258     0.0000 
     41 H         -30.9345  -10.0531   55.4504 H         1 6PN1258     0.0000 
     42 H         -21.9833   -7.7629   53.6980 H         1 6PN1258     0.0000 
@<TRIPOS>BOND
     1   11    1 1    
     2   39    1 1    
     3   40    1 1    
     4   41    1 1    
     5   18    2 1    
     6   42    2 1    
     7    4    3 ar   
     8    5    3 ar   
     9   21    3 1    
    10    6    4 ar   
    11   22    4 1    
    12    7    5 ar   
    13   23    5 1    
    14   19    6 ar   
    15   24    6 1    
    16   19    7 ar   
    17   25    7 1    
    18    9    8 ar   
    19   17    8 ar   
    20   26    8 1    
    21   20    9 ar   
    22   27    9 1    
    23   17   10 ar   
    24   18   10 ar   
    25   28   10 1    
    26   12   11 1    
    27   29   11 1    
    28   30   11 1    
    29   13   12 1    
    30   31   12 1    
    31   32   12 1    
    32   14   13 1    
    33   33   13 1    
    34   34   13 1    
    35   15   14 1    
    36   35   14 1    
    37   36   14 1    
    38   17   15 1    
    39   37   15 1    
    40   38   15 1    
    41   19   16 1    
    42   20   16 1    
    43   20   18 ar   
@<TRIPOS>SUBSTRUCTURE
     1 6PN1258     1 GROUP   
@<TRIPOS>SET

