#    Name: 4fn4_NAD_1_INTS_M
#    Modification time : Mon Mar 24 20:22:56 2014

@<TRIPOS>MOLECULE
4fn4_NAD_1_INTS_M
  102     0     9     0     0
SMALL
NO_CHARGES


@<TRIPOS>ATOM
      1 N          45.2560   52.1765    4.7270 N.am      2 SEC2        0.0000 
      2 N          44.5260   51.4490    5.6370 N.am      8 SEL2        0.0000 
      3 N          45.9860   52.9040    3.8170 N.am      5 SEP2        0.0000 
      4 N          44.3370   50.2680    4.7530 N.am      2 SEC2        0.0000 
      5 N          44.1480   49.0870    3.8690 N.am      5 SEP2        0.0000 
      6 CA         46.6020   55.8600    9.5340 C.3       3 GLC5        0.0000 
      7 CA         46.8200   54.2050    8.7330 C.3       9 GLL5        0.0000 
      8 CA         46.3840   57.5150   10.3350 C.3       6 GLP5        0.0000 
      9 N          49.0260   53.4890    6.1790 N.am      2 SEC2        0.0000 
     10 N          48.4470   54.6390    6.9330 N.am      8 SEL2        0.0000 
     11 N          49.6050   52.3390    5.4250 N.am      5 SEP2        0.0000 
     12 O          48.7945   55.8945    7.4385 O.2       1 ALC1        0.0000 
     13 O          48.4470   54.6390    6.9330 O.2       7 ALL1        0.0000 
     14 O          49.1420   57.1500    7.9440 O.2       4 ALP1        0.0000 
     15 O          49.7740   55.3800    7.4710 O.2       1 ALC1        0.0000 
     16 O          51.1010   56.1210    8.0090 O.2       4 ALP1        0.0000 
     17 O          50.7885   54.8825    8.3300 O.2       1 ALC1        0.0000 
     18 O          50.4760   53.6440    8.6510 O.2       7 ALL1        0.0000 
     19 CA         47.5120   55.9980   10.2260 C.3       3 GLC5        0.0000 
     20 CA         48.6400   54.4810   10.1170 C.3       9 GLL5        0.0000 
     21 CA         52.2720   56.1235   15.3250 C.3       3 GLC5        0.0000 
     22 CA         50.8110   54.7560   14.5430 C.3       9 GLL5        0.0000 
     23 CA         53.7330   57.4910   16.1070 C.3       6 GLP5        0.0000 
     24 CA         49.7235   55.6240   15.7670 C.3       3 GLC5        0.0000 
     25 CA         48.6360   56.4920   16.9910 C.3       6 GLP5        0.0000 
     26 O          52.2915   54.5725   16.5030 O.2       1 ALC1        0.0000 
     27 O          51.2320   54.0960   15.6030 O.2       7 ALL1        0.0000 
     28 O          53.3510   55.0490   17.4030 O.2       4 ALP1        0.0000 
     29 N          51.2060   56.8820   15.6805 N.am      2 SEC2        0.0000 
     30 N          50.9630   56.1290   14.3960 N.am      8 SEL2        0.0000 
     31 N          51.4490   57.6350   16.9650 N.am      5 SEP2        0.0000 
     32 CA         50.6675   58.2125   11.6065 C.3       3 GLC5        0.0000 
     33 CA         50.5640   56.8630   13.3420 C.3       9 GLL5        0.0000 
     34 CA         50.7710   59.5620    9.8710 C.3       6 GLP5        0.0000 
     35 CA         51.9120   56.3085   12.3925 C.3       3 GLC5        0.0000 
     36 CA         53.2600   55.7540   11.4430 C.3       6 GLP5        0.0000 
     37 CA         52.1485   57.1770   14.7245 C.3       3 GLC5        0.0000 
     38 CA         49.7375   57.8550   14.7485 C.3       3 GLC5        0.0000 
     39 CA         48.9110   58.8470   16.1550 C.3       6 GLP5        0.0000 
     40 CA         48.4290   56.4185   13.5450 C.3       3 GLC5        0.0000 
     41 CA         46.2940   55.9740   13.7480 C.3       6 GLP5        0.0000 
     42 N          51.1070   57.0310   11.3660 N.am      2 SEC2        0.0000 
     43 N          49.9340   56.2840   12.2410 N.am      8 SEL2        0.0000 
     44 N          52.2800   57.7780   10.4910 N.am      5 SEP2        0.0000 
     45 N          41.5910   49.5870    6.6565 N.am      2 SEC2        0.0000 
     46 N          41.4270   50.2160    7.6940 N.am      8 SEL2        0.0000 
     47 N          41.7550   48.9580    5.6190 N.am      5 SEP2        0.0000 
     48 N          41.3365   53.6630    6.4050 N.am      2 SEC2        0.0000 
     49 N          42.0280   52.6860    7.1820 N.am      8 SEL2        0.0000 
     50 N          40.6450   54.6400    5.6280 N.am      5 SEP2        0.0000 
     51 CA         39.3865   53.3825   12.0805 C.3       3 GLC5        0.0000 
     52 CA         41.1200   52.7070   11.4630 C.3       9 GLL5        0.0000 
     53 CA         37.6530   54.0580   12.6980 C.3       6 GLP5        0.0000 
     54 CA         43.3120   51.7445   13.4185 C.3       3 GLC5        0.0000 
     55 CA         41.7010   51.8040   12.5860 C.3       9 GLL5        0.0000 
     56 CA         44.9230   51.6850   14.2510 C.3       6 GLP5        0.0000 
     57 N          40.7500   51.6320   14.9105 N.am      2 SEC2        0.0000 
     58 N          41.4170   52.3540   13.8740 N.am      8 SEL2        0.0000 
     59 N          40.0830   50.9100   15.9470 N.am      5 SEP2        0.0000 
     60 O          41.8475   53.6165   13.4190 O.2       1 ALC1        0.0000 
     61 O          41.4170   52.3540   13.8740 O.2       7 ALL1        0.0000 
     62 O          42.2780   54.8790   12.9640 O.2       4 ALP1        0.0000 
     63 CA         40.4145   49.9855   14.4255 C.3       3 GLC5        0.0000 
     64 CA         40.9890   50.4490   12.3860 C.3       9 GLL5        0.0000 
     65 CA         39.8400   49.5220   16.4650 C.3       6 GLP5        0.0000 
     66 N          40.5685   50.2755   14.7370 N.am      2 SEC2        0.0000 
     67 N          41.0540   49.6410   13.5270 N.am      8 SEL2        0.0000 
     68 O          40.4765   48.4590   13.5490 O.2       1 ALC1        0.0000 
     69 O          41.0540   49.6410   13.5270 O.2       7 ALL1        0.0000 
     70 O          39.8990   47.2770   13.5710 O.2       4 ALP1        0.0000 
     71 CA         38.6045   52.4930   12.3490 C.3       3 GLC5        0.0000 
     72 CA         39.5560   50.9280   12.0000 C.3       9 GLL5        0.0000 
     73 CA         38.3885   51.0305    9.1720 C.3       3 GLC5        0.0000 
     74 CA         38.9830   49.3010   10.1130 C.3       9 GLL5        0.0000 
     75 CA         37.7940   52.7600    8.2310 C.3       6 GLP5        0.0000 
     76 N          36.9685   46.8875    6.8345 N.am      2 SEC2        0.0000 
     77 N          37.9940   46.7040    7.8710 N.am      8 SEL2        0.0000 
     78 N          35.9430   47.0710    5.7980 N.am      5 SEP2        0.0000 
     79 O          38.9265   47.8785    5.9660 O.2       1 ALC1        0.0000 
     80 O          39.4080   48.4210    7.4110 O.2       7 ALL1        0.0000 
     81 O          38.4450   47.3360    4.5210 O.2       4 ALP1        0.0000 
     82 CA         35.9595   50.3550   12.2445 C.3       3 GLC5        0.0000 
     83 CA         37.5250   49.3900   12.1180 C.3       9 GLL5        0.0000 
     84 CA         34.3940   51.3200   12.3710 C.3       6 GLP5        0.0000 
     85 CA         47.0337   54.0070    6.3392 C.3       3 GLC5        0.0000 
     86 CA         46.6180   54.0700    4.3250 C.3       6 GLP5        0.0000 
     87 CA         48.1202   55.2342   13.3113 C.3       3 GLC5        0.0000 
     88 CA         50.1480   54.0960   13.4250 C.3       9 GLL5        0.0000 
     89 CA         49.3458   53.1885   15.2645 C.3       3 GLC5        0.0000 
     90 CA         48.2120   51.9510   16.5450 C.3       6 GLP5        0.0000 
     91 CA         51.6861   55.2067   12.2985 C.3       3 GLC5        0.0000 
     92 CA         42.4115   49.5888   11.7540 C.3       3 GLC5        0.0000 
     93 CA         43.4780   48.0510   11.0220 C.3       6 GLP5        0.0000 
     94 CA         36.4678   48.8573    8.2988 C.3       3 GLC5        0.0000 
     95 CA         38.2170   48.3420    9.5550 C.3       9 GLL5        0.0000 
     96 CA         35.3440   49.6590    6.7010 C.3       6 GLP5        0.0000 
     97 CA         35.5425   49.3310   10.5210 C.3       3 GLC5        0.0000 
     98 CA         36.9660   47.7690   10.2380 C.3       9 GLL5        0.0000 
     99 CA         34.2650   50.5860   10.1280 C.3       6 GLP5        0.0000 
    100 CA         36.7198   48.3997   13.5265 C.3       3 GLC5        0.0000 
    101 CA         36.6740   48.3830   11.5900 C.3       9 GLL5        0.0000 
    102 CA         36.3400   47.9130   15.1990 C.3       6 GLP5        0.0000 
@<TRIPOS>BOND
@<TRIPOS>SUBSTRUCTURE
     1 ALC1       12 GROUP        1 X    ALC  0     ROOT ALC X 1
     2 SEC2        1 GROUP        1 X    SEC  0     **** SEC X 2
     3 GLC5        6 GROUP        1 X    GLC  0     **** GLC X 6
     4 ALP1       14 GROUP        1 Y    ALP  0     ROOT ALP Y 8
     5 SEP2        3 GROUP        1 Y    SEP  0     **** SEP Y 9
     6 GLP5        8 GROUP        1 Y    GLP  0     **** GLP Y 13
     7 ALL1       13 GROUP        1 Z    ALL  0     ROOT ALL Z 15
     8 SEL2        2 GROUP        1 Z    SEL  0     **** SEL Z 16
     9 GLL5        7 GROUP        1 Z    GLL  0     **** GLL Z 20
@<TRIPOS>SET

