#    Name: 4fn4_NAD_1_ligand
#    Modification time : Mon Mar 24 20:22:56 2014

@<TRIPOS>MOLECULE
4fn4_NAD_1_ligand
   70    74     1     0     0
SMALL
NO_CHARGES


@<TRIPOS>ATOM
      1 PA         44.9480   51.4060    7.0610 P.3       1 NAD501      0.0000 
      2 O1A        44.5260   51.4490    5.6370 O.co2     1 NAD501      0.0000 
      3 O2A        46.0790   50.5110    7.4670 O.co2     1 NAD501      0.0000 
      4 O5B        45.2380   52.9040    7.4920 O.3       1 NAD501      0.0000 
      5 C5B        45.7070   53.1970    8.8370 C.3       1 NAD501      0.0000 
      6 C4B        46.8200   54.2050    8.7330 C.3       1 NAD501      0.0000 
      7 O4B        47.2360   54.3800   10.1400 O.3       1 NAD501      0.0000 
      8 C3B        48.0790   53.6830    7.9740 C.3       1 NAD501      0.0000 
      9 O3B        48.4470   54.6390    6.9330 O.3       1 NAD501      0.0000 
     10 C2B        49.1410   53.5160    9.0160 C.3       1 NAD501      0.0000 
     11 O2B        50.4760   53.6440    8.6510 O.3       1 NAD501      0.0000 
     12 C1B        48.6400   54.4810   10.1170 C.3       1 NAD501      0.0000 
     13 N9A        49.1600   54.0450   11.3900 N.pl3     1 NAD501      0.0000 
     14 C8A        49.2420   52.7940   12.0030 C.2       1 NAD501      0.0000 
     15 N7A        49.8170   52.8200   13.1850 N.2       1 NAD501      0.0000 
     16 C5A        50.1480   54.0960   13.4250 C.ar      1 NAD501      0.0000 
     17 C6A        50.8110   54.7560   14.5430 C.ar      1 NAD501      0.0000 
     18 N6A        51.2320   54.0960   15.6030 N.pl3     1 NAD501      0.0000 
     19 N1A        50.9630   56.1290   14.3960 N.ar      1 NAD501      0.0000 
     20 C2A        50.5640   56.8630   13.3420 C.ar      1 NAD501      0.0000 
     21 N3A        49.9340   56.2840   12.2410 N.ar      1 NAD501      0.0000 
     22 C4A        49.7450   54.8930   12.3240 C.ar      1 NAD501      0.0000 
     23 O3         43.7260   51.0260    8.0190 O.3       1 NAD501      0.0000 
     24 PN         42.1440   51.4520    8.0190 P.3       1 NAD501      0.0000 
     25 O1N        41.4270   50.2160    7.6940 O.co2     1 NAD501      0.0000 
     26 O2N        42.0280   52.6860    7.1820 O.co2     1 NAD501      0.0000 
     27 O5D        41.7430   51.7040    9.5200 O.3       1 NAD501      0.0000 
     28 C5D        42.0550   52.8410   10.2990 C.3       1 NAD501      0.0000 
     29 C4D        41.1200   52.7070   11.4630 C.3       1 NAD501      0.0000 
     30 O4D        39.8310   51.9870   11.0460 O.3       1 NAD501      0.0000 
     31 C3D        41.7010   51.8040   12.5860 C.3       1 NAD501      0.0000 
     32 O3D        41.4170   52.3540   13.8740 O.3       1 NAD501      0.0000 
     33 C2D        40.9890   50.4490   12.3860 C.3       1 NAD501      0.0000 
     34 O2D        41.0540   49.6410   13.5270 O.3       1 NAD501      0.0000 
     35 C1D        39.5560   50.9280   12.0000 C.3       1 NAD501      0.0000 
     36 N1N        38.6680   49.8520   11.4010 N.pl3     1 NAD501      0.0000 
     37 C2N        38.9830   49.3010   10.1130 C.ar      1 NAD501      0.0000 
     38 C3N        38.2170   48.3420    9.5550 C.ar      1 NAD501      0.0000 
     39 C7N        38.5500   47.7740    8.2070 C.2       1 NAD501      0.0000 
     40 O7N        37.9940   46.7040    7.8710 O.2       1 NAD501      0.0000 
     41 N7N        39.4080   48.4210    7.4110 N.am      1 NAD501      0.0000 
     42 C4N        36.9660   47.7690   10.2380 C.ar      1 NAD501      0.0000 
     43 C5N        36.6740   48.3830   11.5900 C.ar      1 NAD501      0.0000 
     44 C6N        37.5250   49.3900   12.1180 C.ar      1 NAD501      0.0000 
     45 H          46.0881   52.2998    9.3206 H         1 NAD501      0.0000 
     46 H          44.9080   53.6158    9.4454 H         1 NAD501      0.0000 
     47 H          46.4934   55.1037    8.3358 H         1 NAD501      0.0000 
     48 H          47.8202   52.7281    7.5675 H         1 NAD501      0.0000 
     49 H          48.9284   52.4953    9.4721 H         1 NAD501      0.0000 
     50 H          48.9717   55.4550    9.8689 H         1 NAD501      0.0000 
     51 H          48.8842   51.9785   11.5505 H         1 NAD501      0.0000 
     52 H          51.6973   54.6381   16.3027 H         1 NAD501      0.0000 
     53 H          51.0478   53.1131   15.6112 H         1 NAD501      0.0000 
     54 H          50.7209   57.8987   13.3274 H         1 NAD501      0.0000 
     55 H          41.8407   53.7590    9.7864 H         1 NAD501      0.0000 
     56 H          43.0646   52.8233   10.6619 H         1 NAD501      0.0000 
     57 H          40.8642   53.6416   11.8838 H         1 NAD501      0.0000 
     58 H          42.7321   51.6685   12.3906 H         1 NAD501      0.0000 
     59 H          41.4127   50.0178   11.4961 H         1 NAD501      0.0000 
     60 H          39.1137   51.3450   12.8832 H         1 NAD501      0.0000 
     61 H          39.8242   49.6733    9.6329 H         1 NAD501      0.0000 
     62 H          39.6158   47.9805    6.5376 H         1 NAD501      0.0000 
     63 H          39.7648   49.2873    7.7605 H         1 NAD501      0.0000 
     64 H          36.4400   47.1014    9.8447 H         1 NAD501      0.0000 
     65 H          35.8645   48.0492   12.0849 H         1 NAD501      0.0000 
     66 H          37.3142   49.7971   13.0386 H         1 NAD501      0.0000 
     67 H          48.6979   55.4729    7.4246 H         1 NAD501      0.0000 
     68 H          50.5996   54.6177    8.4594 H         1 NAD501      0.0000 
     69 H          41.1942   53.3136   13.7022 H         1 NAD501      0.0000 
     70 H          40.5346   48.8194   13.2921 H         1 NAD501      0.0000 
@<TRIPOS>BOND
     1    2    1 ar   
     2    3    1 ar   
     3    4    1 1    
     4   23    1 1    
     5    5    4 1    
     6    6    5 1    
     7   45    5 1    
     8   46    5 1    
     9    7    6 1    
    10    8    6 1    
    11   47    6 1    
    12   12    7 1    
    13    9    8 1    
    14   10    8 1    
    15   48    8 1    
    16   67    9 1    
    17   11   10 1    
    18   12   10 1    
    19   49   10 1    
    20   68   11 1    
    21   13   12 1    
    22   50   12 1    
    23   14   13 1    
    24   22   13 1    
    25   15   14 2    
    26   51   14 1    
    27   16   15 1    
    28   17   16 ar   
    29   22   16 ar   
    30   18   17 1    
    31   19   17 ar   
    32   52   18 1    
    33   53   18 1    
    34   20   19 ar   
    35   21   20 ar   
    36   54   20 1    
    37   22   21 ar   
    38   24   23 1    
    39   25   24 ar   
    40   26   24 ar   
    41   27   24 1    
    42   28   27 1    
    43   29   28 1    
    44   55   28 1    
    45   56   28 1    
    46   30   29 1    
    47   31   29 1    
    48   57   29 1    
    49   35   30 1    
    50   32   31 1    
    51   33   31 1    
    52   58   31 1    
    53   69   32 1    
    54   34   33 1    
    55   35   33 1    
    56   59   33 1    
    57   70   34 1    
    58   36   35 1    
    59   60   35 1    
    60   37   36 ar   
    61   44   36 ar   
    62   38   37 ar   
    63   61   37 1    
    64   39   38 1    
    65   42   38 ar   
    66   40   39 2    
    67   41   39 am   
    68   62   41 1    
    69   63   41 1    
    70   43   42 ar   
    71   64   42 1    
    72   44   43 ar   
    73   65   43 1    
    74   66   44 1    
@<TRIPOS>SUBSTRUCTURE
     1 NAD501      1 GROUP   
@<TRIPOS>SET

