#    Name: 3bet_CTF_1_INTS_M
#    Modification time : Mon Mar 24 19:21:19 2014

@<TRIPOS>MOLECULE
3bet_CTF_1_INTS_M
   55     0    12     0     0
SMALL
NO_CHARGES


@<TRIPOS>ATOM
      1 N          -3.5480    0.9205   18.0350 N.am      2 SEC2        0.0000 
      2 N          -4.5970    1.6080   17.2620 N.am     10 SEL2        0.0000 
      3 N          -2.4990    0.2330   18.8080 N.am      6 SEP2        0.0000 
      4 O          -4.3720   -1.3430   16.8780 O.2       1 ALC1        0.0000 
      5 O          -5.2610   -0.5800   16.3840 O.2       9 ALL1        0.0000 
      6 O          -3.4830   -2.1060   17.3720 O.2       5 ALP1        0.0000 
      7 Zn         -5.9465   -1.0845   15.7885 Zn        3 ZIC7        0.0000 
      8 Zn         -5.2610   -0.5800   16.3840 Zn       11 ZIL7        0.0000 
      9 Zn         -6.6320   -1.5890   15.1930 Zn        7 ZIP7        0.0000 
     10 CA         -2.0815    0.8445   14.3005 C.3       4 GLC5        0.0000 
     11 CA         -3.0490    2.7230   14.1560 C.3      12 GLL5        0.0000 
     12 CA         -1.1140   -1.0340   14.4450 C.3       8 GLP5        0.0000 
     13 CA         -8.2800    5.1100   16.0045 C.3       4 GLC5        0.0000 
     14 CA         -6.8080    4.3590   16.4060 C.3      12 GLL5        0.0000 
     15 CA         -9.7520    5.8610   15.6030 C.3       8 GLP5        0.0000 
     16 CA         -6.7850    6.0040   17.4460 C.3       4 GLC5        0.0000 
     17 CA         -6.7620    7.6490   18.4860 C.3       8 GLP5        0.0000 
     18 CA         -8.1555    3.7680   17.8085 C.3       4 GLC5        0.0000 
     19 CA         -9.5030    3.1770   19.2110 C.3       8 GLP5        0.0000 
     20 CA         -5.3370    4.7870   17.3450 C.3       4 GLC5        0.0000 
     21 CA         -3.8660    5.2150   18.2840 C.3       8 GLP5        0.0000 
     22 CA         -0.4205    1.8750   13.9740 C.3       4 GLC5        0.0000 
     23 CA         -0.9740    3.9310   13.3540 C.3      12 GLL5        0.0000 
     24 CA          0.1330   -0.1810   14.5940 C.3       8 GLP5        0.0000 
     25 CA         -2.3120    6.6740   15.9720 C.3       4 GLC5        0.0000 
     26 CA         -3.1340    7.6950   14.3210 C.3      12 GLL5        0.0000 
     27 CA         -1.4900    5.6530   17.6230 C.3       8 GLP5        0.0000 
     28 CA         -1.5495   10.5950   16.3755 C.3       4 GLC5        0.0000 
     29 CA         -0.5070    9.1600   15.3370 C.3      12 GLL5        0.0000 
     30 CA         -2.5920   12.0300   17.4140 C.3       8 GLP5        0.0000 
     31 CA         -0.9985    7.4065   16.4800 C.3       4 GLC5        0.0000 
     32 CA          0.9350    8.0640   15.9375 C.3       4 GLC5        0.0000 
     33 CA          2.3770    6.9680   16.5380 C.3       8 GLP5        0.0000 
     34 CA         -0.1435    9.2870   17.0660 C.3       4 GLC5        0.0000 
     35 CA          0.2200    9.4140   18.7950 C.3       8 GLP5        0.0000 
     36 CA         -2.9285   13.6675   14.0285 C.3       4 GLC5        0.0000 
     37 CA         -1.6340   12.3280   13.1810 C.3      12 GLL5        0.0000 
     38 CA         -4.2230   15.0070   14.8760 C.3       8 GLP5        0.0000 
     39 CA         -2.1130   12.1790   15.2975 C.3       4 GLC5        0.0000 
     40 CA         -4.3605    4.8487   16.3957 C.3       4 GLC5        0.0000 
     41 CA         -4.5390    5.0890   14.3360 C.3      12 GLL5        0.0000 
     42 CA         -2.1452    5.1080   15.7398 C.3       4 GLC5        0.0000 
     43 CA         -3.1680    5.1750   13.8930 C.3      12 GLL5        0.0000 
     44 CA         -1.6215    6.0747   15.5665 C.3       4 GLC5        0.0000 
     45 CA         -2.5450    6.5110   13.4940 C.3      12 GLL5        0.0000 
     46 CA          0.6374    5.4010   14.3628 C.3       4 GLC5        0.0000 
     47 CA         -0.9610    6.4820   13.5260 C.3      12 GLL5        0.0000 
     48 CA          2.1190    5.9010   15.4860 C.3       8 GLP5        0.0000 
     49 CA         -4.3472    9.1292   13.8558 C.3       4 GLC5        0.0000 
     50 CA         -5.8510    9.8700   13.5970 C.3       8 GLP5        0.0000 
     51 CA         -3.6608    9.3912   15.7088 C.3       4 GLC5        0.0000 
     52 CA         -2.5530    9.0820   13.9080 C.3      12 GLL5        0.0000 
     53 CA         -4.4780   10.3940   17.3030 C.3       8 GLP5        0.0000 
     54 CA          1.1803    6.9733   14.2197 C.3       4 GLC5        0.0000 
     55 CA         -0.5160    7.8900   13.0240 C.3      12 GLL5        0.0000 
@<TRIPOS>BOND
@<TRIPOS>SUBSTRUCTURE
     1 ALC1        4 GROUP        1 X    ALC  0     ROOT ALC X 1
     2 SEC2        1 GROUP        1 X    SEC  0     **** SEC X 2
     3 ZIC7        7 GROUP        1 X    ZIC  0     **** ZIC X 5
     4 GLC5       10 GROUP        1 X    GLC  0     **** GLC X 6
     5 ALP1        6 GROUP        1 Y    ALP  0     ROOT ALP Y 8
     6 SEP2        3 GROUP        1 Y    SEP  0     **** SEP Y 9
     7 ZIP7        9 GROUP        1 Y    ZIP  0     **** ZIP Y 12
     8 GLP5       12 GROUP        1 Y    GLP  0     **** GLP Y 13
     9 ALL1        5 GROUP        1 Z    ALL  0     ROOT ALL Z 15
    10 SEL2        2 GROUP        1 Z    SEL  0     **** SEL Z 16
    11 ZIL7        8 GROUP        1 Z    ZIL  0     **** ZIL Z 19
    12 GLL5       11 GROUP        1 Z    GLL  0     **** GLL Z 20
@<TRIPOS>SET

