#    Name: 3bet_CTF_1_ligand
#    Modification time : Mon Mar 24 19:21:19 2014

@<TRIPOS>MOLECULE
3bet_CTF_1_ligand
   55    58     1     0     0
SMALL
NO_CHARGES


@<TRIPOS>ATOM
      1 C1         -4.4080    2.6770   14.5810 C.ar      1 CTF264      0.0000 
      2 O1         -6.8790    1.2400   16.3670 O.2       1 CTF264      0.0000 
      3 O2         -4.5970    1.6080   17.2620 O.2       1 CTF264      0.0000 
      4 C2         -5.1710    3.8760   14.6790 C.ar      1 CTF264      0.0000 
      5 C3         -4.5390    5.0890   14.3360 C.ar      1 CTF264      0.0000 
      6 C4         -3.1680    5.1750   13.8930 C.ar      1 CTF264      0.0000 
      7 S1         -5.4840    0.9790   16.3420 S.o2      1 CTF264      0.0000 
      8 N1         -5.2610   -0.5800   16.3840 N.pl3     1 CTF264      0.0000 
      9 O3         -5.0280    1.4330   14.8830 O.3       1 CTF264      0.0000 
     10 C5         -2.4330    3.9510   13.8200 C.ar      1 CTF264      0.0000 
     11 C6         -3.0490    2.7230   14.1560 C.ar      1 CTF264      0.0000 
     12 O4         -6.4900    3.9680   15.0750 O.3       1 CTF264      0.0000 
     13 C7         -6.8080    4.3590   16.4060 C.3       1 CTF264      0.0000 
     14 C8         -2.5450    6.5110   13.4940 C.3       1 CTF264      0.0000 
     15 C9         -0.9610    6.4820   13.5260 C.3       1 CTF264      0.0000 
     16 C10        -0.4680    5.2600   12.7240 C.3       1 CTF264      0.0000 
     17 C11        -0.9740    3.9310   13.3540 C.3       1 CTF264      0.0000 
     18 C12        -3.1340    7.6950   14.3210 C.3       1 CTF264      0.0000 
     19 C13        -2.5530    9.0820   13.9080 C.3       1 CTF264      0.0000 
     20 C14        -1.0300    9.1110   13.8770 C.3       1 CTF264      0.0000 
     21 C15        -0.5160    7.8900   13.0240 C.3       1 CTF264      0.0000 
     22 C16        -0.5070    9.1600   15.3370 C.3       1 CTF264      0.0000 
     23 C17        -0.3620   10.1910   12.9460 C.3       1 CTF264      0.0000 
     24 C18         1.0720    9.7350   12.8200 C.3       1 CTF264      0.0000 
     25 C19         0.9990    8.2010   12.8830 C.3       1 CTF264      0.0000 
     26 C20        -0.3800   11.5900   13.5030 C.3       1 CTF264      0.0000 
     27 C21        -1.6340   12.3280   13.1810 C.1       1 CTF264      0.0000 
     28 N2         -2.6060   12.8820   12.9830 N.1       1 CTF264      0.0000 
     29 H          -5.0787    5.9774   14.4013 H         1 CTF264      0.0000 
     30 H          -4.3993   -0.8906   16.7854 H         1 CTF264      0.0000 
     31 H          -2.5134    1.8506   14.0943 H         1 CTF264      0.0000 
     32 H          -2.8242    6.7028   12.4311 H         1 CTF264      0.0000 
     33 H          -0.6915    6.3837   14.5643 H         1 CTF264      0.0000 
     34 H           0.6178    5.2514   12.7140 H         1 CTF264      0.0000 
     35 H          -0.8368    5.3268   11.7048 H         1 CTF264      0.0000 
     36 H          -0.8420    3.1251   12.6119 H         1 CTF264      0.0000 
     37 H          -0.3236    3.6857   14.2110 H         1 CTF264      0.0000 
     38 H          -2.9208    7.5253   15.3786 H         1 CTF264      0.0000 
     39 H          -4.2176    7.7133   14.1858 H         1 CTF264      0.0000 
     40 H          -2.9209    9.8323   14.6177 H         1 CTF264      0.0000 
     41 H          -2.9461    9.3364   12.9167 H         1 CTF264      0.0000 
     42 H          -0.9517    8.0692   12.0085 H         1 CTF264      0.0000 
     43 H          -0.8215   10.1381   11.9928 H         1 CTF264      0.0000 
     44 H           1.6479   10.0930   13.6407 H         1 CTF264      0.0000 
     45 H           1.4727   10.0290   11.8785 H         1 CTF264      0.0000 
     46 H           1.3585    7.7851   11.9778 H         1 CTF264      0.0000 
     47 H           1.5093    7.8504   13.7422 H         1 CTF264      0.0000 
     48 H           0.4882   12.1452   13.1057 H         1 CTF264      0.0000 
     49 H          -0.2506   11.5413   14.5988 H         1 CTF264      0.0000 
     50 H          -6.4257    3.7270   17.0801 H         1 CTF264      0.0000 
     51 H          -6.4514    5.2681   16.6213 H         1 CTF264      0.0000 
     52 H          -7.7959    4.3880   16.5586 H         1 CTF264      0.0000 
     53 H           0.4922    9.1791   15.3731 H         1 CTF264      0.0000 
     54 H          -0.8333    9.9717   15.8214 H         1 CTF264      0.0000 
     55 H          -0.8043    8.3644   15.8649 H         1 CTF264      0.0000 
@<TRIPOS>BOND
     1    4    1 ar   
     2    9    1 1    
     3   11    1 ar   
     4    7    2 2    
     5    7    3 2    
     6    5    4 ar   
     7   12    4 1    
     8    6    5 ar   
     9   29    5 1    
    10   10    6 ar   
    11   14    6 1    
    12    8    7 1    
    13    9    7 1    
    14   30    8 1    
    15   11   10 ar   
    16   17   10 1    
    17   31   11 1    
    18   13   12 1    
    19   50   13 1    
    20   51   13 1    
    21   52   13 1    
    22   15   14 1    
    23   18   14 1    
    24   32   14 1    
    25   16   15 1    
    26   21   15 1    
    27   33   15 1    
    28   17   16 1    
    29   34   16 1    
    30   35   16 1    
    31   36   17 1    
    32   37   17 1    
    33   19   18 1    
    34   38   18 1    
    35   39   18 1    
    36   20   19 1    
    37   40   19 1    
    38   41   19 1    
    39   21   20 1    
    40   22   20 1    
    41   23   20 1    
    42   25   21 1    
    43   42   21 1    
    44   53   22 1    
    45   54   22 1    
    46   55   22 1    
    47   24   23 1    
    48   26   23 1    
    49   43   23 1    
    50   25   24 1    
    51   44   24 1    
    52   45   24 1    
    53   46   25 1    
    54   47   25 1    
    55   27   26 1    
    56   48   26 1    
    57   49   26 1    
    58   28   27 3    
@<TRIPOS>SUBSTRUCTURE
     1 CTF264      1 GROUP   
@<TRIPOS>SET

