#    Name: 3i6m_G3X_1_INTS_M
#    Modification time : Tue Mar 25 15:57:10 2014

@<TRIPOS>MOLECULE
3i6m_G3X_1_INTS_M
   80     0     9     0     0
SMALL
NO_CHARGES


@<TRIPOS>ATOM
      1 CA          6.9710   69.7840   61.8915 C.3       3 GLC5        0.0000 
      2 CA          5.1840   68.8450   62.3430 C.3       9 GLL5        0.0000 
      3 CA          8.7580   70.7230   61.4400 C.3       6 GLP5        0.0000 
      4 CA          0.4520   64.5440   66.1920 C.3       3 GLC5        0.0000 
      5 CA          1.4690   66.2790   65.7830 C.3       9 GLL5        0.0000 
      6 CA         -0.5650   62.8090   66.6010 C.3       6 GLP5        0.0000 
      7 CA          4.1565   69.5275   67.1835 C.3       3 GLC5        0.0000 
      8 CA          2.3970   68.6250   66.1400 C.3       9 GLL5        0.0000 
      9 CA          5.9160   70.4300   68.2270 C.3       6 GLP5        0.0000 
     10 CA          5.1920   69.2620   66.2735 C.3       3 GLC5        0.0000 
     11 CA          3.7720   68.4980   65.4610 C.3       9 GLL5        0.0000 
     12 CA          6.6120   70.0260   67.0860 C.3       6 GLP5        0.0000 
     13 CA          3.6835   61.8550   62.2760 C.3       3 GLC5        0.0000 
     14 CA          5.4870   62.1210   62.7380 C.3       9 GLL5        0.0000 
     15 CA          1.8800   61.5890   61.8140 C.3       6 GLP5        0.0000 
     16 CA          5.8985   61.0765   60.9800 C.3       3 GLC5        0.0000 
     17 CA          6.3100   60.0320   59.2220 C.3       6 GLP5        0.0000 
     18 CA          6.8815   61.0205   63.2595 C.3       3 GLC5        0.0000 
     19 CA          8.2760   59.9200   63.7810 C.3       6 GLP5        0.0000 
     20 CA          4.9130   60.9250   63.9625 C.3       3 GLC5        0.0000 
     21 CA          4.3390   59.7290   65.1870 C.3       6 GLP5        0.0000 
     22 CA          6.5980   62.7570   64.1975 C.3       3 GLC5        0.0000 
     23 CA          7.7090   63.3930   65.6570 C.3       6 GLP5        0.0000 
     24 N           6.2095   63.7290   61.6805 N.am      2 SEC2        0.0000 
     25 N           5.7690   63.4940   63.0770 N.am      8 SEL2        0.0000 
     26 N           6.6500   63.9640   60.2840 N.am      5 SEP2        0.0000 
     27 N           7.1495   64.2030   62.4830 N.am      2 SEC2        0.0000 
     28 N           8.5300   64.9120   61.8890 N.am      5 SEP2        0.0000 
     29 O           5.3435   67.7640   59.7065 O.2       1 ALC1        0.0000 
     30 O           4.3090   67.3090   60.6060 O.2       7 ALL1        0.0000 
     31 O           6.3780   68.2190   58.8070 O.2       4 ALP1        0.0000 
     32 CA          2.9980   65.4220   71.2405 C.3       3 GLC5        0.0000 
     33 CA          3.1530   64.5320   69.4200 C.3       9 GLL5        0.0000 
     34 CA          2.8430   66.3120   73.0610 C.3       6 GLP5        0.0000 
     35 CA          5.5620   63.2295   67.4765 C.3       3 GLC5        0.0000 
     36 CA          4.2150   63.9100   68.5060 C.3       9 GLL5        0.0000 
     37 CA          6.9090   62.5490   66.4470 C.3       6 GLP5        0.0000 
     38 CA          7.2145   66.0055   68.5410 C.3       3 GLC5        0.0000 
     39 CA          5.5220   64.7140   68.5980 C.3       9 GLL5        0.0000 
     40 CA          8.9070   67.2970   68.4840 C.3       6 GLP5        0.0000 
     41 CA          6.4340   63.4265   68.1525 C.3       3 GLC5        0.0000 
     42 CA          7.3460   62.1390   67.7070 C.3       6 GLP5        0.0000 
     43 CA          6.5785   67.2940   68.3185 C.3       3 GLC5        0.0000 
     44 CA          5.2840   66.1830   68.2300 C.3       9 GLL5        0.0000 
     45 CA          7.8730   68.4050   68.4070 C.3       6 GLP5        0.0000 
     46 CA          6.0965   64.3660   67.3385 C.3       3 GLC5        0.0000 
     47 CA          5.6950   67.8035   69.3405 C.3       3 GLC5        0.0000 
     48 CA          4.2200   66.7890   69.1470 C.3       9 GLL5        0.0000 
     49 CA          7.1700   68.8180   69.5340 C.3       6 GLP5        0.0000 
     50 CA          4.3730   67.6295   70.8450 C.3       3 GLC5        0.0000 
     51 CA          4.5260   68.4700   72.5430 C.3       6 GLP5        0.0000 
     52 CA          5.8755   68.8945   65.2875 C.3       3 GLC5        0.0000 
     53 CA          5.1390   67.7630   63.4890 C.3       9 GLL5        0.0000 
     54 CA          6.8310   66.7695   63.2245 C.3       3 GLC5        0.0000 
     55 CA          8.5230   65.7760   62.9600 C.3       6 GLP5        0.0000 
     56 CA          2.6742   70.1625   62.5087 C.3       3 GLC5        0.0000 
     57 CA          2.5760   68.0970   63.2320 C.3       9 GLL5        0.0000 
     58 CA          2.6930   72.0080   62.4280 C.3       6 GLP5        0.0000 
     59 CA          1.8027   66.7860   61.9333 C.3       3 GLC5        0.0000 
     60 CA          2.7350   68.5370   61.9470 C.3       9 GLL5        0.0000 
     61 CA          0.9500   65.2550   61.2770 C.3       6 GLP5        0.0000 
     62 CA          4.1840   70.4795   61.6598 C.3       3 GLC5        0.0000 
     63 CA          4.1020   68.5730   61.2700 C.3       9 GLL5        0.0000 
     64 CA          3.7250   72.2500   61.5130 C.3       6 GLP5        0.0000 
     65 CA          6.6002   65.3152   63.3115 C.3       3 GLC5        0.0000 
     66 CA          4.7220   64.1510   63.7200 C.3       9 GLL5        0.0000 
     67 CA          1.8295   65.0615   63.2090 C.3       3 GLC5        0.0000 
     68 CA          2.6630   65.5720   65.0880 C.3       9 GLL5        0.0000 
     69 CA          2.6909   62.7862   63.2353 C.3       3 GLC5        0.0000 
     70 CA          2.7550   64.1640   65.1940 C.3       9 GLL5        0.0000 
     71 CA          2.6212   70.2987   65.3912 C.3       3 GLC5        0.0000 
     72 CA          2.1580   72.0360   64.9820 C.3       6 GLP5        0.0000 
     73 CA          2.5393   65.5752   62.6125 C.3       3 GLC5        0.0000 
     74 CA          3.6240   66.2330   64.2900 C.3       9 GLL5        0.0000 
     75 CA         -0.5985   68.1425   69.3653 C.3       3 GLC5        0.0000 
     76 CA          0.7920   67.6620   67.7080 C.3       9 GLL5        0.0000 
     77 CA         -1.9090   69.1450   70.4680 C.3       6 GLP5        0.0000 
     78 CA          1.7652   67.0965   71.0168 C.3       3 GLC5        0.0000 
     79 CA          0.6320   66.6180   68.8170 C.3       9 GLL5        0.0000 
     80 CA          2.2940   67.5880   72.7510 C.3       6 GLP5        0.0000 
@<TRIPOS>BOND
@<TRIPOS>SUBSTRUCTURE
     1 ALC1       29 GROUP        1 X    ALC  0     ROOT ALC X 1
     2 SEC2       24 GROUP        1 X    SEC  0     **** SEC X 2
     3 GLC5        1 GROUP        1 X    GLC  0     **** GLC X 6
     4 ALP1       31 GROUP        1 Y    ALP  0     ROOT ALP Y 8
     5 SEP2       26 GROUP        1 Y    SEP  0     **** SEP Y 9
     6 GLP5        3 GROUP        1 Y    GLP  0     **** GLP Y 13
     7 ALL1       30 GROUP        1 Z    ALL  0     ROOT ALL Z 15
     8 SEL2       25 GROUP        1 Z    SEL  0     **** SEL Z 16
     9 GLL5        2 GROUP        1 Z    GLL  0     **** GLL Z 20
@<TRIPOS>SET

