#    Name: 3i6m_G3X_1_ligand
#    Modification time : Tue Mar 25 15:57:10 2014

@<TRIPOS>MOLECULE
3i6m_G3X_1_ligand
   65    69     1     0     0
SMALL
NO_CHARGES


@<TRIPOS>ATOM
      1 C1          2.5760   68.0970   63.2320 C.2       1 G3X1        0.0000 
      2 C2          2.7350   68.5370   61.9470 C.2       1 G3X1        0.0000 
      3 C3          4.1020   68.5730   61.2700 C.3       1 G3X1        0.0000 
      4 C4          5.1840   68.8450   62.3430 C.3       1 G3X1        0.0000 
      5 O5          5.4180   66.4380   62.9160 O.3       1 G3X1        0.0000 
      6 C6          4.7220   64.1510   63.7200 C.ar      1 G3X1        0.0000 
      7 C7          3.7750   63.4550   64.5180 C.ar      1 G3X1        0.0000 
      8 C8          2.7550   64.1640   65.1940 C.ar      1 G3X1        0.0000 
      9 C9          1.4690   66.2790   65.7830 C.3       1 G3X1        0.0000 
     10 N10         1.8830   67.3520   66.7520 N.4       1 G3X1        0.0000 
     11 C11         2.3970   68.6250   66.1400 C.3       1 G3X1        0.0000 
     12 C12         3.7720   68.4980   65.4610 C.3       1 G3X1        0.0000 
     13 C13         4.6330   65.5580   63.6060 C.ar      1 G3X1        0.0000 
     14 C14         3.6240   66.2330   64.2900 C.ar      1 G3X1        0.0000 
     15 C15         2.6630   65.5720   65.0880 C.ar      1 G3X1        0.0000 
     16 C16         5.4870   62.1210   62.7380 C.3       1 G3X1        0.0000 
     17 O17         5.7690   63.4940   63.0770 O.3       1 G3X1        0.0000 
     18 O18         4.3090   67.3090   60.6060 O.3       1 G3X1        0.0000 
     19 C19         0.7920   67.6620   67.7080 C.3       1 G3X1        0.0000 
     20 C20         0.6320   66.6180   68.8170 C.3       1 G3X1        0.0000 
     21 C21         1.8410   66.5920   69.7480 C.3       1 G3X1        0.0000 
     22 N22         2.9890   65.9680   69.0730 N.4       1 G3X1        0.0000 
     23 C23         3.1530   64.5320   69.4200 C.3       1 G3X1        0.0000 
     24 C24         4.2150   63.9100   68.5060 C.3       1 G3X1        0.0000 
     25 C25         5.5220   64.7140   68.5980 C.3       1 G3X1        0.0000 
     26 C26         5.2840   66.1830   68.2300 C.3       1 G3X1        0.0000 
     27 C27         4.2200   66.7890   69.1470 C.3       1 G3X1        0.0000 
     28 C41         5.1390   67.7630   63.4890 C.3       1 G3X1        0.0000 
     29 C42         3.7170   67.6190   64.1980 C.3       1 G3X1        0.0000 
     30 H           1.6275   68.0456   63.6864 H         1 G3X1        0.0000 
     31 H           1.9555   68.8657   61.3665 H         1 G3X1        0.0000 
     32 H           4.1057   69.3900   60.5730 H         1 G3X1        0.0000 
     33 H           5.0170   69.8192   62.7865 H         1 G3X1        0.0000 
     34 H           6.1647   68.8152   61.8837 H         1 G3X1        0.0000 
     35 H           3.8333   62.4391   64.6021 H         1 G3X1        0.0000 
     36 H           2.0754   63.6531   65.7665 H         1 G3X1        0.0000 
     37 H           0.8255   66.7093   64.9997 H         1 G3X1        0.0000 
     38 H           0.8758   65.5115   66.3045 H         1 G3X1        0.0000 
     39 H           2.7259   66.9291   67.3701 H         1 G3X1        0.0000 
     40 H           2.4669   69.4089   66.9178 H         1 G3X1        0.0000 
     41 H           1.6734   68.9941   65.3886 H         1 G3X1        0.0000 
     42 H           4.4799   68.0608   66.1682 H         1 G3X1        0.0000 
     43 H           4.1274   69.4934   65.1866 H         1 G3X1        0.0000 
     44 H          -0.1708   67.7440   67.1708 H         1 G3X1        0.0000 
     45 H           0.9718   68.6440   68.1829 H         1 G3X1        0.0000 
     46 H           0.5052   65.6323   68.3633 H         1 G3X1        0.0000 
     47 H          -0.2647   66.8483   69.3970 H         1 G3X1        0.0000 
     48 H           1.5723   66.0333   70.6481 H         1 G3X1        0.0000 
     49 H           2.0759   67.6191   70.0385 H         1 G3X1        0.0000 
     50 H           2.6981   65.9676   67.9443 H         1 G3X1        0.0000 
     51 H           2.2180   63.9974   69.2793 H         1 G3X1        0.0000 
     52 H           3.4767   64.4243   70.4512 H         1 G3X1        0.0000 
     53 H           3.8602   63.9225   67.4824 H         1 G3X1        0.0000 
     54 H           4.4023   62.8888   68.8157 H         1 G3X1        0.0000 
     55 H           6.2519   64.2865   67.9154 H         1 G3X1        0.0000 
     56 H           5.9052   64.6557   69.6135 H         1 G3X1        0.0000 
     57 H           4.9483   66.2437   67.2002 H         1 G3X1        0.0000 
     58 H           6.2116   66.7344   68.3417 H         1 G3X1        0.0000 
     59 H           4.6065   66.8072   70.1627 H         1 G3X1        0.0000 
     60 H           4.0205   67.8068   68.8221 H         1 G3X1        0.0000 
     61 H           5.8545   68.0023   64.2361 H         1 G3X1        0.0000 
     62 H           6.2597   61.6865   62.2753 H         1 G3X1        0.0000 
     63 H           5.2848   61.5722   63.5491 H         1 G3X1        0.0000 
     64 H           4.6986   62.0435   62.1277 H         1 G3X1        0.0000 
     65 H           4.8903   67.5216   59.8206 H         1 G3X1        0.0000 
@<TRIPOS>BOND
     1    2    1 2    
     2   29    1 1    
     3   30    1 1    
     4    3    2 1    
     5   31    2 1    
     6    4    3 1    
     7   18    3 1    
     8   32    3 1    
     9   28    4 1    
    10   33    4 1    
    11   34    4 1    
    12   13    5 1    
    13   28    5 1    
    14    7    6 ar   
    15   13    6 ar   
    16   17    6 1    
    17    8    7 ar   
    18   35    7 1    
    19   15    8 ar   
    20   36    8 1    
    21   10    9 1    
    22   15    9 1    
    23   37    9 1    
    24   38    9 1    
    25   11   10 1    
    26   19   10 1    
    27   39   10 1    
    28   12   11 1    
    29   40   11 1    
    30   41   11 1    
    31   29   12 1    
    32   42   12 1    
    33   43   12 1    
    34   14   13 ar   
    35   15   14 ar   
    36   29   14 1    
    37   17   16 1    
    38   62   16 1    
    39   63   16 1    
    40   64   16 1    
    41   65   18 1    
    42   20   19 1    
    43   44   19 1    
    44   45   19 1    
    45   21   20 1    
    46   46   20 1    
    47   47   20 1    
    48   22   21 1    
    49   48   21 1    
    50   49   21 1    
    51   23   22 1    
    52   27   22 1    
    53   50   22 1    
    54   24   23 1    
    55   51   23 1    
    56   52   23 1    
    57   25   24 1    
    58   53   24 1    
    59   54   24 1    
    60   26   25 1    
    61   55   25 1    
    62   56   25 1    
    63   27   26 1    
    64   57   26 1    
    65   58   26 1    
    66   59   27 1    
    67   60   27 1    
    68   29   28 1    
    69   61   28 1    
@<TRIPOS>SUBSTRUCTURE
     1 G3X1        1 GROUP   
@<TRIPOS>SET

