#    Name: 3dok_GWJ_1_INTS_M
#    Modification time : Mon Mar 24 23:55:38 2014

@<TRIPOS>MOLECULE
3dok_GWJ_1_INTS_M
  102     0     9     0     0
SMALL
NO_CHARGES


@<TRIPOS>ATOM
      1 CA         -0.7210  -36.0240   26.0465 C.3       3 GLC5        0.0000 
      2 CA         -1.4970  -35.6530   24.2060 C.3       9 GLL5        0.0000 
      3 CA          0.0550  -36.3950   27.8870 C.3       6 GLP5        0.0000 
      4 CA         -0.7840  -33.6430   20.9610 C.3       3 GLC5        0.0000 
      5 CA         -1.6790  -35.4160   21.3810 C.3       9 GLL5        0.0000 
      6 CA          0.1110  -31.8700   20.5410 C.3       6 GLP5        0.0000 
      7 CA         -2.2285  -37.6690   23.7295 C.3       3 GLC5        0.0000 
      8 CA         -0.1170  -37.9550   24.1570 C.3       9 GLL5        0.0000 
      9 CA         -4.3400  -37.3830   23.3020 C.3       6 GLP5        0.0000 
     10 CA          0.9990  -38.7030   23.0045 C.3       3 GLC5        0.0000 
     11 CA          2.1150  -39.4510   21.8520 C.3       6 GLP5        0.0000 
     12 CA          1.8485  -37.6140   23.9650 C.3       3 GLC5        0.0000 
     13 CA          3.8140  -37.2730   23.7730 C.3       6 GLP5        0.0000 
     14 CA         -0.0310  -37.1750   26.0220 C.3       3 GLC5        0.0000 
     15 CA         -0.6125  -39.4610   25.3410 C.3       3 GLC5        0.0000 
     16 CA         -1.1080  -40.9670   26.5250 C.3       6 GLP5        0.0000 
     17 CA         -1.3605  -39.2785   23.6165 C.3       3 GLC5        0.0000 
     18 CA         -2.6040  -40.6020   23.0760 C.3       6 GLP5        0.0000 
     19 CA         -4.4685  -31.9875   27.9785 C.3       3 GLC5        0.0000 
     20 CA         -2.7020  -32.9450   27.0860 C.3       9 GLL5        0.0000 
     21 CA         -6.2350  -31.0300   28.8710 C.3       6 GLP5        0.0000 
     22 CA          3.3945  -31.1205   25.9430 C.3       3 GLC5        0.0000 
     23 CA          1.7320  -32.0610   26.6660 C.3       9 GLL5        0.0000 
     24 CA          5.0570  -30.1800   25.2200 C.3       6 GLP5        0.0000 
     25 CA          2.4895  -33.5140   25.4140 C.3       3 GLC5        0.0000 
     26 CA          3.2470  -34.9670   24.1620 C.3       6 GLP5        0.0000 
     27 CA          1.5260  -33.3325   27.9220 C.3       3 GLC5        0.0000 
     28 CA          1.3200  -34.6040   29.1780 C.3       6 GLP5        0.0000 
     29 CA          2.1795  -30.8030   27.8510 C.3       3 GLC5        0.0000 
     30 CA          2.6270  -29.5450   29.0360 C.3       6 GLP5        0.0000 
     31 CA         -1.6870  -32.5695   20.4680 C.3       3 GLC5        0.0000 
     32 CA         -3.4850  -33.2690   20.3950 C.3       9 GLL5        0.0000 
     33 CA         -3.5925  -33.9030   18.5255 C.3       3 GLC5        0.0000 
     34 CA         -3.7000  -34.5370   16.6560 C.3       6 GLP5        0.0000 
     35 CA         -3.2710  -31.7010   19.8960 C.3       3 GLC5        0.0000 
     36 CA         -3.0570  -30.1330   19.3970 C.3       6 GLP5        0.0000 
     37 N          -4.9050  -35.4130   18.6860 N.am      2 SEC2        0.0000 
     38 N          -5.3550  -34.3100   19.5070 N.am      8 SEL2        0.0000 
     39 N          -4.4550  -36.5160   17.8650 N.am      5 SEP2        0.0000 
     40 CA         -7.0370  -32.9270   25.8325 C.3       3 GLC5        0.0000 
     41 CA         -7.1970  -32.7010   23.9470 C.3       9 GLL5        0.0000 
     42 CA         -6.8770  -33.1530   27.7180 C.3       6 GLP5        0.0000 
     43 CA         -6.4175  -31.0415   24.7150 C.3       3 GLC5        0.0000 
     44 CA         -5.6380  -29.3820   25.4830 C.3       6 GLP5        0.0000 
     45 CA         -8.4975  -31.1775   23.5110 C.3       3 GLC5        0.0000 
     46 CA         -9.7980  -29.6540   23.0750 C.3       6 GLP5        0.0000 
     47 CA         -8.5805  -32.7100   22.3910 C.3       3 GLC5        0.0000 
     48 CA         -9.9640  -32.7190   20.8350 C.3       6 GLP5        0.0000 
     49 CA         -9.7350  -33.7735   25.3660 C.3       3 GLC5        0.0000 
     50 CA         -8.5730  -34.7210   23.7030 C.3       9 GLL5        0.0000 
     51 CA        -10.8970  -32.8260   27.0290 C.3       6 GLP5        0.0000 
     52 O         -10.4750  -38.1555   21.2390 O.2       1 ALC1        0.0000 
     53 O         -11.2280  -37.1870   22.3630 O.2       7 ALL1        0.0000 
     54 O          -9.7220  -39.1240   20.1150 O.2       4 ALP1        0.0000 
     55 N          -8.4095  -38.6070   24.1215 N.am      2 SEC2        0.0000 
     56 N          -9.9490  -38.1320   24.3660 N.am      8 SEL2        0.0000 
     57 N          -6.8700  -39.0820   23.8770 N.am      5 SEP2        0.0000 
     58 CA         -3.5405  -33.9285   29.9525 C.3       3 GLC5        0.0000 
     59 CA         -2.6110  -32.2910   29.4590 C.3       9 GLL5        0.0000 
     60 CA         -4.4700  -35.5660   30.4460 C.3       6 GLP5        0.0000 
     61 CA         -1.6245  -33.4350   30.3105 C.3       3 GLC5        0.0000 
     62 CA         -0.6380  -34.5790   31.1620 C.3       6 GLP5        0.0000 
     63 CA         -4.4230  -31.6605   29.1650 C.3       3 GLC5        0.0000 
     64 CA         -1.5470  -30.8785   30.1555 C.3       3 GLC5        0.0000 
     65 CA         -0.4830  -29.4660   30.8520 C.3       6 GLP5        0.0000 
     66 CA         -3.2615  -35.9497   23.1197 C.3       3 GLC5        0.0000 
     67 CA         -2.2350  -34.4370   22.1850 C.3       9 GLL5        0.0000 
     68 CA         -0.4325  -33.7894   23.1644 C.3       3 GLC5        0.0000 
     69 CA         -2.1310  -34.5960   23.6900 C.3       9 GLL5        0.0000 
     70 CA          0.9750  -32.4940   22.7570 C.3       6 GLP5        0.0000 
     71 CA         -2.7700  -36.7720   23.5433 C.3       3 GLC5        0.0000 
     72 CA         -2.6605  -37.2015   20.5415 C.3       3 GLC5        0.0000 
     73 CA         -0.9810  -36.5840   22.0090 C.3       9 GLL5        0.0000 
     74 CA         -3.9910  -38.4030   19.3880 C.3       6 GLP5        0.0000 
     75 CA         -2.8350  -36.6915   22.4985 C.3       3 GLC5        0.0000 
     76 CA          0.5865  -38.0388   22.2690 C.3       3 GLC5        0.0000 
     77 CA         -1.7730  -38.6142   22.8810 C.3       3 GLC5        0.0000 
     78 CA         -0.1855  -32.7338   24.2775 C.3       3 GLC5        0.0000 
     79 CA         -2.0340  -33.1170   25.8440 C.3       9 GLL5        0.0000 
     80 CA         -0.6455  -34.6842   26.8425 C.3       3 GLC5        0.0000 
     81 CA         -0.6580  -32.8300   25.7520 C.3       9 GLL5        0.0000 
     82 CA          0.9340  -32.3578   24.7585 C.3       3 GLC5        0.0000 
     83 CA          0.0540  -32.3820   26.8540 C.3       9 GLL5        0.0000 
     84 CA         -0.1065  -34.3420   27.6792 C.3       3 GLC5        0.0000 
     85 CA         -1.1405  -34.5543   27.7662 C.3       3 GLC5        0.0000 
     86 CA         -1.9700  -32.4820   28.2050 C.3       9 GLL5        0.0000 
     87 CA         -5.5488  -36.3105   22.6267 C.3       3 GLC5        0.0000 
     88 CA         -6.5800  -34.6290   22.2090 C.3       9 GLL5        0.0000 
     89 CA         -8.4973  -33.5252   21.7930 C.3       3 GLC5        0.0000 
     90 CA         -6.6210  -35.9038   24.0180 C.3       3 GLC5        0.0000 
     91 CA         -7.4810  -34.0340   23.2930 C.3       9 GLL5        0.0000 
     92 CA         -5.2150  -37.4300   24.5380 C.3       6 GLP5        0.0000 
     93 CA        -10.2275  -34.3830   22.8137 C.3       3 GLC5        0.0000 
     94 CA        -11.7030  -33.3850   22.2160 C.3       6 GLP5        0.0000 
     95 CA         -6.8737  -36.8687   23.5860 C.3       3 GLC5        0.0000 
     96 CA         -8.1340  -36.5740   22.1480 C.3       9 GLL5        0.0000 
     97 CA         -8.7492  -34.4648   21.3780 C.3       3 GLC5        0.0000 
     98 CA         -7.8499  -38.0496   22.0710 C.3       3 GLC5        0.0000 
     99 CA         -6.9350  -35.8470   21.6940 C.3       9 GLL5        0.0000 
    100 CA         -7.9660  -40.0220   21.9780 C.3       6 GLP5        0.0000 
    101 CA         -2.4075  -31.0671   26.4513 C.3       3 GLC5        0.0000 
    102 CA         -3.1630  -29.4850   25.6080 C.3       6 GLP5        0.0000 
@<TRIPOS>BOND
@<TRIPOS>SUBSTRUCTURE
     1 ALC1       52 GROUP        1 X    ALC  0     ROOT ALC X 1
     2 SEC2       37 GROUP        1 X    SEC  0     **** SEC X 2
     3 GLC5        1 GROUP        1 X    GLC  0     **** GLC X 6
     4 ALP1       54 GROUP        1 Y    ALP  0     ROOT ALP Y 8
     5 SEP2       39 GROUP        1 Y    SEP  0     **** SEP Y 9
     6 GLP5        3 GROUP        1 Y    GLP  0     **** GLP Y 13
     7 ALL1       53 GROUP        1 Z    ALL  0     ROOT ALL Z 15
     8 SEL2       38 GROUP        1 Z    SEL  0     **** SEL Z 16
     9 GLL5        2 GROUP        1 Z    GLL  0     **** GLL Z 20
@<TRIPOS>SET

