#    Name: 3dok_GWJ_1_ligand
#    Modification time : Mon Mar 24 23:55:38 2014

@<TRIPOS>MOLECULE
3dok_GWJ_1_ligand
   50    52     1     0     0
SMALL
NO_CHARGES


@<TRIPOS>ATOM
      1 C1         -2.2350  -34.4370   22.1850 C.ar      1 GWJ999      0.0000 
      2 C2         -2.1310  -34.5960   23.6900 C.ar      1 GWJ999      0.0000 
      3 C3         -1.4970  -35.6530   24.2060 C.ar      1 GWJ999      0.0000 
      4 C6         -1.6790  -35.4160   21.3810 C.ar      1 GWJ999      0.0000 
      5 C4         -0.9030  -36.6690   23.3630 C.ar      1 GWJ999      0.0000 
      6 C5         -0.9810  -36.5840   22.0090 C.ar      1 GWJ999      0.0000 
      7 CL         -0.1170  -37.9550   24.1570 Cl        1 GWJ999      0.0000 
      8 C7         -2.7300  -33.6210   24.6110 C.2       1 GWJ999      0.0000 
      9 O1         -3.8350  -33.2000   24.3630 O.2       1 GWJ999      0.0000 
     10 C8         -2.0340  -33.1170   25.8440 C.ar      1 GWJ999      0.0000 
     11 C9         -0.6580  -32.8300   25.7520 C.ar      1 GWJ999      0.0000 
     12 C10         0.0540  -32.3820   26.8540 C.ar      1 GWJ999      0.0000 
     13 C11        -0.5900  -32.1960   28.0890 C.ar      1 GWJ999      0.0000 
     14 C12        -1.9700  -32.4820   28.2050 C.ar      1 GWJ999      0.0000 
     15 C13        -2.7020  -32.9450   27.0860 C.ar      1 GWJ999      0.0000 
     16 CL1         1.7320  -32.0610   26.6660 Cl        1 GWJ999      0.0000 
     17 O2         -2.8750  -33.3300   21.7140 O.3       1 GWJ999      0.0000 
     18 C15        -3.4850  -33.2690   20.3950 C.3       1 GWJ999      0.0000 
     19 C16        -4.8610  -33.8890   20.5500 C.2       1 GWJ999      0.0000 
     20 O3         -5.3550  -34.3100   19.5070 O.2       1 GWJ999      0.0000 
     21 N1         -5.4600  -33.9510   21.7900 N.am      1 GWJ999      0.0000 
     22 C17        -6.5800  -34.6290   22.2090 C.ar      1 GWJ999      0.0000 
     23 C18        -7.4810  -34.0340   23.2930 C.ar      1 GWJ999      0.0000 
     24 C23        -7.1970  -32.7010   23.9470 C.3       1 GWJ999      0.0000 
     25 C19        -8.5730  -34.7210   23.7030 C.ar      1 GWJ999      0.0000 
     26 C20        -8.9310  -36.0410   23.1200 C.ar      1 GWJ999      0.0000 
     27 C21        -8.1340  -36.5740   22.1480 C.ar      1 GWJ999      0.0000 
     28 C22        -6.9350  -35.8470   21.6940 C.ar      1 GWJ999      0.0000 
     29 N3        -11.2280  -37.1870   22.3630 N.pl3     1 GWJ999      0.0000 
     30 S         -10.3630  -36.9160   23.7060 S.o2      1 GWJ999      0.0000 
     31 O4        -11.1390  -36.0560   24.5920 O.2       1 GWJ999      0.0000 
     32 O5         -9.9490  -38.1320   24.3660 O.2       1 GWJ999      0.0000 
     33 C26        -2.6110  -32.2910   29.4590 C.1       1 GWJ999      0.0000 
     34 N2         -3.1120  -32.1290   30.4790 N.1       1 GWJ999      0.0000 
     35 H          -1.4021  -35.7928   25.2329 H         1 GWJ999      0.0000 
     36 H          -1.7160  -35.3904   20.3716 H         1 GWJ999      0.0000 
     37 H          -0.5905  -37.2724   21.3749 H         1 GWJ999      0.0000 
     38 H          -0.1806  -32.9585   24.8446 H         1 GWJ999      0.0000 
     39 H          -0.0703  -31.8579   28.8970 H         1 GWJ999      0.0000 
     40 H          -3.6907  -33.1521   27.1670 H         1 GWJ999      0.0000 
     41 H          -2.9242  -33.8433   19.6761 H         1 GWJ999      0.0000 
     42 H          -3.5984  -32.2506   20.0616 H         1 GWJ999      0.0000 
     43 H          -4.9550  -33.3565   22.5770 H         1 GWJ999      0.0000 
     44 H          -9.2091  -34.3677   24.4356 H         1 GWJ999      0.0000 
     45 H          -8.3274  -37.4731   21.7056 H         1 GWJ999      0.0000 
     46 H          -6.3710  -36.3096   20.9593 H         1 GWJ999      0.0000 
     47 H          -6.3104  -32.6956   24.4095 H         1 GWJ999      0.0000 
     48 H          -7.1845  -31.9555   23.2806 H         1 GWJ999      0.0000 
     49 H          -7.8868  -32.4694   24.6329 H         1 GWJ999      0.0000 
     50 H         -10.6610  -37.7963   21.8087 H         1 GWJ999      0.0000 
@<TRIPOS>BOND
     1    2    1 ar   
     2    4    1 ar   
     3   17    1 1    
     4    3    2 ar   
     5    8    2 1    
     6    5    3 ar   
     7   35    3 1    
     8    6    4 ar   
     9   36    4 1    
    10    6    5 ar   
    11    7    5 1    
    12   37    6 1    
    13    9    8 2    
    14   10    8 1    
    15   11   10 ar   
    16   15   10 ar   
    17   12   11 ar   
    18   38   11 1    
    19   13   12 ar   
    20   16   12 1    
    21   14   13 ar   
    22   39   13 1    
    23   15   14 ar   
    24   33   14 1    
    25   40   15 1    
    26   18   17 1    
    27   19   18 1    
    28   41   18 1    
    29   42   18 1    
    30   20   19 2    
    31   21   19 am   
    32   22   21 1    
    33   43   21 1    
    34   23   22 ar   
    35   28   22 ar   
    36   24   23 1    
    37   25   23 ar   
    38   47   24 1    
    39   48   24 1    
    40   49   24 1    
    41   26   25 ar   
    42   44   25 1    
    43   27   26 ar   
    44   30   26 1    
    45   28   27 ar   
    46   45   27 1    
    47   46   28 1    
    48   30   29 1    
    49   50   29 1    
    50   31   30 2    
    51   32   30 2    
    52   34   33 3    
@<TRIPOS>SUBSTRUCTURE
     1 GWJ999      1 GROUP   
@<TRIPOS>SET

