#    Name: 1n71_COA_4_INTS_M
#    Modification time : Mon Mar 24 17:46:49 2014

@<TRIPOS>MOLECULE
1n71_COA_4_INTS_M
   72     0     6     0     0
SMALL
NO_CHARGES


@<TRIPOS>ATOM
      1 CA         33.7895   72.5720   68.8270 C.3       2 GLC5        0.0000 
      2 CA         34.1050   70.7690   68.0870 C.3       6 GLL5        0.0000 
      3 CA         33.4740   74.3750   69.5670 C.3       4 GLP5        0.0000 
      4 CA         33.1415   69.3475   67.5385 C.3       2 GLC5        0.0000 
      5 CA         32.1780   67.9260   66.9900 C.3       4 GLP5        0.0000 
      6 CA         34.0395   72.6910   69.9690 C.3       2 GLC5        0.0000 
      7 CA         34.6050   71.0070   70.3710 C.3       6 GLL5        0.0000 
      8 CA         33.6065   69.5690   71.4310 C.3       2 GLC5        0.0000 
      9 CA         32.6080   68.1310   72.4910 C.3       4 GLP5        0.0000 
     10 CA         38.4925   67.9890   69.0175 C.3       2 GLC5        0.0000 
     11 CA         38.2950   69.5990   67.4840 C.3       6 GLL5        0.0000 
     12 CA         38.6900   66.3790   70.5510 C.3       4 GLP5        0.0000 
     13 CA         37.8305   68.4580   65.7925 C.3       2 GLC5        0.0000 
     14 CA         37.3660   67.3170   64.1010 C.3       4 GLP5        0.0000 
     15 CA         39.4995   67.3700   68.7605 C.3       2 GLC5        0.0000 
     16 CA         40.3090   68.3610   66.9700 C.3       6 GLL5        0.0000 
     17 CA         40.6320   66.9085   69.5115 C.3       2 GLC5        0.0000 
     18 CA         41.4010   68.0270   67.9950 C.3       6 GLL5        0.0000 
     19 CA         39.8630   65.7900   71.0280 C.3       4 GLP5        0.0000 
     20 N          43.2970   66.2285   71.1190 N.am      1 SEC2        0.0000 
     21 N          42.9500   67.4920   70.4210 N.am      5 SEL2        0.0000 
     22 N          43.6440   64.9650   71.8170 N.am      3 SEP2        0.0000 
     23 N          43.0545   66.4165   69.6615 N.am      1 SEC2        0.0000 
     24 N          43.1590   65.3410   68.9020 N.am      3 SEP2        0.0000 
     25 N          44.5465   69.9400   70.3730 N.am      1 SEC2        0.0000 
     26 N          43.1520   70.0460   70.3200 N.am      5 SEL2        0.0000 
     27 N          45.9410   69.8340   70.4260 N.am      3 SEP2        0.0000 
     28 N          41.9480   71.9960   72.7995 N.am      1 SEC2        0.0000 
     29 N          41.0780   70.9130   73.1550 N.am      5 SEL2        0.0000 
     30 N          42.8180   73.0790   72.4440 N.am      3 SEP2        0.0000 
     31 N          43.5840   67.9940   73.6760 N.am      1 SEC2        0.0000 
     32 N          43.0190   69.2470   73.4320 N.am      5 SEL2        0.0000 
     33 N          44.1490   66.7410   73.9200 N.am      3 SEP2        0.0000 
     34 CA         39.5810   67.0850   72.3550 C.3       2 GLC5        0.0000 
     35 CA         39.2990   68.3800   73.6820 C.3       6 GLL5        0.0000 
     36 CA         35.0210   68.1475   74.2065 C.3       2 GLC5        0.0000 
     37 CA         36.9510   68.3980   74.4900 C.3       6 GLL5        0.0000 
     38 CA         33.0910   67.8970   73.9230 C.3       4 GLP5        0.0000 
     39 CA         37.1765   66.7135   73.2715 C.3       2 GLC5        0.0000 
     40 CA         37.4020   65.0290   72.0530 C.3       4 GLP5        0.0000 
     41 CA         38.8535   65.3755   75.9305 C.3       2 GLC5        0.0000 
     42 CA         38.7140   67.1720   75.8020 C.3       6 GLL5        0.0000 
     43 CA         38.9930   63.5790   76.0590 C.3       4 GLP5        0.0000 
     44 CA         40.6955   67.5605   76.5865 C.3       2 GLC5        0.0000 
     45 CA         42.6770   67.9490   77.3710 C.3       4 GLP5        0.0000 
     46 CA         38.6380   65.8040   74.1685 C.3       2 GLC5        0.0000 
     47 CA         38.5620   64.4360   72.5350 C.3       4 GLP5        0.0000 
     48 CA         40.5820   69.5380   76.8605 C.3       2 GLC5        0.0000 
     49 CA         38.7440   69.7530   75.7460 C.3       6 GLL5        0.0000 
     50 CA         42.4200   69.3230   77.9750 C.3       4 GLP5        0.0000 
     51 CA         39.2730   71.4885   76.3355 C.3       2 GLC5        0.0000 
     52 CA         39.8020   73.2240   76.9250 C.3       4 GLP5        0.0000 
     53 N          40.0615   69.0570   79.0865 N.am      1 SEC2        0.0000 
     54 N          38.8460   69.6250   78.1590 N.am      5 SEL2        0.0000 
     55 N          41.2770   68.4890   80.0140 N.am      3 SEP2        0.0000 
     56 CA         35.4755   68.0295   80.6640 C.3       2 GLC5        0.0000 
     57 CA         35.8170   68.5620   79.0530 C.3       6 GLL5        0.0000 
     58 CA         35.1340   67.4970   82.2750 C.3       4 GLP5        0.0000 
     59 CA         33.5810   66.7295   75.6565 C.3       2 GLC5        0.0000 
     60 CA         34.0710   65.5620   77.3900 C.3       6 GLL5        0.0000 
     61 CA         34.1160   64.4615   75.7405 C.3       2 GLC5        0.0000 
     62 CA         34.1610   63.3610   74.0910 C.3       4 GLP5        0.0000 
     63 CA         34.5920   63.5460   76.4185 C.3       2 GLC5        0.0000 
     64 CA         33.8770   64.2850   78.2010 C.3       6 GLL5        0.0000 
     65 CA         35.3070   62.8070   74.6360 C.3       4 GLP5        0.0000 
     66 CA         30.8675   63.7460   76.9640 C.3       2 GLC5        0.0000 
     67 CA         32.1570   63.7440   78.3390 C.3       6 GLL5        0.0000 
     68 CA         29.5780   63.7480   75.5890 C.3       4 GLP5        0.0000 
     69 CA         36.1337   68.5478   69.9762 C.3       2 GLC5        0.0000 
     70 CA         35.9490   70.6140   70.0660 C.3       6 GLL5        0.0000 
     71 CA         36.1860   66.6250   70.5480 C.3       4 GLP5        0.0000 
     72 CA         38.8675   68.1850   65.3717 C.3       2 GLC5        0.0000 
@<TRIPOS>BOND
@<TRIPOS>SUBSTRUCTURE
     1 SEC2       20 GROUP        1 X    SEC  0     ROOT SEC X 2
     2 GLC5        1 GROUP        1 X    GLC  0     **** GLC X 6
     3 SEP2       22 GROUP        1 Y    SEP  0     ROOT SEP Y 9
     4 GLP5        3 GROUP        1 Y    GLP  0     **** GLP Y 13
     5 SEL2       21 GROUP        1 Z    SEL  0     ROOT SEL Z 16
     6 GLL5        2 GROUP        1 Z    GLL  0     **** GLL Z 20
@<TRIPOS>SET

