#    Name: 1n71_COA_4_ligand
#    Modification time : Mon Mar 24 17:46:49 2014

@<TRIPOS>MOLECULE
1n71_COA_4_ligand
   79    81     1     0     0
SMALL
NO_CHARGES


@<TRIPOS>ATOM
      1 N1A        33.7060   71.0770   69.3380 N.ar      1 COA604      0.0000 
      2 C2A        34.1050   70.7690   68.0870 C.ar      1 COA604      0.0000 
      3 N3A        35.3300   70.3870   67.6820 N.ar      1 COA604      0.0000 
      4 C4A        36.2140   70.3270   68.7430 C.ar      1 COA604      0.0000 
      5 C5A        35.9490   70.6140   70.0660 C.ar      1 COA604      0.0000 
      6 C6A        34.6050   71.0070   70.3710 C.ar      1 COA604      0.0000 
      7 N6A        34.2130   71.3110   71.6060 N.pl3     1 COA604      0.0000 
      8 N7A        37.0810   70.4410   70.8450 N.2       1 COA604      0.0000 
      9 C8A        37.9920   70.0710   69.9890 C.2       1 COA604      0.0000 
     10 N9A        37.5440   69.9790   68.6930 N.pl3     1 COA604      0.0000 
     11 C1B        38.2950   69.5990   67.4840 C.3       1 COA604      0.0000 
     12 C2B        39.4480   70.5540   67.1640 C.3       1 COA604      0.0000 
     13 O2B        38.9430   71.6480   66.3930 O.3       1 COA604      0.0000 
     14 C3B        40.4290   69.7450   66.3150 C.3       1 COA604      0.0000 
     15 O3B        39.8890   69.6480   64.9860 O.3       1 COA604      0.0000 
     16 P3B        40.8440   69.6970   63.6830 P.3       1 COA604      0.0000 
     17 O7A        41.6700   70.9170   63.8810 O.co2     1 COA604      0.0000 
     18 O8A        39.8880   69.7800   62.5530 O.co2     1 COA604      0.0000 
     19 O9A        41.6090   68.4270   63.7440 O.co2     1 COA604      0.0000 
     20 C4B        40.3090   68.3610   66.9700 C.3       1 COA604      0.0000 
     21 O4B        39.0010   68.3610   67.5640 O.3       1 COA604      0.0000 
     22 C5B        41.4010   68.0270   67.9950 C.3       1 COA604      0.0000 
     23 O5B        41.2740   68.8700   69.1440 O.3       1 COA604      0.0000 
     24 P1A        42.3130   68.8260   70.3730 P.3       1 COA604      0.0000 
     25 O1A        42.9500   67.4920   70.4210 O.co2     1 COA604      0.0000 
     26 O2A        43.1520   70.0460   70.3200 O.co2     1 COA604      0.0000 
     27 O3A        41.2950   68.9390   71.6200 O.3       1 COA604      0.0000 
     28 P2A        41.6080   69.5290   73.0880 P.3       1 COA604      0.0000 
     29 O4A        41.0780   70.9130   73.1550 O.co2     1 COA604      0.0000 
     30 O5A        43.0190   69.2470   73.4320 O.co2     1 COA604      0.0000 
     31 O6A        40.6790   68.5960   74.0150 O.3       1 COA604      0.0000 
     32 CBP        38.4160   68.4210   74.9370 C.3       1 COA604      0.0000 
     33 CCP        39.2990   68.3800   73.6820 C.3       1 COA604      0.0000 
     34 CDP        36.9510   68.3980   74.4900 C.3       1 COA604      0.0000 
     35 CEP        38.7140   67.1720   75.8020 C.3       1 COA604      0.0000 
     36 CAP        38.7440   69.7530   75.7460 C.3       1 COA604      0.0000 
     37 OAP        38.4010   70.9150   74.9820 O.3       1 COA604      0.0000 
     38 C9P        38.1260   69.7670   77.1610 C.2       1 COA604      0.0000 
     39 O9P        38.8460   69.6250   78.1590 O.2       1 COA604      0.0000 
     40 N8P        36.8010   69.9270   77.2310 N.am      1 COA604      0.0000 
     41 C7P        36.0190   69.9580   78.4610 C.3       1 COA604      0.0000 
     42 C6P        35.8170   68.5620   79.0530 C.3       1 COA604      0.0000 
     43 C5P        34.7060   67.7700   78.3850 C.2       1 COA604      0.0000 
     44 O5P        33.6020   68.2870   78.1850 O.2       1 COA604      0.0000 
     45 N4P        35.0000   66.5040   78.0430 N.am      1 COA604      0.0000 
     46 C3P        34.0710   65.5620   77.3900 C.3       1 COA604      0.0000 
     47 C2P        33.8770   64.2850   78.2010 C.3       1 COA604      0.0000 
     48 S1P        32.1570   63.7440   78.3390 S.3       1 COA604      0.0000 
     49 H          33.3375   70.8387   67.3064 H         1 COA604      0.0000 
     50 H          33.9105   72.2529   71.7523 H         1 COA604      0.0000 
     51 H          34.2562   70.5701   72.2763 H         1 COA604      0.0000 
     52 H          38.9503   69.8624   70.2206 H         1 COA604      0.0000 
     53 H          37.6605   69.5964   66.6035 H         1 COA604      0.0000 
     54 H          39.9144   70.8431   68.0554 H         1 COA604      0.0000 
     55 H          41.3656   70.1027   66.4011 H         1 COA604      0.0000 
     56 H          40.3367   67.6239   66.1669 H         1 COA604      0.0000 
     57 H          42.3713   68.1572   67.5001 H         1 COA604      0.0000 
     58 H          41.2982   66.9663   68.2553 H         1 COA604      0.0000 
     59 H          39.1477   67.4024   73.2012 H         1 COA604      0.0000 
     60 H          38.9259   69.1475   72.9882 H         1 COA604      0.0000 
     61 H          39.8564   69.7270   75.8898 H         1 COA604      0.0000 
     62 H          36.2263   70.0455   76.3416 H         1 COA604      0.0000 
     63 H          35.0241   70.3979   78.2815 H         1 COA604      0.0000 
     64 H          36.5135   70.5820   79.2237 H         1 COA604      0.0000 
     65 H          35.5949   68.6615   80.1278 H         1 COA604      0.0000 
     66 H          36.7620   68.0013   78.9693 H         1 COA604      0.0000 
     67 H          35.9624   66.1017   78.2361 H         1 COA604      0.0000 
     68 H          34.4463   65.2849   76.3924 H         1 COA604      0.0000 
     69 H          33.0864   66.0339   77.2466 H         1 COA604      0.0000 
     70 H          34.1709   64.3863   79.2362 H         1 COA604      0.0000 
     71 H          34.3560   63.4215   77.7614 H         1 COA604      0.0000 
     72 H          36.7283   69.1794   73.9071 H         1 COA604      0.0000 
     73 H          36.7346   67.5724   73.9688 H         1 COA604      0.0000 
     74 H          36.3246   68.4254   75.2690 H         1 COA604      0.0000 
     75 H          39.6728   67.1356   76.0838 H         1 COA604      0.0000 
     76 H          38.1626   67.1577   76.6361 H         1 COA604      0.0000 
     77 H          38.5211   66.3239   75.3086 H         1 COA604      0.0000 
     78 H          38.6671   71.2442   65.5208 H         1 COA604      0.0000 
     79 H          39.1486   71.0238   74.3268 H         1 COA604      0.0000 
@<TRIPOS>BOND
     1    2    1 ar   
     2    6    1 ar   
     3    3    2 ar   
     4   49    2 1    
     5    4    3 ar   
     6    5    4 ar   
     7   10    4 1    
     8    6    5 ar   
     9    8    5 1    
    10    7    6 1    
    11   50    7 1    
    12   51    7 1    
    13    9    8 2    
    14   10    9 1    
    15   52    9 1    
    16   11   10 1    
    17   12   11 1    
    18   21   11 1    
    19   53   11 1    
    20   13   12 1    
    21   14   12 1    
    22   54   12 1    
    23   78   13 1    
    24   15   14 1    
    25   20   14 1    
    26   55   14 1    
    27   16   15 1    
    28   17   16 ar   
    29   18   16 ar   
    30   19   16 ar   
    31   21   20 1    
    32   22   20 1    
    33   56   20 1    
    34   23   22 1    
    35   57   22 1    
    36   58   22 1    
    37   24   23 1    
    38   25   24 ar   
    39   26   24 ar   
    40   27   24 1    
    41   28   27 1    
    42   29   28 ar   
    43   30   28 ar   
    44   31   28 1    
    45   33   31 1    
    46   33   32 1    
    47   34   32 1    
    48   35   32 1    
    49   36   32 1    
    50   59   33 1    
    51   60   33 1    
    52   72   34 1    
    53   73   34 1    
    54   74   34 1    
    55   75   35 1    
    56   76   35 1    
    57   77   35 1    
    58   37   36 1    
    59   38   36 1    
    60   61   36 1    
    61   79   37 1    
    62   39   38 2    
    63   40   38 am   
    64   41   40 1    
    65   62   40 1    
    66   42   41 1    
    67   63   41 1    
    68   64   41 1    
    69   43   42 1    
    70   65   42 1    
    71   66   42 1    
    72   44   43 2    
    73   45   43 am   
    74   46   45 1    
    75   67   45 1    
    76   47   46 1    
    77   68   46 1    
    78   69   46 1    
    79   48   47 1    
    80   70   47 1    
    81   71   47 1    
@<TRIPOS>SUBSTRUCTURE
     1 COA604      1 GROUP   
@<TRIPOS>SET

