#    Name: 4bzr_K26_1_INTS_M
#    Modification time : Tue Mar 25 08:36:03 2014

@<TRIPOS>MOLECULE
4bzr_K26_1_INTS_M
   71     0    12     0     0
SMALL
NO_CHARGES


@<TRIPOS>ATOM
      1 CA         -9.0165   -4.6925   17.5520 C.3       4 GLC5        0.0000 
      2 CA        -10.2520   -5.2610   16.3360 C.3      12 GLL5        0.0000 
      3 CA         -7.7810   -4.1240   18.7680 C.3       8 GLP5        0.0000 
      4 CA         -8.6720   -6.0410   16.8470 C.3       4 GLC5        0.0000 
      5 CA        -10.7370   -6.5410   16.6310 C.3      12 GLL5        0.0000 
      6 CA         -6.6070   -5.5410   17.0630 C.3       8 GLP5        0.0000 
      7 CA        -11.4875   -8.7845   18.3500 C.3       4 GLC5        0.0000 
      8 CA        -11.5300   -6.7850   17.9270 C.3      12 GLL5        0.0000 
      9 CA        -11.4450  -10.7840   18.7730 C.3       8 GLP5        0.0000 
     10 CA         -9.7920   -8.1690   17.7170 C.3       4 GLC5        0.0000 
     11 CA         -8.0540   -9.5530   17.5070 C.3       8 GLP5        0.0000 
     12 CA        -14.0460   -7.5210   16.2485 C.3       4 GLC5        0.0000 
     13 CA        -13.0230   -6.4420   17.7690 C.3      12 GLL5        0.0000 
     14 CA        -15.0690   -8.6000   14.7280 C.3       8 GLP5        0.0000 
     15 Zn        -15.5345   -5.4120   19.5715 Zn        3 ZIC7        0.0000 
     16 Zn        -15.4730   -6.3730   18.9790 Zn       11 ZIL7        0.0000 
     17 Zn        -15.5960   -4.4510   20.1640 Zn        7 ZIP7        0.0000 
     18 N         -16.2730   -7.3015   18.8580 N.am      2 SEC2        0.0000 
     19 N         -15.4730   -6.3730   18.9790 N.am     10 SEL2        0.0000 
     20 N         -17.0730   -8.2300   18.7370 N.am      6 SEP2        0.0000 
     21 N         -12.5605   -9.2290   20.0005 N.am      2 SEC2        0.0000 
     22 N         -13.7510   -8.0480   19.9080 N.am     10 SEL2        0.0000 
     23 N         -11.3700  -10.4100   20.0930 N.am      6 SEP2        0.0000 
     24 N         -12.8190   -8.0635   20.8470 N.am      2 SEC2        0.0000 
     25 N         -11.8870   -8.0790   21.7860 N.am      6 SEP2        0.0000 
     26 Zn        -14.5450   -4.9550   20.2150 Zn        3 ZIC7        0.0000 
     27 Zn        -13.4940   -5.4590   20.2660 Zn       11 ZIL7        0.0000 
     28 N         -12.3500   -5.1415   20.7375 N.am      2 SEC2        0.0000 
     29 N         -13.4940   -5.4590   20.2660 N.am     10 SEL2        0.0000 
     30 N         -11.2060   -4.8240   21.2090 N.am      6 SEP2        0.0000 
     31 N         -12.6905   -6.7690   21.0260 N.am      2 SEC2        0.0000 
     32 O         -12.2945   -4.0575   18.0985 O.2       1 ALC1        0.0000 
     33 O         -13.0810   -5.0740   17.2480 O.2       9 ALL1        0.0000 
     34 O         -11.5080   -3.0410   18.9490 O.2       5 ALP1        0.0000 
     35 N         -15.3090   -6.1900   14.6140 N.am      2 SEC2        0.0000 
     36 N         -14.2510   -5.6030   15.3940 N.am     10 SEL2        0.0000 
     37 N         -16.3670   -6.7770   13.8340 N.am      6 SEP2        0.0000 
     38 O         -14.6075   -3.9860   13.2185 O.2       1 ALC1        0.0000 
     39 O         -13.4980   -3.4270   14.1420 O.2       9 ALL1        0.0000 
     40 O         -15.7170   -4.5450   12.2950 O.2       5 ALP1        0.0000 
     41 CA        -12.8095   -6.9835   12.9160 C.3       4 GLC5        0.0000 
     42 CA        -11.8710   -5.4840   11.8770 C.3      12 GLL5        0.0000 
     43 CA        -13.7480   -8.4830   13.9550 C.3       8 GLP5        0.0000 
     44 CA        -12.5590   -6.8065   10.6580 C.3       4 GLC5        0.0000 
     45 CA        -13.2470   -8.1290    9.4390 C.3       8 GLP5        0.0000 
     46 CA        -12.2770   -5.3810    8.6720 C.3       4 GLC5        0.0000 
     47 CA        -11.3470   -4.0210    9.9000 C.3      12 GLL5        0.0000 
     48 CA        -13.2070   -6.7410    7.4440 C.3       8 GLP5        0.0000 
     49 CA        -11.0135   -6.0380    8.3455 C.3       4 GLC5        0.0000 
     50 CA        -10.0920   -4.8140    9.5220 C.3      12 GLL5        0.0000 
     51 CA        -11.9350   -7.2620    7.1690 C.3       8 GLP5        0.0000 
     52 CA        -15.2770   -0.0820    9.1500 C.3       4 GLC5        0.0000 
     53 CA        -13.3460   -0.0030    9.7330 C.3      12 GLL5        0.0000 
     54 CA        -17.2080   -0.1610    8.5670 C.3       8 GLP5        0.0000 
     55 CA        -12.9565    0.6225    8.0075 C.3       4 GLC5        0.0000 
     56 CA        -12.5670    1.2480    6.2820 C.3       8 GLP5        0.0000 
     57 N         -15.5430   -2.3850    9.2250 N.am      2 SEC2        0.0000 
     58 N         -14.3160   -2.1990    9.8310 N.am     10 SEL2        0.0000 
     59 N         -16.7700   -2.5710    8.6190 N.am      6 SEP2        0.0000 
     60 CA         -8.0770   -5.7123   15.9229 C.3       4 GLC5        0.0000 
     61 CA         -9.5410   -5.0350   15.1530 C.3      12 GLL5        0.0000 
     62 CA        -12.0968   -7.7471   14.9216 C.3       4 GLC5        0.0000 
     63 CA        -16.3092   -2.2690   16.5838 C.3       4 GLC5        0.0000 
     64 CA        -14.6450   -2.4590   16.1110 C.3      12 GLL5        0.0000 
     65 CA        -18.1330   -2.8080   17.2270 C.3       8 GLP5        0.0000 
     66 CA        -15.2673    1.1594   16.8231 C.3       4 GLC5        0.0000 
     67 CA        -13.3890    1.1440   16.3710 C.3      12 GLL5        0.0000 
     68 CA        -16.8390    2.0430   17.3430 C.3       8 GLP5        0.0000 
     69 CA        -15.5297    1.6196   15.4337 C.3       4 GLC5        0.0000 
     70 CA        -13.7480    1.6430   15.1150 C.3      12 GLL5        0.0000 
     71 CA        -16.6860    2.8700   16.2830 C.3       8 GLP5        0.0000 
@<TRIPOS>BOND
@<TRIPOS>SUBSTRUCTURE
     1 ALC1       32 GROUP        1 X    ALC  0     ROOT ALC X 1
     2 SEC2       18 GROUP        1 X    SEC  0     **** SEC X 2
     3 ZIC7       15 GROUP        1 X    ZIC  0     **** ZIC X 5
     4 GLC5        1 GROUP        1 X    GLC  0     **** GLC X 6
     5 ALP1       34 GROUP        1 Y    ALP  0     ROOT ALP Y 8
     6 SEP2       20 GROUP        1 Y    SEP  0     **** SEP Y 9
     7 ZIP7       17 GROUP        1 Y    ZIP  0     **** ZIP Y 12
     8 GLP5        3 GROUP        1 Y    GLP  0     **** GLP Y 13
     9 ALL1       33 GROUP        1 Z    ALL  0     ROOT ALL Z 15
    10 SEL2       19 GROUP        1 Z    SEL  0     **** SEL Z 16
    11 ZIL7       16 GROUP        1 Z    ZIL  0     **** ZIL Z 19
    12 GLL5        2 GROUP        1 Z    GLL  0     **** GLL Z 20
@<TRIPOS>SET

