#    Name: 4bzr_K26_1_ligand
#    Modification time : Tue Mar 25 08:36:03 2014

@<TRIPOS>MOLECULE
4bzr_K26_1_ligand
   69    70     1     0     0
SMALL
NO_CHARGES


@<TRIPOS>ATOM
      1 CAR       -10.5120   -7.5920   15.7370 C.ar      1 K261627     0.0000 
      2 CAN        -9.7960   -7.3710   14.5540 C.ar      1 K261627     0.0000 
      3 CBD        -9.3100   -6.0930   14.2710 C.ar      1 K261627     0.0000 
      4 OAI        -8.6110   -5.8630   13.1260 O.3       1 K261627     0.0000 
      5 CAO        -9.5410   -5.0350   15.1530 C.ar      1 K261627     0.0000 
      6 CAS       -10.2520   -5.2610   16.3360 C.ar      1 K261627     0.0000 
      7 CBF       -10.7370   -6.5410   16.6310 C.ar      1 K261627     0.0000 
      8 CAV       -11.5300   -6.7850   17.9270 C.3       1 K261627     0.0000 
      9 CBI       -13.0230   -6.4420   17.7690 C.3       1 K261627     0.0000 
     10 PBK       -13.9100   -6.5420   19.3610 P.3       1 K261627     0.0000 
     11 OAJ       -15.4730   -6.3730   18.9790 O.co2     1 K261627     0.0000 
     12 OAK       -13.7510   -8.0480   19.9080 O.co2     1 K261627     0.0000 
     13 OAG       -13.4940   -5.4590   20.2660 O.co2     1 K261627     0.0000 
     14 NAY       -13.0810   -5.0740   17.2480 N.am      1 K261627     0.0000 
     15 C         -13.6580   -4.7880   16.0910 C.2       1 K261627     0.0000 
     16 O         -14.2510   -5.6030   15.3940 O.2       1 K261627     0.0000 
     17 CA        -13.5110   -3.3540   15.6160 C.3       1 K261627     0.0000 
     18 N         -13.4980   -3.4270   14.1420 N.am      1 K261627     0.0000 
     19 CBB       -12.5340   -2.8760   13.4160 C.2       1 K261627     0.0000 
     20 OAF       -11.6200   -2.1960   13.8830 O.2       1 K261627     0.0000 
     21 CBJ       -12.6600   -3.0870   11.9000 C.3       1 K261627     0.0000 
     22 CBG       -11.5600   -4.0480   11.4190 C.3       1 K261627     0.0000 
     23 CAC       -11.8710   -5.4840   11.8770 C.3       1 K261627     0.0000 
     24 CAT       -11.3470   -4.0210    9.9000 C.3       1 K261627     0.0000 
     25 CAA       -10.0920   -4.8140    9.5220 C.3       1 K261627     0.0000 
     26 NAX       -12.6150   -1.7610   11.2430 N.am      1 K261627     0.0000 
     27 CAZ       -13.4730   -1.4290   10.2810 C.2       1 K261627     0.0000 
     28 CAB       -13.3460   -0.0030    9.7330 C.3       1 K261627     0.0000 
     29 OAD       -14.3160   -2.1990    9.8310 O.2       1 K261627     0.0000 
     30 CB        -14.6450   -2.4590   16.1110 C.3       1 K261627     0.0000 
     31 CG        -14.3260   -1.0010   15.7700 C.ar      1 K261627     0.0000 
     32 CD1       -13.6780   -0.1840   16.7010 C.ar      1 K261627     0.0000 
     33 CE1       -13.3890    1.1440   16.3710 C.ar      1 K261627     0.0000 
     34 CZ        -13.7480    1.6430   15.1150 C.ar      1 K261627     0.0000 
     35 OH        -13.4750    2.9380   14.7800 O.3       1 K261627     0.0000 
     36 CE2       -14.3880    0.8260   14.1890 C.ar      1 K261627     0.0000 
     37 CD2       -14.6790   -0.4960   14.5170 C.ar      1 K261627     0.0000 
     38 H         -10.8729   -8.5303   15.9478 H         1 K261627     0.0000 
     39 H          -9.6311   -8.1420   13.9026 H         1 K261627     0.0000 
     40 H          -9.1916   -4.0974   14.9352 H         1 K261627     0.0000 
     41 H         -10.4190   -4.4876   16.9896 H         1 K261627     0.0000 
     42 H         -11.1066   -6.1713   18.7250 H         1 K261627     0.0000 
     43 H         -11.4344   -7.8352   18.2111 H         1 K261627     0.0000 
     44 H         -13.5171   -7.1407   17.1658 H         1 K261627     0.0000 
     45 H         -12.6380   -4.3469   17.8502 H         1 K261627     0.0000 
     46 H         -12.5698   -2.9740   15.9641 H         1 K261627     0.0000 
     47 H         -14.2990   -3.9413   13.7177 H         1 K261627     0.0000 
     48 H         -13.6249   -3.5536   11.7224 H         1 K261627     0.0000 
     49 H         -10.6196   -3.7549   11.8989 H         1 K261627     0.0000 
     50 H         -11.2332   -2.9917    9.5733 H         1 K261627     0.0000 
     51 H         -12.2106   -4.4607    9.4101 H         1 K261627     0.0000 
     52 H         -11.8744   -1.1211   11.5855 H         1 K261627     0.0000 
     53 H         -14.7441   -2.5623   17.1837 H         1 K261627     0.0000 
     54 H         -15.5690   -2.7461   15.6262 H         1 K261627     0.0000 
     55 H         -13.4168   -0.5547   17.6177 H         1 K261627     0.0000 
     56 H         -12.9153    1.7498   17.0480 H         1 K261627     0.0000 
     57 H         -14.6454    1.1953   13.2666 H         1 K261627     0.0000 
     58 H         -15.1544   -1.1021   13.8366 H         1 K261627     0.0000 
     59 H         -11.1712   -6.1305   11.5731 H         1 K261627     0.0000 
     60 H         -11.9213   -5.5534   12.8733 H         1 K261627     0.0000 
     61 H         -12.7456   -5.8077   11.5161 H         1 K261627     0.0000 
     62 H          -9.2718   -4.4394    9.9543 H         1 K261627     0.0000 
     63 H         -10.1595   -5.7716    9.8019 H         1 K261627     0.0000 
     64 H          -9.9320   -4.8077    8.5349 H         1 K261627     0.0000 
     65 H         -12.4427    0.1639    9.3379 H         1 K261627     0.0000 
     66 H         -14.0181    0.1804    9.0157 H         1 K261627     0.0000 
     67 H         -13.4849    0.6831   10.4472 H         1 K261627     0.0000 
     68 H          -8.1554   -4.9850   13.2730 H         1 K261627     0.0000 
     69 H         -13.4785    2.9528   13.7801 H         1 K261627     0.0000 
@<TRIPOS>BOND
     1    2    1 ar   
     2    7    1 ar   
     3   38    1 1    
     4    3    2 ar   
     5   39    2 1    
     6    4    3 1    
     7    5    3 ar   
     8   68    4 1    
     9    6    5 ar   
    10   40    5 1    
    11    7    6 ar   
    12   41    6 1    
    13    8    7 1    
    14    9    8 1    
    15   42    8 1    
    16   43    8 1    
    17   10    9 1    
    18   14    9 1    
    19   44    9 1    
    20   11   10 ar   
    21   12   10 ar   
    22   13   10 ar   
    23   15   14 am   
    24   45   14 1    
    25   16   15 2    
    26   17   15 1    
    27   18   17 1    
    28   30   17 1    
    29   46   17 1    
    30   19   18 am   
    31   47   18 1    
    32   20   19 2    
    33   21   19 1    
    34   22   21 1    
    35   26   21 1    
    36   48   21 1    
    37   23   22 1    
    38   24   22 1    
    39   49   22 1    
    40   59   23 1    
    41   60   23 1    
    42   61   23 1    
    43   25   24 1    
    44   50   24 1    
    45   51   24 1    
    46   62   25 1    
    47   63   25 1    
    48   64   25 1    
    49   27   26 am   
    50   52   26 1    
    51   28   27 1    
    52   29   27 2    
    53   65   28 1    
    54   66   28 1    
    55   67   28 1    
    56   31   30 1    
    57   53   30 1    
    58   54   30 1    
    59   32   31 ar   
    60   37   31 ar   
    61   33   32 ar   
    62   55   32 1    
    63   34   33 ar   
    64   56   33 1    
    65   35   34 1    
    66   36   34 ar   
    67   69   35 1    
    68   37   36 ar   
    69   57   36 1    
    70   58   37 1    
@<TRIPOS>SUBSTRUCTURE
     1 K261627     1 GROUP   
@<TRIPOS>SET

