#    Name: 4b13_X25_1_INTS_M
#    Modification time : Tue Mar 25 06:30:13 2014

@<TRIPOS>MOLECULE
4b13_X25_1_INTS_M
   62     0     6     0     0
SMALL
NO_CHARGES


@<TRIPOS>ATOM
      1 CA         25.6270   50.0535   66.0625 C.3       2 GLC5        0.0000 
      2 CA         24.9720   48.5080   64.8100 C.3       6 GLL5        0.0000 
      3 CA         26.2820   51.5990   67.3150 C.3       4 GLP5        0.0000 
      4 CA         25.1875   48.4885   67.0330 C.3       2 GLC5        0.0000 
      5 CA         25.4030   48.4690   69.2560 C.3       4 GLP5        0.0000 
      6 CA         25.0930   43.3310   64.8655 C.3       2 GLC5        0.0000 
      7 CA         25.1840   42.2010   63.7330 C.3       6 GLL5        0.0000 
      8 CA         25.0020   44.4610   65.9980 C.3       4 GLP5        0.0000 
      9 CA         25.2330   41.5990   61.7110 C.3       2 GLC5        0.0000 
     10 CA         25.2820   40.9970   59.6890 C.3       4 GLP5        0.0000 
     11 CA         23.3195   38.1780   63.0830 C.3       2 GLC5        0.0000 
     12 CA         23.4180   39.8400   64.4490 C.3       6 GLL5        0.0000 
     13 CA         23.2210   36.5160   61.7170 C.3       4 GLP5        0.0000 
     14 CA         19.2775   38.1070   63.2055 C.3       2 GLC5        0.0000 
     15 CA         21.1480   39.1120   63.8190 C.3       6 GLL5        0.0000 
     16 CA         17.4070   37.1020   62.5920 C.3       4 GLP5        0.0000 
     17 CA         22.3460   40.0325   66.6675 C.3       2 GLC5        0.0000 
     18 CA         24.4780   39.4040   66.6330 C.3       6 GLL5        0.0000 
     19 CA         20.2140   40.6610   66.7020 C.3       4 GLP5        0.0000 
     20 OD1        26.9420   39.0325   69.1930 O.co2     1 ASC3        0.0000 
     21 OD1        27.0460   39.5620   67.8680 O.co2     5 ASL3        0.0000 
     22 OD1        26.8380   38.5030   70.5180 O.co2     3 ASP3        0.0000 
     23 OD1        26.0205   39.5250   69.3955 O.co2     1 ASC3        0.0000 
     24 OD1        24.9950   39.4880   70.9230 O.co2     3 ASP3        0.0000 
     25 CA         22.7235   41.1865   66.8950 C.3       2 GLC5        0.0000 
     26 CA         24.7150   40.5360   67.6160 C.3       6 GLL5        0.0000 
     27 CA         20.7320   41.8370   66.1740 C.3       4 GLP5        0.0000 
     28 CA         26.3488   48.3637   61.3175 C.3       2 GLC5        0.0000 
     29 CA         25.3360   47.2400   62.3930 C.3       6 GLL5        0.0000 
     30 CA         27.2450   49.8290   60.9060 C.3       4 GLP5        0.0000 
     31 CA         24.9128   49.1195   61.9513 C.3       2 GLC5        0.0000 
     32 CA         24.0770   47.6310   62.7440 C.3       6 GLL5        0.0000 
     33 CA         25.8290   50.2860   60.5540 C.3       4 GLP5        0.0000 
     34 CA         22.9825   49.2698   65.7782 C.3       2 GLC5        0.0000 
     35 CA         23.9160   48.2750   63.9530 C.3       6 GLL5        0.0000 
     36 CA         21.5210   50.1480   67.1750 C.3       4 GLP5        0.0000 
     37 CA         23.8601   50.0378   64.0026 C.3       2 GLC5        0.0000 
     38 CA         23.2360   51.8450   63.9260 C.3       4 GLP5        0.0000 
     39 CA         27.7512   46.9650   64.4175 C.3       2 GLC5        0.0000 
     40 CA         26.2270   48.1080   64.4440 C.3       6 GLL5        0.0000 
     41 CA         29.2030   46.1440   64.9880 C.3       4 GLP5        0.0000 
     42 CA         26.7722   48.8075   62.3765 C.3       2 GLC5        0.0000 
     43 CA         26.3720   47.4640   63.2500 C.3       6 GLL5        0.0000 
     44 CA         27.4554   49.0085   64.1008 C.3       2 GLC5        0.0000 
     45 CA         28.9250   50.1310   64.2630 C.3       4 GLP5        0.0000 
     46 CA         22.2616   40.8029   61.3335 C.3       2 GLC5        0.0000 
     47 CA         23.2100   40.8930   63.6260 C.3       6 GLL5        0.0000 
     48 CA         21.6560   39.7640   59.8510 C.3       4 GLP5        0.0000 
     49 CA         22.0482   37.3492   63.4057 C.3       2 GLC5        0.0000 
     50 CA         22.3460   35.6680   62.6390 C.3       4 GLP5        0.0000 
     51 CA         21.3592   39.7123   61.6350 C.3       2 GLC5        0.0000 
     52 CA         19.5418   40.6181   63.6196 C.3       2 GLC5        0.0000 
     53 CA         22.0370   41.0880   62.9200 C.3       6 GLL5        0.0000 
     54 CA         17.7560   41.3560   63.8450 C.3       4 GLP5        0.0000 
     55 CA         26.2533   37.2327   65.5945 C.3       2 GLC5        0.0000 
     56 CA         25.1670   38.1330   67.1160 C.3       6 GLL5        0.0000 
     57 CA         26.5950   36.2270   64.0540 C.3       4 GLP5        0.0000 
     58 CA         25.8075   42.4275   67.2390 C.3       2 GLC5        0.0000 
     59 CA         26.1570   44.2220   66.7390 C.3       4 GLP5        0.0000 
     60 CA         24.1540   41.8730   68.5120 C.3       2 GLC5        0.0000 
     61 CA         26.2010   40.7300   67.8620 C.3       6 GLL5        0.0000 
     62 CA         22.8500   43.1130   69.2850 C.3       4 GLP5        0.0000 
@<TRIPOS>BOND
@<TRIPOS>SUBSTRUCTURE
     1 ASC3       20 GROUP        1 X    ASC  0     ROOT ASC X 3
     2 GLC5        1 GROUP        1 X    GLC  0     **** GLC X 6
     3 ASP3       22 GROUP        1 Y    ASP  0     ROOT ASP Y 10
     4 GLP5        3 GROUP        1 Y    GLP  0     **** GLP Y 13
     5 ASL3       21 GROUP        1 Z    ASL  0     ROOT ASL Z 17
     6 GLL5        2 GROUP        1 Z    GLL  0     **** GLL Z 20
@<TRIPOS>SET

