#    Name: 4b13_X25_1_ligand
#    Modification time : Tue Mar 25 06:30:13 2014

@<TRIPOS>MOLECULE
4b13_X25_1_ligand
   51    55     1     0     0
SMALL
NO_CHARGES


@<TRIPOS>ATOM
      1 O2         22.7900   44.4550   61.0580 O.3       1 X251411     0.0000 
      2 C14        23.4970   43.9000   61.8150 C.2       1 X251411     0.0000 
      3 N1         24.6590   44.5010   62.0050 N.2       1 X251411     0.0000 
      4 C15        24.5710   45.5140   61.2130 C.2       1 X251411     0.0000 
      5 C16        25.5690   46.5570   61.0650 C.3       1 X251411     0.0000 
      6 C17        25.3360   47.2400   62.3930 C.ar      1 X251411     0.0000 
      7 C18        24.0770   47.6310   62.7440 C.ar      1 X251411     0.0000 
      8 C19        23.9160   48.2750   63.9530 C.ar      1 X251411     0.0000 
      9 C20        24.9720   48.5080   64.8100 C.ar      1 X251411     0.0000 
     10 C21        26.2270   48.1080   64.4440 C.ar      1 X251411     0.0000 
     11 C22        26.3720   47.4640   63.2500 C.ar      1 X251411     0.0000 
     12 C2         23.1110   42.6930   62.3590 C.2       1 X251411     0.0000 
     13 O          22.0540   42.2040   62.2530 O.3       1 X251411     0.0000 
     14 C3         22.0370   41.0880   62.9200 C.ar      1 X251411     0.0000 
     15 C13        23.2100   40.8930   63.6260 C.ar      1 X251411     0.0000 
     16 C1         23.8700   42.0010   63.2080 C.2       1 X251411     0.0000 
     17 C          25.1840   42.2010   63.7330 C.3       1 X251411     0.0000 
     18 C7         23.4180   39.8400   64.4490 C.ar      1 X251411     0.0000 
     19 C6         22.3530   38.9490   64.5260 C.ar      1 X251411     0.0000 
     20 C5         21.1480   39.1120   63.8190 C.ar      1 X251411     0.0000 
     21 C4         20.9770   40.2090   63.0190 C.ar      1 X251411     0.0000 
     22 O1         24.5560   39.6750   65.1770 O.3       1 X251411     0.0000 
     23 C8         24.4780   39.4040   66.6330 C.3       1 X251411     0.0000 
     24 C9         25.1670   38.1330   67.1160 C.3       1 X251411     0.0000 
     25 C10        26.6560   38.3440   67.1540 C.3       1 X251411     0.0000 
     26 N          27.0460   39.5620   67.8680 N.4       1 X251411     0.0000 
     27 C11        26.2010   40.7300   67.8620 C.3       1 X251411     0.0000 
     28 C12        24.7150   40.5360   67.6160 C.3       1 X251411     0.0000 
     29 N2         23.4030   45.5250   60.6410 N.2       1 X251411     0.0000 
     30 H          25.3305   47.2183   60.2876 H         1 X251411     0.0000 
     31 H          26.5414   46.1665   61.0410 H         1 X251411     0.0000 
     32 H          23.2763   47.4561   62.1372 H         1 X251411     0.0000 
     33 H          22.9588   48.5986   64.2305 H         1 X251411     0.0000 
     34 H          24.8111   48.9767   65.7107 H         1 X251411     0.0000 
     35 H          27.0328   48.2869   65.0485 H         1 X251411     0.0000 
     36 H          27.3363   47.1218   62.9763 H         1 X251411     0.0000 
     37 H          22.4474   38.1045   65.1454 H         1 X251411     0.0000 
     38 H          20.4119   38.4028   63.9140 H         1 X251411     0.0000 
     39 H          20.1110   40.3744   62.5179 H         1 X251411     0.0000 
     40 H          23.3272   39.1364   66.8271 H         1 X251411     0.0000 
     41 H          24.9263   37.3184   66.4372 H         1 X251411     0.0000 
     42 H          24.8029   37.8875   68.1108 H         1 X251411     0.0000 
     43 H          27.0342   38.3750   66.1128 H         1 X251411     0.0000 
     44 H          27.1255   37.4584   67.6266 H         1 X251411     0.0000 
     45 H          26.5718   41.4753   67.0954 H         1 X251411     0.0000 
     46 H          26.3071   41.2928   68.8380 H         1 X251411     0.0000 
     47 H          24.2200   40.3052   68.5595 H         1 X251411     0.0000 
     48 H          24.2921   41.4574   67.2152 H         1 X251411     0.0000 
     49 H          25.8732   42.2275   63.0089 H         1 X251411     0.0000 
     50 H          25.2554   43.0616   64.2373 H         1 X251411     0.0000 
     51 H          25.4478   41.4699   64.3621 H         1 X251411     0.0000 
@<TRIPOS>BOND
     1    2    1 1    
     2   29    1 1    
     3    3    2 2    
     4   12    2 1    
     5    4    3 1    
     6    5    4 1    
     7   29    4 2    
     8    6    5 1    
     9   30    5 1    
    10   31    5 1    
    11    7    6 ar   
    12   11    6 ar   
    13    8    7 ar   
    14   32    7 1    
    15    9    8 ar   
    16   33    8 1    
    17   10    9 ar   
    18   34    9 1    
    19   11   10 ar   
    20   35   10 1    
    21   36   11 1    
    22   13   12 1    
    23   16   12 2    
    24   14   13 1    
    25   15   14 ar   
    26   21   14 ar   
    27   16   15 1    
    28   18   15 ar   
    29   17   16 1    
    30   49   17 1    
    31   50   17 1    
    32   51   17 1    
    33   19   18 ar   
    34   22   18 1    
    35   20   19 ar   
    36   37   19 1    
    37   21   20 ar   
    38   38   20 1    
    39   39   21 1    
    40   23   22 1    
    41   24   23 1    
    42   28   23 1    
    43   40   23 1    
    44   25   24 1    
    45   41   24 1    
    46   42   24 1    
    47   26   25 1    
    48   43   25 1    
    49   44   25 1    
    50   27   26 1    
    51   28   27 1    
    52   45   27 1    
    53   46   27 1    
    54   47   28 1    
    55   48   28 1    
@<TRIPOS>SUBSTRUCTURE
     1 X251411     1 GROUP   
@<TRIPOS>SET

