#    Name: 3nzu_NZU_1_INTS_M
#    Modification time : Tue Mar 25 03:01:50 2014

@<TRIPOS>MOLECULE
3nzu_NZU_1_INTS_M
   60     0     9     0     0
SMALL
NO_CHARGES


@<TRIPOS>ATOM
      1 CA         22.3930   10.4035   25.4875 C.3       3 GLC5        0.0000 
      2 CA         21.5420   11.5970   24.5420 C.3       9 GLL5        0.0000 
      3 CA         23.2440    9.2100   26.4330 C.3       6 GLP5        0.0000 
      4 CA         22.4020   10.5330   23.1540 C.3       3 GLC5        0.0000 
      5 CA         23.2620    9.4690   21.7660 C.3       6 GLP5        0.0000 
      6 CA         20.2595   11.0795   25.9560 C.3       3 GLC5        0.0000 
      7 CA         18.9770   10.5620   27.3700 C.3       6 GLP5        0.0000 
      8 CA         21.4965   12.6975   26.3895 C.3       3 GLC5        0.0000 
      9 CA         21.4510   13.7980   28.2370 C.3       6 GLP5        0.0000 
     10 CA         22.9190   13.0940   25.3600 C.3       3 GLC5        0.0000 
     11 CA         24.2960   14.5910   26.1780 C.3       6 GLP5        0.0000 
     12 N          18.4175   11.7605   24.6010 N.am      2 SEC2        0.0000 
     13 N          19.4090   12.8700   24.3370 N.am      8 SEL2        0.0000 
     14 N          17.4260   10.6510   24.8650 N.am      5 SEP2        0.0000 
     15 CA         21.5040   15.7920   23.4570 C.3       3 GLC5        0.0000 
     16 CA         22.2960   14.7290   21.6540 C.3       9 GLL5        0.0000 
     17 CA         20.7120   16.8550   25.2600 C.3       6 GLP5        0.0000 
     18 CA         21.8540   16.1065   18.7535 C.3       3 GLC5        0.0000 
     19 CA         23.6500   15.7670   19.9200 C.3       9 GLL5        0.0000 
     20 CA         20.0580   16.4460   17.5870 C.3       6 GLP5        0.0000 
     21 CA         26.7780   13.9755   17.9645 C.3       3 GLC5        0.0000 
     22 CA         25.9340   15.2300   19.6260 C.3       9 GLL5        0.0000 
     23 CA         27.6220   12.7210   16.3030 C.3       6 GLP5        0.0000 
     24 CA         27.3405   15.5840   20.9580 C.3       3 GLC5        0.0000 
     25 CA         28.7470   15.9380   22.2900 C.3       6 GLP5        0.0000 
     26 CA         25.1600   11.9975   24.0080 C.3       3 GLC5        0.0000 
     27 CA         24.9040   13.2200   22.3400 C.3       9 GLL5        0.0000 
     28 CA         25.4160   10.7750   25.6760 C.3       6 GLP5        0.0000 
     29 CA         26.9770   13.9195   22.6745 C.3       3 GLC5        0.0000 
     30 CA         29.0500   14.6190   23.0090 C.3       6 GLP5        0.0000 
     31 O          26.3070   12.1975   23.7800 O.2       1 ALC1        0.0000 
     32 O          26.1250   12.8470   22.2660 O.2       7 ALL1        0.0000 
     33 O          26.4890   11.5480   25.2940 O.2       4 ALP1        0.0000 
     34 CA         19.0745   18.5720   23.4040 C.3       3 GLC5        0.0000 
     35 CA         19.0340   19.4770   21.5640 C.3       9 GLL5        0.0000 
     36 CA         19.1150   17.6670   25.2440 C.3       6 GLP5        0.0000 
     37 N          18.1280   21.1810   24.1720 N.am      2 SEC2        0.0000 
     38 N          17.2840   21.0390   22.7250 N.am      8 SEL2        0.0000 
     39 N          18.9720   21.3230   25.6190 N.am      5 SEP2        0.0000 
     40 N          20.0355   21.7835   22.5710 N.am      2 SEC2        0.0000 
     41 N          19.0020   22.1080   21.5060 N.am      8 SEL2        0.0000 
     42 N          21.0690   21.4590   23.6360 N.am      5 SEP2        0.0000 
     43 CA         16.8670   22.4630   21.2425 C.3       3 GLC5        0.0000 
     44 CA         17.1450   20.8970   20.1250 C.3       9 GLL5        0.0000 
     45 CA         16.5890   24.0290   22.3600 C.3       6 GLP5        0.0000 
     46 CA         20.4235   13.7609   20.8927 C.3       3 GLC5        0.0000 
     47 CA         20.0210   14.3560   22.8790 C.3       9 GLL5        0.0000 
     48 CA         20.4800   12.8510   19.3020 C.3       6 GLP5        0.0000 
     49 CA         20.5395   15.7629   23.8717 C.3       3 GLC5        0.0000 
     50 CA         20.1750   15.3930   21.9680 C.3       9 GLL5        0.0000 
     51 CA         21.8845   14.0713   19.9590 C.3       3 GLC5        0.0000 
     52 CA         25.1145   12.0830   20.8813 C.3       3 GLC5        0.0000 
     53 CA         24.6720   14.1660   21.3510 C.3       9 GLL5        0.0000 
     54 CA         25.4410   10.4730   19.9170 C.3       6 GLP5        0.0000 
     55 CA         25.1340   14.3995   23.6127 C.3       3 GLC5        0.0000 
     56 CA         25.4800   15.1060   25.3800 C.3       6 GLP5        0.0000 
     57 CA         19.3940   17.1020   19.1505 C.3       3 GLC5        0.0000 
     58 CA         19.1910   17.1660   20.5620 C.3       9 GLL5        0.0000 
     59 CA         17.5190   16.2865   20.1525 C.3       3 GLC5        0.0000 
     60 CA         16.3080   14.8150   19.5910 C.3       6 GLP5        0.0000 
@<TRIPOS>BOND
@<TRIPOS>SUBSTRUCTURE
     1 ALC1       31 GROUP        1 X    ALC  0     ROOT ALC X 1
     2 SEC2       12 GROUP        1 X    SEC  0     **** SEC X 2
     3 GLC5        1 GROUP        1 X    GLC  0     **** GLC X 6
     4 ALP1       33 GROUP        1 Y    ALP  0     ROOT ALP Y 8
     5 SEP2       14 GROUP        1 Y    SEP  0     **** SEP Y 9
     6 GLP5        3 GROUP        1 Y    GLP  0     **** GLP Y 13
     7 ALL1       32 GROUP        1 Z    ALL  0     ROOT ALL Z 15
     8 SEL2       13 GROUP        1 Z    SEL  0     **** SEL Z 16
     9 GLL5        2 GROUP        1 Z    GLL  0     **** GLL Z 20
@<TRIPOS>SET

