#    Name: 3nzu_NZU_1_ligand
#    Modification time : Tue Mar 25 03:01:50 2014

@<TRIPOS>MOLECULE
3nzu_NZU_1_ligand
   46    49     1     0     0
SMALL
NO_CHARGES


@<TRIPOS>ATOM
      1 C1         21.5420   11.5970   24.5420 C.3       1 NZU1        0.0000 
      2 N2         20.7140   12.6420   24.0130 N.pl3     1 NZU1        0.0000 
      3 C3         21.0970   13.5410   23.1190 C.ar      1 NZU1        0.0000 
      4 C4         20.0210   14.3560   22.8790 C.ar      1 NZU1        0.0000 
      5 C5         18.9940   13.8830   23.6880 C.2       1 NZU1        0.0000 
      6 N6         19.4090   12.8700   24.3370 N.2       1 NZU1        0.0000 
      7 C7         20.1750   15.3930   21.9680 C.ar      1 NZU1        0.0000 
      8 N8         21.3190   15.5330   21.3870 N.ar      1 NZU1        0.0000 
      9 C9         22.2960   14.7290   21.6540 C.ar      1 NZU1        0.0000 
     10 N10        22.2030   13.7600   22.4870 N.ar      1 NZU1        0.0000 
     11 C11        23.5600   14.9030   20.9700 C.ar      1 NZU1        0.0000 
     12 C12        23.6500   15.7670   19.9200 C.ar      1 NZU1        0.0000 
     13 C13        24.8340   15.9310   19.2580 C.ar      1 NZU1        0.0000 
     14 C14        25.9340   15.2300   19.6260 C.ar      1 NZU1        0.0000 
     15 C15        25.8590   14.3430   20.6690 C.ar      1 NZU1        0.0000 
     16 C16        24.6720   14.1660   21.3510 C.ar      1 NZU1        0.0000 
     17 C17        24.9040   13.2200   22.3400 C.2       1 NZU1        0.0000 
     18 N18        26.1250   12.8470   22.2660 N.pl3     1 NZU1        0.0000 
     19 N19        26.7500   13.5240   21.2470 N.2       1 NZU1        0.0000 
     20 N21        19.1620   16.2590   21.6950 N.pl3     1 NZU1        0.0000 
     21 C22        19.1910   17.1660   20.5620 C.3       1 NZU1        0.0000 
     22 C23        18.2690   18.3500   20.8660 C.3       1 NZU1        0.0000 
     23 C24        19.0340   19.4770   21.5640 C.3       1 NZU1        0.0000 
     24 S25        18.1190   21.0380   21.6230 S.o2      1 NZU1        0.0000 
     25 O26        17.2840   21.0390   22.7250 O.2       1 NZU1        0.0000 
     26 O27        19.0020   22.1080   21.5060 O.2       1 NZU1        0.0000 
     27 C28        17.1450   20.8970   20.1250 C.3       1 NZU1        0.0000 
     28 H          18.1138   14.3098   23.7069 H         1 NZU1        0.0000 
     29 H          22.8129   16.3059   19.6193 H         1 NZU1        0.0000 
     30 H          24.8867   16.6031   18.4627 H         1 NZU1        0.0000 
     31 H          26.8318   15.3587   19.1256 H         1 NZU1        0.0000 
     32 H          24.2089   12.9304   22.9574 H         1 NZU1        0.0000 
     33 H          26.5930   12.1865   22.8227 H         1 NZU1        0.0000 
     34 H          18.3144   16.3021   22.3009 H         1 NZU1        0.0000 
     35 H          18.8336   16.6814   19.6565 H         1 NZU1        0.0000 
     36 H          20.1927   17.5519   20.3881 H         1 NZU1        0.0000 
     37 H          17.4568   18.0156   21.5097 H         1 NZU1        0.0000 
     38 H          17.8488   18.7253   19.9341 H         1 NZU1        0.0000 
     39 H          19.9383   19.7580   21.0537 H         1 NZU1        0.0000 
     40 H          19.2254   19.2815   22.6044 H         1 NZU1        0.0000 
     41 H          21.8697   10.9833   23.8237 H         1 NZU1        0.0000 
     42 H          22.3490   11.9618   25.0065 H         1 NZU1        0.0000 
     43 H          21.0505   11.0343   25.2067 H         1 NZU1        0.0000 
     44 H          17.7072   20.6385   19.3394 H         1 NZU1        0.0000 
     45 H          16.4276   20.2058   20.2121 H         1 NZU1        0.0000 
     46 H          16.6948   21.7590   19.8922 H         1 NZU1        0.0000 
@<TRIPOS>BOND
     1    2    1 1    
     2   41    1 1    
     3   42    1 1    
     4   43    1 1    
     5    3    2 1    
     6    6    2 1    
     7    4    3 ar   
     8   10    3 ar   
     9    5    4 1    
    10    7    4 ar   
    11    6    5 2    
    12   28    5 1    
    13    8    7 ar   
    14   20    7 1    
    15    9    8 ar   
    16   10    9 ar   
    17   11    9 1    
    18   12   11 ar   
    19   16   11 ar   
    20   13   12 ar   
    21   29   12 1    
    22   14   13 ar   
    23   30   13 1    
    24   15   14 ar   
    25   31   14 1    
    26   16   15 ar   
    27   19   15 2    
    28   17   16 2    
    29   18   17 1    
    30   32   17 1    
    31   19   18 1    
    32   33   18 1    
    33   21   20 1    
    34   34   20 1    
    35   22   21 1    
    36   35   21 1    
    37   36   21 1    
    38   23   22 1    
    39   37   22 1    
    40   38   22 1    
    41   24   23 1    
    42   39   23 1    
    43   40   23 1    
    44   25   24 2    
    45   26   24 2    
    46   27   24 1    
    47   44   27 1    
    48   45   27 1    
    49   46   27 1    
@<TRIPOS>SUBSTRUCTURE
     1 NZU1        1 GROUP   
@<TRIPOS>SET

