#    Name: 4c4j_X21_1_INTS_M
#    Modification time : Tue Mar 25 08:57:21 2014

@<TRIPOS>MOLECULE
4c4j_X21_1_INTS_M
   97     0     9     0     0
SMALL
NO_CHARGES


@<TRIPOS>ATOM
      1 CA          5.6725   21.8285   36.5360 C.3       3 GLC5        0.0000 
      2 CA          4.6010   21.4280   38.3640 C.3       9 GLL5        0.0000 
      3 CA          6.7440   22.2290   34.7080 C.3       6 GLP5        0.0000 
      4 CA          4.4825   23.4155   37.8360 C.3       3 GLC5        0.0000 
      5 CA          4.3640   25.4030   37.3080 C.3       6 GLP5        0.0000 
      6 CA          6.2295   22.8015   38.3645 C.3       3 GLC5        0.0000 
      7 CA          7.8580   24.1750   38.3650 C.3       6 GLP5        0.0000 
      8 CA          4.5335   22.8310   39.9095 C.3       3 GLC5        0.0000 
      9 CA          4.4660   24.2340   41.4550 C.3       6 GLP5        0.0000 
     10 CA          1.3105   19.2685   49.8900 C.3       3 GLC5        0.0000 
     11 CA         -0.3600   19.0560   50.7650 C.3       9 GLL5        0.0000 
     12 CA          2.9810   19.4810   49.0150 C.3       6 GLP5        0.0000 
     13 CA          1.0435   20.1155   51.9810 C.3       3 GLC5        0.0000 
     14 CA          2.4470   21.1750   53.1970 C.3       6 GLP5        0.0000 
     15 CA          0.0530   20.9230   50.5125 C.3       3 GLC5        0.0000 
     16 CA          0.4660   22.7900   50.2600 C.3       6 GLP5        0.0000 
     17 N           6.5235   19.6180   39.4415 N.am      2 SEC2        0.0000 
     18 N           5.2480   19.8070   40.1820 N.am      8 SEL2        0.0000 
     19 N           7.7990   19.4290   38.7010 N.am      5 SEP2        0.0000 
     20 CA          3.9345   22.6710   41.0105 C.3       3 GLC5        0.0000 
     21 CA          3.4030   21.1080   40.5660 C.3       9 GLL5        0.0000 
     22 N          -1.0425   22.3110   47.0925 N.am      2 SEC2        0.0000 
     23 N           0.1130   21.5330   46.5000 N.am      8 SEL2        0.0000 
     24 N          -2.1980   23.0890   47.6850 N.am      5 SEP2        0.0000 
     25 O          -1.7385   20.4300   48.6235 O.2       1 ALC1        0.0000 
     26 O          -0.6820   19.6460   47.7980 O.2       7 ALL1        0.0000 
     27 O          -2.7950   21.2140   49.4490 O.2       4 ALP1        0.0000 
     28 CA          4.1165   19.8800   44.4105 C.3       3 GLC5        0.0000 
     29 CA          2.7800   20.4160   42.9020 C.3       9 GLL5        0.0000 
     30 CA          5.4530   19.3440   45.9190 C.3       6 GLP5        0.0000 
     31 CA          1.0950   19.4350   41.9935 C.3       3 GLC5        0.0000 
     32 CA         -0.5900   18.4540   41.0850 C.3       6 GLP5        0.0000 
     33 CA         -0.0845   23.2660   44.0790 C.3       3 GLC5        0.0000 
     34 CA          0.8540   22.0540   45.5230 C.3       9 GLL5        0.0000 
     35 CA         -1.0230   24.4780   42.6350 C.3       6 GLP5        0.0000 
     36 CA          0.2140   23.3275   46.9280 C.3       3 GLC5        0.0000 
     37 CA         -0.4260   24.6010   48.3330 C.3       6 GLP5        0.0000 
     38 CA          1.7405   21.5905   46.8490 C.3       3 GLC5        0.0000 
     39 CA          0.0880   20.1390   46.6860 C.3       9 GLL5        0.0000 
     40 CA          3.3930   23.0420   47.0120 C.3       6 GLP5        0.0000 
     41 CA          0.2770   21.4645   48.4730 C.3       3 GLC5        0.0000 
     42 CA         -1.7285   21.3435   47.1590 C.3       3 GLC5        0.0000 
     43 CA         -3.5450   22.5480   47.6320 C.3       6 GLP5        0.0000 
     44 CA         -3.9840   14.4565   48.9080 C.3       3 GLC5        0.0000 
     45 CA         -1.8370   14.2610   49.2300 C.3       9 GLL5        0.0000 
     46 CA         -6.1310   14.6520   48.5860 C.3       6 GLP5        0.0000 
     47 CA         -3.2135   12.2025   47.8910 C.3       3 GLC5        0.0000 
     48 CA         -1.3440   13.1480   48.5300 C.3       9 GLL5        0.0000 
     49 CA         -5.0830   11.2570   47.2520 C.3       6 GLP5        0.0000 
     50 CA         -0.0390   12.2025   47.5510 C.3       3 GLC5        0.0000 
     51 CA          1.2660   11.2570   46.5720 C.3       6 GLP5        0.0000 
     52 CA         -4.8675   14.5830   49.8440 C.3       3 GLC5        0.0000 
     53 CA         -3.6040   14.5140   51.1020 C.3       9 GLL5        0.0000 
     54 CA         -2.6730   15.4950   45.8130 C.3       3 GLC5        0.0000 
     55 CA         -1.5910   16.0370   47.6440 C.3       9 GLL5        0.0000 
     56 CA         -3.7550   14.9530   43.9820 C.3       6 GLP5        0.0000 
     57 CA          3.4980   19.5880   45.3490 C.3       3 GLC5        0.0000 
     58 CA          1.5430   19.8320   44.7790 C.3       9 GLL5        0.0000 
     59 CA          0.4765   19.1430   42.9320 C.3       3 GLC5        0.0000 
     60 CA          0.3930   16.7835   41.8525 C.3       3 GLC5        0.0000 
     61 CA          1.3760   15.1130   42.6200 C.3       9 GLL5        0.0000 
     62 CA          3.3880   15.0105   41.9320 C.3       3 GLC5        0.0000 
     63 CA          5.4000   14.9080   41.2440 C.3       6 GLP5        0.0000 
     64 CA          1.0305   13.1720   45.8070 C.3       3 GLC5        0.0000 
     65 CA          0.7950   15.0870   45.0420 C.3       9 GLL5        0.0000 
     66 CA          4.5050   14.4890   45.5490 C.3       3 GLC5        0.0000 
     67 CA          3.1890   15.1270   44.3380 C.3       9 GLL5        0.0000 
     68 CA          5.8210   13.8510   46.7600 C.3       6 GLP5        0.0000 
     69 CA          4.9100   16.4940   44.3290 C.3       3 GLC5        0.0000 
     70 CA          6.6310   17.8610   44.3200 C.3       6 GLP5        0.0000 
     71 CA          4.2945   15.0175   42.7910 C.3       3 GLC5        0.0000 
     72 CA          2.9810   13.2045   45.3215 C.3       3 GLC5        0.0000 
     73 CA          2.7730   11.2820   46.3050 C.3       6 GLP5        0.0000 
     74 CA          1.5700   20.6540   40.3743 C.3       3 GLC5        0.0000 
     75 CA          3.6030   20.3300   41.7110 C.3       9 GLL5        0.0000 
     76 CA         -0.3630   20.5890   39.6100 C.3       6 GLP5        0.0000 
     77 CA          4.1596   22.1815   42.7221 C.3       3 GLC5        0.0000 
     78 CA          2.3630   21.5850   43.4720 C.3       9 GLL5        0.0000 
     79 CA          5.5420   23.3840   42.5550 C.3       6 GLP5        0.0000 
     80 CA         -1.1960   19.3665   45.4607 C.3       3 GLC5        0.0000 
     81 CA         -2.8380   19.0460   44.6580 C.3       6 GLP5        0.0000 
     82 CA          0.7327   17.3047   48.4910 C.3       3 GLC5        0.0000 
     83 CA         -0.9680   18.3000   48.1740 C.3       9 GLL5        0.0000 
     84 CA          2.4050   16.5050   48.1060 C.3       6 GLP5        0.0000 
     85 CA          0.5135   16.3150   48.8058 C.3       3 GLC5        0.0000 
     86 CA         -1.5510   15.6540   48.9960 C.3       9 GLL5        0.0000 
     87 CA          0.4777   16.5883   47.7717 C.3       3 GLC5        0.0000 
     88 CA         -2.1013   17.9830   46.1656 C.3       3 GLC5        0.0000 
     89 CA          1.9878   19.6203   47.2681 C.3       3 GLC5        0.0000 
     90 CA          2.4359   21.9146   45.8974 C.3       3 GLC5        0.0000 
     91 CA         -0.5371   21.1069   44.5892 C.3       3 GLC5        0.0000 
     92 CA          1.5870   21.2770   44.6290 C.3       9 GLL5        0.0000 
     93 CA         -2.4560   21.4650   44.2510 C.3       6 GLP5        0.0000 
     94 CA          2.3219   15.8669   46.2684 C.3       3 GLC5        0.0000 
     95 CA          1.7820   15.5740   44.0050 C.3       9 GLL5        0.0000 
     96 CA         -3.3006   16.7843   48.3762 C.3       3 GLC5        0.0000 
     97 CA         -5.2300   17.0460   48.1630 C.3       6 GLP5        0.0000 
@<TRIPOS>BOND
@<TRIPOS>SUBSTRUCTURE
     1 ALC1       25 GROUP        1 X    ALC  0     ROOT ALC X 1
     2 SEC2       17 GROUP        1 X    SEC  0     **** SEC X 2
     3 GLC5        1 GROUP        1 X    GLC  0     **** GLC X 6
     4 ALP1       27 GROUP        1 Y    ALP  0     ROOT ALP Y 8
     5 SEP2       19 GROUP        1 Y    SEP  0     **** SEP Y 9
     6 GLP5        3 GROUP        1 Y    GLP  0     **** GLP Y 13
     7 ALL1       26 GROUP        1 Z    ALL  0     ROOT ALL Z 15
     8 SEL2       18 GROUP        1 Z    SEL  0     **** SEL Z 16
     9 GLL5        2 GROUP        1 Z    GLL  0     **** GLL Z 20
@<TRIPOS>SET

