#    Name: 4c4j_X21_1_ligand
#    Modification time : Tue Mar 25 08:57:21 2014

@<TRIPOS>MOLECULE
4c4j_X21_1_ligand
   62    66     1     0     0
SMALL
NO_CHARGES


@<TRIPOS>ATOM
      1 C           4.6010   21.4280   38.3640 C.3       1 X211795     0.0000 
      2 N           4.4090   20.7820   39.6790 N.pl3     1 X211795     0.0000 
      3 O           1.6930   17.0480   44.1580 O.3       1 X211795     0.0000 
      4 CL         -0.3600   19.0560   50.7650 Cl        1 X211795     0.0000 
      5 C1          4.7690   19.5260   41.4310 C.2       1 X211795     0.0000 
      6 N1          5.2480   19.8070   40.1820 N.2       1 X211795     0.0000 
      7 O1          3.0960   17.5520   42.4610 O.2       1 X211795     0.0000 
      8 C2          3.4030   21.1080   40.5660 C.2       1 X211795     0.0000 
      9 N2          0.1130   21.5330   46.5000 N.ar      1 X211795     0.0000 
     10 C3          3.6030   20.3300   41.7110 C.2       1 X211795     0.0000 
     11 N3         -0.6820   19.6460   47.7980 N.pl3     1 X211795     0.0000 
     12 C4          2.7800   20.4160   42.9020 C.2       1 X211795     0.0000 
     13 N4         -2.0050   11.9930   48.9600 N.2       1 X211795     0.0000 
     14 C5          2.3630   21.5850   43.4720 C.2       1 X211795     0.0000 
     15 N5         -2.8260   13.7340   50.1380 N.pl3     1 X211795     0.0000 
     16 C6          1.5870   21.2770   44.6290 C.ar      1 X211795     0.0000 
     17 N6          2.2790   19.2980   43.6690 N.am      1 X211795     0.0000 
     18 C7          0.8540   22.0540   45.5230 C.ar      1 X211795     0.0000 
     19 C8          0.0880   20.1390   46.6860 C.ar      1 X211795     0.0000 
     20 C9         -0.9680   18.3000   48.1740 C.ar      1 X211795     0.0000 
     21 C10        -0.9110   17.9090   49.5780 C.ar      1 X211795     0.0000 
     22 C11        -1.2050   16.5960   50.0150 C.ar      1 X211795     0.0000 
     23 C12        -1.5510   15.6540   48.9960 C.ar      1 X211795     0.0000 
     24 C13        -1.8370   14.2610   49.2300 C.2       1 X211795     0.0000 
     25 C14        -1.3440   13.1480   48.5300 C.2       1 X211795     0.0000 
     26 C15        -2.8960   12.4210   49.9400 C.2       1 X211795     0.0000 
     27 C16        -3.6040   14.5140   51.1020 C.3       1 X211795     0.0000 
     28 C17        -1.5910   16.0370   47.6440 C.ar      1 X211795     0.0000 
     29 C18        -1.3080   17.3060   47.2310 C.ar      1 X211795     0.0000 
     30 C19         0.8040   19.2350   45.8410 C.ar      1 X211795     0.0000 
     31 C20         1.5430   19.8320   44.7790 C.ar      1 X211795     0.0000 
     32 C21         2.4020   17.9220   43.3700 C.2       1 X211795     0.0000 
     33 C22         1.7820   15.5740   44.0050 C.3       1 X211795     0.0000 
     34 C23         1.3760   15.1130   42.6200 C.3       1 X211795     0.0000 
     35 C24         0.7950   15.0870   45.0420 C.3       1 X211795     0.0000 
     36 C25         3.1890   15.1270   44.3380 C.3       1 X211795     0.0000 
     37 H           5.1234   18.8973   42.0589 H         1 X211795     0.0000 
     38 H           2.7114   21.7314   40.4359 H         1 X211795     0.0000 
     39 H          -1.1030   20.4110   48.4389 H         1 X211795     0.0000 
     40 H           2.5406   22.4693   43.1757 H         1 X211795     0.0000 
     41 H           0.9047   23.1045   45.3993 H         1 X211795     0.0000 
     42 H          -1.1750   16.3364   50.9706 H         1 X211795     0.0000 
     43 H          -0.6627   13.1784   47.8640 H         1 X211795     0.0000 
     44 H          -3.4947   11.7976   50.4124 H         1 X211795     0.0000 
     45 H          -1.8504   15.3058   46.9387 H         1 X211795     0.0000 
     46 H          -1.3367   17.5608   46.2328 H         1 X211795     0.0000 
     47 H           0.7861   18.2597   45.9859 H         1 X211795     0.0000 
     48 H           5.4819   21.8978   38.3061 H         1 X211795     0.0000 
     49 H           4.5731   20.7643   37.6165 H         1 X211795     0.0000 
     50 H           3.8928   22.1090   38.1778 H         1 X211795     0.0000 
     51 H          -3.0159   14.9852   51.7593 H         1 X211795     0.0000 
     52 H          -4.1595   15.2132   50.6519 H         1 X211795     0.0000 
     53 H          -4.2287   13.9373   51.6284 H         1 X211795     0.0000 
     54 H           1.9544   15.5152   41.9103 H         1 X211795     0.0000 
     55 H           1.4430   14.1198   42.5247 H         1 X211795     0.0000 
     56 H           0.4321   15.3650   42.4065 H         1 X211795     0.0000 
     57 H           0.7402   14.0887   45.0626 H         1 X211795     0.0000 
     58 H           1.0459   15.3859   45.9627 H         1 X211795     0.0000 
     59 H          -0.1283   15.4276   44.8647 H         1 X211795     0.0000 
     60 H           3.8656   15.5502   43.7354 H         1 X211795     0.0000 
     61 H           3.4421   15.3650   45.2757 H         1 X211795     0.0000 
     62 H           3.2951   14.1367   44.2481 H         1 X211795     0.0000 
@<TRIPOS>BOND
     1    2    1 1    
     2   48    1 1    
     3   49    1 1    
     4   50    1 1    
     5    6    2 1    
     6    8    2 1    
     7   32    3 1    
     8   33    3 1    
     9   21    4 1    
    10    6    5 2    
    11   10    5 1    
    12   37    5 1    
    13   32    7 2    
    14   10    8 2    
    15   38    8 1    
    16   18    9 ar   
    17   19    9 ar   
    18   12   10 1    
    19   19   11 1    
    20   20   11 1    
    21   39   11 1    
    22   14   12 2    
    23   17   12 1    
    24   25   13 1    
    25   26   13 2    
    26   16   14 1    
    27   40   14 1    
    28   24   15 1    
    29   26   15 1    
    30   27   15 1    
    31   18   16 ar   
    32   31   16 ar   
    33   31   17 1    
    34   32   17 am   
    35   41   18 1    
    36   30   19 ar   
    37   21   20 ar   
    38   29   20 ar   
    39   22   21 ar   
    40   23   22 ar   
    41   42   22 1    
    42   24   23 1    
    43   28   23 ar   
    44   25   24 2    
    45   43   25 1    
    46   44   26 1    
    47   51   27 1    
    48   52   27 1    
    49   53   27 1    
    50   29   28 ar   
    51   45   28 1    
    52   46   29 1    
    53   31   30 ar   
    54   47   30 1    
    55   34   33 1    
    56   35   33 1    
    57   36   33 1    
    58   54   34 1    
    59   55   34 1    
    60   56   34 1    
    61   57   35 1    
    62   58   35 1    
    63   59   35 1    
    64   60   36 1    
    65   61   36 1    
    66   62   36 1    
@<TRIPOS>SUBSTRUCTURE
     1 X211795     1 GROUP   
@<TRIPOS>SET

