#    Name: 4i9n_1E5_12_INTS_M
#    Modification time : Tue Mar 25 02:43:27 2014

@<TRIPOS>MOLECULE
4i9n_1E5_12_INTS_M
   49     0     9     0     0
SMALL
NO_CHARGES


@<TRIPOS>ATOM
      1 CA         39.8575   14.8465  115.6380 C.3       3 GLC5        0.0000 
      2 CA         39.8240   12.7810  115.4100 C.3       9 GLL5        0.0000 
      3 CA         39.8910   16.9120  115.8660 C.3       6 GLP5        0.0000 
      4 N          42.2755   16.5835  115.0155 N.am      1 SEC2        0.0000 
      5 N          42.5140   15.0990  114.4940 N.am      7 SEL2        0.0000 
      6 N          42.0370   18.0680  115.5370 N.am      4 SEP2        0.0000 
      7 CA         36.8890   17.2970  109.8020 C.3       3 GLC5        0.0000 
      8 CA         36.3370   15.4590  110.5940 C.3       9 GLL5        0.0000 
      9 CA         37.4410   19.1350  109.0100 C.3       6 GLP5        0.0000 
     10 CA         34.4555   15.4330  108.6335 C.3       3 GLC5        0.0000 
     11 CA         34.9360   15.4000  110.8180 C.3       9 GLL5        0.0000 
     12 CA         33.9750   15.4660  106.4490 C.3       6 GLP5        0.0000 
     13 CA         33.9465   16.1925  113.5455 C.3       3 GLC5        0.0000 
     14 CA         34.4420   14.7450  112.0000 C.3       9 GLL5        0.0000 
     15 CA         33.4510   17.6400  115.0910 C.3       6 GLP5        0.0000 
     16 CA         35.1435   16.1100  113.9710 C.3       3 GLC5        0.0000 
     17 CA         35.3780   14.1920  112.8970 C.3       9 GLL5        0.0000 
     18 CA         34.9090   18.0280  115.0450 C.3       6 GLP5        0.0000 
     19 N          32.0670   16.9100  109.2250 N.am      1 SEC2        0.0000 
     20 N          32.7560   15.6690  109.9390 N.am      7 SEL2        0.0000 
     21 N          31.3780   18.1510  108.5110 N.am      4 SEP2        0.0000 
     22 NZ         32.9130   17.6860  108.8770 N.4       2 LYC4        0.0000 
     23 NZ         34.4480   17.2210  109.2430 N.4       8 LYL4        0.0000 
     24 NZ         31.7840   19.3520  108.1330 N.4       5 LYP4        0.0000 
     25 N          33.7640   18.4275  108.6825 N.am      1 SEC2        0.0000 
     26 N          34.4480   17.2210  109.2430 N.am      7 SEL2        0.0000 
     27 N          33.0800   19.6340  108.1220 N.am      4 SEP2        0.0000 
     28 N          32.9130   17.6860  108.8770 N.am      1 SEC2        0.0000 
     29 N          35.7345   17.7820  109.6895 N.am      1 SEC2        0.0000 
     30 N          37.0210   18.3430  110.1360 N.am      4 SEP2        0.0000 
     31 CA         38.9600   12.6615  118.5045 C.3       3 GLC5        0.0000 
     32 CA         38.2290   12.8110  117.1450 C.3       9 GLL5        0.0000 
     33 CA         39.6910   12.5120  119.8640 C.3       6 GLP5        0.0000 
     34 CA         36.7720   13.4220  117.9525 C.3       3 GLC5        0.0000 
     35 CA         35.3150   14.0330  118.7600 C.3       6 GLP5        0.0000 
     36 CA         36.6220   14.0485  116.4450 C.3       3 GLC5        0.0000 
     37 CA         37.5120   13.5030  114.9970 C.3       9 GLL5        0.0000 
     38 CA         35.2270   14.8310  117.4630 C.3       6 GLP5        0.0000 
     39 CA         38.4908   14.9180  116.6005 C.3       3 GLC5        0.0000 
     40 CA         38.6060   16.9160  116.7000 C.3       6 GLP5        0.0000 
     41 CA         39.6465   13.4325  117.5737 C.3       3 GLC5        0.0000 
     42 CA         38.5220   13.0290  115.8570 C.3       9 GLL5        0.0000 
     43 CA         40.1200   13.9600  119.5140 C.3       6 GLP5        0.0000 
     44 CA         39.6160   15.0292  113.9800 C.3       3 GLC5        0.0000 
     45 CA         40.1690   13.0120  114.0350 C.3       9 GLL5        0.0000 
     46 CA         39.5610   16.8050  114.3750 C.3       6 GLP5        0.0000 
     47 CA         38.3923   15.3814  113.9144 C.3       3 GLC5        0.0000 
     48 CA         37.6534   11.4686  116.6459 C.3       3 GLC5        0.0000 
     49 CA         36.7320   10.0200  117.0100 C.3       6 GLP5        0.0000 
@<TRIPOS>BOND
@<TRIPOS>SUBSTRUCTURE
     1 SEC2        4 GROUP        1 X    SEC  0     ROOT SEC X 2
     2 LYC4       22 GROUP        1 X    LYC  0     **** LYC X 4
     3 GLC5        1 GROUP        1 X    GLC  0     **** GLC X 6
     4 SEP2        6 GROUP        1 Y    SEP  0     ROOT SEP Y 9
     5 LYP4       24 GROUP        1 Y    LYP  0     **** LYP Y 11
     6 GLP5        3 GROUP        1 Y    GLP  0     **** GLP Y 13
     7 SEL2        5 GROUP        1 Z    SEL  0     ROOT SEL Z 16
     8 LYL4       23 GROUP        1 Z    LYL  0     **** LYL Z 18
     9 GLL5        2 GROUP        1 Z    GLL  0     **** GLL Z 20
@<TRIPOS>SET

