#    Name: 4i9n_1E5_12_ligand
#    Modification time : Tue Mar 25 02:43:27 2014

@<TRIPOS>MOLECULE
4i9n_1E5_12_ligand
   29    30     1     0     0
SMALL
NO_CHARGES


@<TRIPOS>ATOM
      1 C1         37.8420   13.7560  113.5520 C.ar      1 1E5402      0.0000 
      2 C2         37.5120   13.5030  114.9970 C.ar      1 1E5402      0.0000 
      3 C3         38.5220   13.0290  115.8570 C.ar      1 1E5402      0.0000 
      4 C4         39.8240   12.7810  115.4100 C.ar      1 1E5402      0.0000 
      5 C5         40.1690   13.0120  114.0350 C.ar      1 1E5402      0.0000 
      6 C6         39.1730   13.4950  113.1350 C.ar      1 1E5402      0.0000 
      7 O7         41.4370   12.8070  113.4610 O.3       1 1E5402      0.0000 
      8 C8         42.5740   12.6040  114.3080 C.3       1 1E5402      0.0000 
      9 C9         43.1890   14.0250  114.9340 C.2       1 1E5402      0.0000 
     10 O12        42.5140   15.0990  114.4940 O.co2     1 1E5402      0.0000 
     11 O13        43.9220   14.0660  115.8680 O.co2     1 1E5402      0.0000 
     12 C17        36.7700   14.2860  112.6330 C.ar      1 1E5402      0.0000 
     13 N18        37.1960   14.9220  111.4770 N.ar      1 1E5402      0.0000 
     14 C19        36.3370   15.4590  110.5940 C.ar      1 1E5402      0.0000 
     15 C20        34.9360   15.4000  110.8180 C.ar      1 1E5402      0.0000 
     16 C21        34.4420   14.7450  112.0000 C.ar      1 1E5402      0.0000 
     17 C22        35.3780   14.1920  112.8970 C.ar      1 1E5402      0.0000 
     18 C23        34.0440   16.0140  109.8550 C.2       1 1E5402      0.0000 
     19 O24        32.7560   15.6690  109.9390 O.co2     1 1E5402      0.0000 
     20 O25        34.4480   17.2210  109.2430 O.co2     1 1E5402      0.0000 
     21 F31        38.2290   12.8110  117.1450 F         1 1E5402      0.0000 
     22 H          36.5760   13.6819  115.3019 H         1 1E5402      0.0000 
     23 H          40.5409   12.4357  116.0479 H         1 1E5402      0.0000 
     24 H          39.4323   13.6590  112.1488 H         1 1E5402      0.0000 
     25 H          43.4285   12.1466  113.7917 H         1 1E5402      0.0000 
     26 H          42.3564   11.9928  115.1941 H         1 1E5402      0.0000 
     27 H          36.6669   15.9282  109.7307 H         1 1E5402      0.0000 
     28 H          33.4531   14.6903  112.1693 H         1 1E5402      0.0000 
     29 H          35.0568   13.7186  113.7456 H         1 1E5402      0.0000 
@<TRIPOS>BOND
     1    2    1 ar   
     2    6    1 ar   
     3   12    1 1    
     4    3    2 ar   
     5   22    2 1    
     6    4    3 ar   
     7   21    3 1    
     8    5    4 ar   
     9   23    4 1    
    10    6    5 ar   
    11    7    5 1    
    12   24    6 1    
    13    8    7 1    
    14    9    8 1    
    15   25    8 1    
    16   26    8 1    
    17   10    9 ar   
    18   11    9 ar   
    19   13   12 ar   
    20   17   12 ar   
    21   14   13 ar   
    22   15   14 ar   
    23   27   14 1    
    24   16   15 ar   
    25   18   15 1    
    26   17   16 ar   
    27   28   16 1    
    28   29   17 1    
    29   19   18 ar   
    30   20   18 ar   
@<TRIPOS>SUBSTRUCTURE
     1 1E5402      1 GROUP   
@<TRIPOS>SET

