#    Name: 4muw_2F4_2_INTS_M
#    Modification time : Tue Mar 25 12:23:48 2014

@<TRIPOS>MOLECULE
4muw_2F4_2_INTS_M
   57     0     6     0     0
SMALL
NO_CHARGES


@<TRIPOS>ATOM
      1 CA        -27.4165   53.5275   19.7060 C.3       2 GLC5        0.0000 
      2 CA        -28.0220   51.8550   19.9650 C.3       6 GLL5        0.0000 
      3 CA        -26.8110   55.2000   19.4470 C.3       4 GLP5        0.0000 
      4 CA        -28.9925   50.2820   21.0945 C.3       2 GLC5        0.0000 
      5 CA        -29.9630   48.7090   22.2240 C.3       4 GLP5        0.0000 
      6 CA        -25.7995   52.0340   19.7865 C.3       2 GLC5        0.0000 
      7 CA        -23.5770   52.2130   19.6080 C.3       4 GLP5        0.0000 
      8 CA        -27.4235   53.6950   20.9210 C.3       2 GLC5        0.0000 
      9 CA        -28.0360   52.1900   22.3950 C.3       6 GLL5        0.0000 
     10 CA        -25.9525   48.0130   24.1035 C.3       2 GLC5        0.0000 
     11 CA        -24.8870   49.4140   23.3430 C.3       6 GLL5        0.0000 
     12 CA        -27.0180   46.6120   24.8640 C.3       4 GLP5        0.0000 
     13 N         -24.2315   43.8985   19.3405 N.am      1 SEC2        0.0000 
     14 N         -24.6930   44.1680   18.1090 N.am      5 SEL2        0.0000 
     15 N         -23.7700   43.6290   20.5720 N.am      3 SEP2        0.0000 
     16 CA        -25.5433   53.0887   23.5992 C.3       2 GLC5        0.0000 
     17 CA        -26.8200   51.6080   22.6540 C.3       6 GLL5        0.0000 
     18 CA        -24.4200   54.8320   23.9350 C.3       4 GLP5        0.0000 
     19 CA        -24.6318   52.8088   24.2275 C.3       2 GLC5        0.0000 
     20 CA        -25.2760   50.5090   24.0740 C.3       6 GLL5        0.0000 
     21 CA        -24.8382   49.2327   25.7515 C.3       2 GLC5        0.0000 
     22 CA        -24.4110   51.0620   24.9660 C.3       6 GLL5        0.0000 
     23 CA        -24.8330   47.6800   26.9830 C.3       4 GLP5        0.0000 
     24 CA        -21.3517   50.4275   25.0770 C.3       2 GLC5        0.0000 
     25 CA        -23.1790   50.4850   25.1300 C.3       6 GLL5        0.0000 
     26 CA        -19.6870   50.9290   25.3930 C.3       4 GLP5        0.0000 
     27 CA        -23.9247   48.8030   25.8720 C.3       2 GLC5        0.0000 
     28 CA        -26.2377   47.1137   23.0403 C.3       2 GLC5        0.0000 
     29 CA        -25.4130   48.2980   21.2910 C.3       6 GLL5        0.0000 
     30 CA        -26.5859   46.5244   18.7121 C.3       2 GLC5        0.0000 
     31 CA        -24.7340   47.1340   18.9090 C.3       6 GLL5        0.0000 
     32 CA        -28.1400   46.1630   17.6990 C.3       4 GLP5        0.0000 
     33 CA        -26.6758   43.1203   16.9947 C.3       2 GLC5        0.0000 
     34 CA        -24.8330   43.0570   17.3230 C.3       6 GLL5        0.0000 
     35 CA        -28.4250   43.8680   16.5380 C.3       4 GLP5        0.0000 
     36 CA        -26.7610   42.4453   16.2050 C.3       2 GLC5        0.0000 
     37 CA        -25.1360   40.7970   16.5250 C.3       6 GLL5        0.0000 
     38 CA        -23.5731   40.7864   17.9676 C.3       2 GLC5        0.0000 
     39 CA        -22.1150   39.9880   18.9470 C.3       4 GLP5        0.0000 
     40 CA        -26.2662   39.0919   14.9140 C.3       2 GLC5        0.0000 
     41 CA        -25.1640   40.4550   14.1880 C.3       6 GLL5        0.0000 
     42 CA        -27.4020   37.4450   14.7980 C.3       4 GLP5        0.0000 
     43 CA        -23.9432   39.4299   14.7800 C.3       2 GLC5        0.0000 
     44 CA        -22.7560   38.1210   14.5300 C.3       4 GLP5        0.0000 
     45 CA        -26.6215   43.4445   16.0318 C.3       2 GLC5        0.0000 
     46 CA        -24.8750   42.5680   14.9990 C.3       6 GLL5        0.0000 
     47 CA        -23.1100   43.3090   15.4355 C.3       2 GLC5        0.0000 
     48 CA        -21.3800   43.8370   16.4750 C.3       4 GLP5        0.0000 
     49 CA        -23.1119   43.3801   16.6134 C.3       2 GLC5        0.0000 
     50 CA        -24.7610   43.4740   16.0520 C.3       6 GLL5        0.0000 
     51 CA        -26.5332   48.3558   18.4935 C.3       2 GLC5        0.0000 
     52 CA        -24.6650   48.4930   19.0520 C.3       6 GLL5        0.0000 
     53 CA        -28.2210   47.9220   17.3370 C.3       4 GLP5        0.0000 
     54 CA        -23.0264   49.0039   18.9461 C.3       2 GLC5        0.0000 
     55 CA        -21.1900   49.5580   18.2780 C.3       4 GLP5        0.0000 
     56 CA        -26.4642   41.6541   13.5609 C.3       2 GLC5        0.0000 
     57 CA        -27.9530   41.4920   12.5720 C.3       4 GLP5        0.0000 
@<TRIPOS>BOND
@<TRIPOS>SUBSTRUCTURE
     1 SEC2       13 GROUP        1 X    SEC  0     ROOT SEC X 2
     2 GLC5        1 GROUP        1 X    GLC  0     **** GLC X 6
     3 SEP2       15 GROUP        1 Y    SEP  0     ROOT SEP Y 9
     4 GLP5        3 GROUP        1 Y    GLP  0     **** GLP Y 13
     5 SEL2       14 GROUP        1 Z    SEL  0     ROOT SEL Z 16
     6 GLL5        2 GROUP        1 Z    GLL  0     **** GLL Z 20
@<TRIPOS>SET

