#    Name: 4muw_2F4_2_ligand
#    Modification time : Tue Mar 25 12:23:48 2014

@<TRIPOS>MOLECULE
4muw_2F4_2_ligand
   51    55     1     0     0
SMALL
NO_CHARGES


@<TRIPOS>ATOM
      1 C01       -28.0220   51.8550   19.9650 C.3       1 2F4810      0.0000 
      2 N02       -28.2680   52.7060   21.0960 N.pl3     1 2F4810      0.0000 
      3 C03       -28.0360   52.1900   22.3950 C.ar      1 2F4810      0.0000 
      4 C04       -26.8200   51.6080   22.6540 C.ar      1 2F4810      0.0000 
      5 C05       -26.5130   51.0830   23.8730 C.ar      1 2F4810      0.0000 
      6 C06       -27.4810   51.1500   24.8240 C.ar      1 2F4810      0.0000 
      7 C07       -28.6970   51.7350   24.5280 C.ar      1 2F4810      0.0000 
      8 N08       -28.9630   52.2440   23.3370 N.ar      1 2F4810      0.0000 
      9 C09       -25.2760   50.5090   24.0740 C.ar      1 2F4810      0.0000 
     10 C10       -24.4110   51.0620   24.9660 C.ar      1 2F4810      0.0000 
     11 C11       -23.1790   50.4850   25.1300 C.ar      1 2F4810      0.0000 
     12 C12       -22.8540   49.3670   24.3920 C.ar      1 2F4810      0.0000 
     13 N13       -23.7160   48.8560   23.5170 N.ar      1 2F4810      0.0000 
     14 C14       -24.8870   49.4140   23.3430 C.ar      1 2F4810      0.0000 
     15 O15       -25.8010   48.8880   22.4740 O.3       1 2F4810      0.0000 
     16 C16       -25.4130   48.2980   21.2910 C.ar      1 2F4810      0.0000 
     17 C17       -25.5020   46.9330   21.1420 C.ar      1 2F4810      0.0000 
     18 C18       -25.1570   46.3420   19.9410 C.ar      1 2F4810      0.0000 
     19 C19       -24.7340   47.1340   18.9090 C.ar      1 2F4810      0.0000 
     20 N20       -24.3660   46.5730   17.6540 N.pl3     1 2F4810      0.0000 
     21 C21       -24.5560   45.2100   17.3130 C.2       1 2F4810      0.0000 
     22 N22       -24.6930   44.1680   18.1090 N.2       1 2F4810      0.0000 
     23 C23       -24.8330   43.0570   17.3230 C.ar      1 2F4810      0.0000 
     24 C24       -25.0200   41.6880   17.5800 C.ar      1 2F4810      0.0000 
     25 C25       -25.1360   40.7970   16.5250 C.ar      1 2F4810      0.0000 
     26 C26       -25.0580   41.2480   15.2190 C.ar      1 2F4810      0.0000 
     27 F27       -25.1640   40.4550   14.1880 F         1 2F4810      0.0000 
     28 C28       -24.8750   42.5680   14.9990 C.ar      1 2F4810      0.0000 
     29 F29       -24.8050   42.9940   13.7930 F         1 2F4810      0.0000 
     30 C30       -24.7610   43.4740   16.0520 C.ar      1 2F4810      0.0000 
     31 N31       -24.5880   44.8070   16.0600 N.pl3     1 2F4810      0.0000 
     32 C32       -24.6650   48.4930   19.0520 C.ar      1 2F4810      0.0000 
     33 C33       -25.0260   49.0860   20.2480 C.ar      1 2F4810      0.0000 
     34 H         -28.5977   53.6464   20.9592 H         1 2F4810      0.0000 
     35 H         -26.1060   51.5684   21.8842 H         1 2F4810      0.0000 
     36 H         -27.3179   50.7668   25.7707 H         1 2F4810      0.0000 
     37 H         -29.4220   51.7642   25.2961 H         1 2F4810      0.0000 
     38 H         -24.6714   51.8951   25.5079 H         1 2F4810      0.0000 
     39 H         -22.5010   50.8792   25.7960 H         1 2F4810      0.0000 
     40 H         -21.9146   48.9316   24.5370 H         1 2F4810      0.0000 
     41 H         -25.8270   46.3462   21.9276 H         1 2F4810      0.0000 
     42 H         -25.2196   45.3231   19.8317 H         1 2F4810      0.0000 
     43 H         -23.9303   47.2046   16.9434 H         1 2F4810      0.0000 
     44 H         -25.0694   41.3576   18.5499 H         1 2F4810      0.0000 
     45 H         -25.2812   39.7929   16.7149 H         1 2F4810      0.0000 
     46 H         -24.5029   45.3633   15.2677 H         1 2F4810      0.0000 
     47 H         -24.3425   49.0846   18.2667 H         1 2F4810      0.0000 
     48 H         -24.9998   50.1101   20.3405 H         1 2F4810      0.0000 
     49 H         -27.0697   51.5521   19.9283 H         1 2F4810      0.0000 
     50 H         -28.5905   51.0326   19.9884 H         1 2F4810      0.0000 
     51 H         -28.2151   52.3203   19.1012 H         1 2F4810      0.0000 
@<TRIPOS>BOND
     1    2    1 1    
     2   49    1 1    
     3   50    1 1    
     4   51    1 1    
     5    3    2 1    
     6   34    2 1    
     7    4    3 ar   
     8    8    3 ar   
     9    5    4 ar   
    10   35    4 1    
    11    6    5 ar   
    12    9    5 1    
    13    7    6 ar   
    14   36    6 1    
    15    8    7 ar   
    16   37    7 1    
    17   10    9 ar   
    18   14    9 ar   
    19   11   10 ar   
    20   38   10 1    
    21   12   11 ar   
    22   39   11 1    
    23   13   12 ar   
    24   40   12 1    
    25   14   13 ar   
    26   15   14 1    
    27   16   15 1    
    28   17   16 ar   
    29   33   16 ar   
    30   18   17 ar   
    31   41   17 1    
    32   19   18 ar   
    33   42   18 1    
    34   20   19 1    
    35   32   19 ar   
    36   21   20 1    
    37   43   20 1    
    38   22   21 2    
    39   31   21 1    
    40   23   22 1    
    41   24   23 ar   
    42   30   23 ar   
    43   25   24 ar   
    44   44   24 1    
    45   26   25 ar   
    46   45   25 1    
    47   27   26 1    
    48   28   26 ar   
    49   29   28 1    
    50   30   28 ar   
    51   31   30 1    
    52   46   31 1    
    53   33   32 ar   
    54   47   32 1    
    55   48   33 1    
@<TRIPOS>SUBSTRUCTURE
     1 2F4810      1 GROUP   
@<TRIPOS>SET

