#    Name: 1fm9_570_2_INTS_M
#    Modification time : Tue Mar 25 01:30:36 2014

@<TRIPOS>MOLECULE
1fm9_570_2_INTS_M
  112     0     6     0     0
SMALL
NO_CHARGES


@<TRIPOS>ATOM
      1 CA         12.7830   -3.5565   14.3785 C.3       2 GLC5        0.0000 
      2 CA         14.0590   -4.2800   13.1630 C.3       6 GLL5        0.0000 
      3 CA         11.5070   -2.8330   15.5940 C.3       4 GLP5        0.0000 
      4 CA         12.2215   -5.7410   10.2390 C.3       2 GLC5        0.0000 
      5 CA         11.7640   -4.6810   12.1280 C.3       6 GLL5        0.0000 
      6 CA         12.6790   -6.8010    8.3500 C.3       4 GLP5        0.0000 
      7 CA          9.3885   -3.0740   11.8805 C.3       2 GLC5        0.0000 
      8 CA         10.7800   -4.4500   11.1480 C.3       6 GLL5        0.0000 
      9 CA          7.9970   -1.6980   12.6130 C.3       4 GLP5        0.0000 
     10 CA          9.0415   -5.5010   11.2045 C.3       2 GLC5        0.0000 
     11 CA          7.3030   -6.5520   11.2610 C.3       4 GLP5        0.0000 
     12 CA         12.4915   -4.8135    9.1865 C.3       2 GLC5        0.0000 
     13 CA         12.3040   -2.8260   10.0230 C.3       6 GLL5        0.0000 
     14 CA         12.9235   -1.6275    8.2915 C.3       2 GLC5        0.0000 
     15 CA         13.5430   -0.4290    6.5600 C.3       4 GLP5        0.0000 
     16 CA          9.6680   -2.1110   10.2085 C.3       2 GLC5        0.0000 
     17 CA         11.0160   -3.5280   10.0790 C.3       6 GLL5        0.0000 
     18 CA          8.3200   -0.6940   10.3380 C.3       4 GLP5        0.0000 
     19 CA         14.3005  -10.7660    8.7510 C.3       2 GLC5        0.0000 
     20 CA         15.0700   -9.9720   10.4770 C.3       6 GLL5        0.0000 
     21 CA         13.5310  -11.5600    7.0250 C.3       4 GLP5        0.0000 
     22 CA         15.5180  -10.7525   12.5005 C.3       2 GLC5        0.0000 
     23 CA         15.9660  -11.5330   14.5240 C.3       4 GLP5        0.0000 
     24 CA         12.2850   -8.4855    9.6475 C.3       2 GLC5        0.0000 
     25 CA         11.8910  -10.1700   10.9450 C.3       6 GLL5        0.0000 
     26 CA         10.7310   -8.4140    9.2715 C.3       2 GLC5        0.0000 
     27 CA         10.5890   -9.8870   10.3830 C.3       6 GLL5        0.0000 
     28 CA         10.8730   -6.9410    8.1600 C.3       4 GLP5        0.0000 
     29 CA          9.3285  -14.2030   10.3180 C.3       2 GLC5        0.0000 
     30 CA         10.1070  -12.3000   10.2430 C.3       6 GLL5        0.0000 
     31 CA          8.5500  -16.1060   10.3930 C.3       4 GLP5        0.0000 
     32 CA         12.6940  -12.7725    9.1290 C.3       2 GLC5        0.0000 
     33 CA         11.3870  -12.5880   10.7970 C.3       6 GLL5        0.0000 
     34 CA         14.0010  -12.9570    7.4610 C.3       4 GLP5        0.0000 
     35 CA          9.1540   -6.3990    7.9720 C.3       2 GLC5        0.0000 
     36 CA          7.4350   -5.8570    7.7840 C.3       6 GLL5        0.0000 
     37 CA          5.6860   -4.6000    7.4765 C.3       2 GLC5        0.0000 
     38 CA          3.9370   -3.3430    7.1690 C.3       4 GLP5        0.0000 
     39 CA          5.6085   -6.5965    7.8345 C.3       2 GLC5        0.0000 
     40 CA          3.7820   -7.3360    7.8850 C.3       4 GLP5        0.0000 
     41 CA          7.3690   -6.2045    9.5225 C.3       2 GLC5        0.0000 
     42 CA          8.6790   -9.0955    0.7315 C.3       2 GLC5        0.0000 
     43 CA         10.2440   -8.1370    1.8620 C.3       6 GLL5        0.0000 
     44 CA          7.1140  -10.0540   -0.3990 C.3       4 GLP5        0.0000 
     45 CA         10.5030   -4.8135    8.0310 C.3       2 GLC5        0.0000 
     46 CA         10.1330   -2.6860    7.9020 C.3       6 GLL5        0.0000 
     47 CA         11.8380   -1.5575    7.2310 C.3       2 GLC5        0.0000 
     48 CA          6.9220   -2.0130    7.3610 C.3       2 GLC5        0.0000 
     49 CA          8.8860   -2.9130    7.0260 C.3       6 GLL5        0.0000 
     50 CA          4.9580   -1.1130    7.6960 C.3       4 GLP5        0.0000 
     51 CA          7.8825   -2.9775    5.2775 C.3       2 GLC5        0.0000 
     52 CA          6.8790   -3.0420    3.5290 C.3       4 GLP5        0.0000 
     53 N          17.2815   -3.8095   12.6990 N.am      1 SEC2        0.0000 
     54 N          17.2590   -4.8030   13.7310 N.am      5 SEL2        0.0000 
     55 N          17.3040   -2.8160   11.6670 N.am      3 SEP2        0.0000 
     56 N          17.4415   -4.1790   14.8035 N.am      1 SEC2        0.0000 
     57 N          17.6240   -3.5550   15.8760 N.am      3 SEP2        0.0000 
     58 N          14.7760   -6.9790   15.1200 N.am      1 SEC2        0.0000 
     59 N          15.9520   -6.2630   14.7920 N.am      5 SEL2        0.0000 
     60 N          13.6000   -7.6950   15.4480 N.am      3 SEP2        0.0000 
     61 N          16.4250   -6.1600   15.9035 N.am      1 SEC2        0.0000 
     62 N          16.8980   -6.0570   17.0150 N.am      3 SEP2        0.0000 
     63 CA         15.7545   -3.9438   11.6510 C.3       2 GLC5        0.0000 
     64 CA         15.1750   -5.2870   12.7430 C.3       6 GLL5        0.0000 
     65 CA         16.8920   -3.1040   10.3490 C.3       4 GLP5        0.0000 
     66 CA         15.5270   -3.9083   14.6425 C.3       2 GLC5        0.0000 
     67 CA         16.4370   -3.0330   16.3320 C.3       4 GLP5        0.0000 
     68 CA         13.3340   -2.0440   12.8803 C.3       2 GLC5        0.0000 
     69 CA         13.1280    0.0490   13.1430 C.3       4 GLP5        0.0000 
     70 CA         15.0225   -3.3168   10.9455 C.3       2 GLC5        0.0000 
     71 CA         13.2850   -3.0650   11.0120 C.3       6 GLL5        0.0000 
     72 CA         12.9612   -1.4483   11.8302 C.3       2 GLC5        0.0000 
     73 CA         10.8855   -5.4650    9.3867 C.3       2 GLC5        0.0000 
     74 CA         13.7442   -7.5638    9.8645 C.3       2 GLC5        0.0000 
     75 CA         14.3950   -8.8860   11.1480 C.3       6 GLL5        0.0000 
     76 CA         16.5185   -7.1855    9.7090 C.3       2 GLC5        0.0000 
     77 CA         15.2240   -7.7670   11.6100 C.3       6 GLL5        0.0000 
     78 CA         17.1020   -6.5850    7.9240 C.3       4 GLP5        0.0000 
     79 CA         18.1608  -10.3747   11.2393 C.3       2 GLC5        0.0000 
     80 CA         16.4700   -9.9630   10.2740 C.3       6 GLL5        0.0000 
     81 CA         19.4620  -11.3270   11.9790 C.3       4 GLP5        0.0000 
     82 CA         17.1732   -8.6699    9.1151 C.3       2 GLC5        0.0000 
     83 CA         17.2490   -8.8820   10.7250 C.3       6 GLL5        0.0000 
     84 CA         17.8370   -7.9150    7.6800 C.3       4 GLP5        0.0000 
     85 CA         18.2772   -7.2367   11.3347 C.3       2 GLC5        0.0000 
     86 CA         19.6070   -6.1300   11.6180 C.3       4 GLP5        0.0000 
     87 CA         12.8055  -11.2063    9.0347 C.3       2 GLC5        0.0000 
     88 CA          9.6493  -10.2988    8.2900 C.3       2 GLC5        0.0000 
     89 CA          9.1520  -10.1800    6.3710 C.3       4 GLP5        0.0000 
     90 CA          9.2469  -11.0449   11.9615 C.3       2 GLC5        0.0000 
     91 CA          9.7040  -10.9480   10.0350 C.3       6 GLL5        0.0000 
     92 CA          8.3670  -10.7310   13.6970 C.3       4 GLP5        0.0000 
     93 CA         12.7340  -13.5248   12.0817 C.3       2 GLC5        0.0000 
     94 CA         13.6400  -14.9880   13.1930 C.3       4 GLP5        0.0000 
     95 CA          9.7440   -5.9110    7.2770 C.3       2 GLC5        0.0000 
     96 CA          8.3000   -5.5050    6.5670 C.3       6 GLL5        0.0000 
     97 CA          7.7470   -3.9615    4.9615 C.3       2 GLC5        0.0000 
     98 CA         12.0895   -6.4595    3.2748 C.3       2 GLC5        0.0000 
     99 CA          9.9910   -6.1960    3.3780 C.3       6 GLL5        0.0000 
    100 CA         13.7910   -7.1190    3.6260 C.3       4 GLP5        0.0000 
    101 CA         12.4748   -6.8915    2.3765 C.3       2 GLC5        0.0000 
    102 CA         11.0230   -7.3440    0.9760 C.3       6 GLL5        0.0000 
    103 CA          9.0850   -5.0910    1.3994 C.3       2 GLC5        0.0000 
    104 CA         11.2940   -5.9840    1.2780 C.3       6 GLL5        0.0000 
    105 CA          7.3290   -4.2900    0.6980 C.3       4 GLP5        0.0000 
    106 CA         10.3462   -9.4030    3.5140 C.3       2 GLC5        0.0000 
    107 CA          9.7290   -7.5690    3.0540 C.3       6 GLL5        0.0000 
    108 CA         10.7060  -10.9530    4.5700 C.3       4 GLP5        0.0000 
    109 CA         11.8887   -7.4860    3.0420 C.3       2 GLC5        0.0000 
    110 CA          8.1420   -7.4799    2.5025 C.3       2 GLC5        0.0000 
    111 CA          6.2320   -7.4500    2.4660 C.3       4 GLP5        0.0000 
    112 CA          8.9147   -1.7468    8.9010 C.3       2 GLC5        0.0000 
@<TRIPOS>BOND
@<TRIPOS>SUBSTRUCTURE
     1 SEC2       53 GROUP        1 X    SEC  0     ROOT SEC X 2
     2 GLC5        1 GROUP        1 X    GLC  0     **** GLC X 6
     3 SEP2       55 GROUP        1 Y    SEP  0     ROOT SEP Y 9
     4 GLP5        3 GROUP        1 Y    GLP  0     **** GLP Y 13
     5 SEL2       54 GROUP        1 Z    SEL  0     ROOT SEL Z 16
     6 GLL5        2 GROUP        1 Z    GLL  0     **** GLL Z 20
@<TRIPOS>SET

