#    Name: 1fm9_570_2_ligand
#    Modification time : Tue Mar 25 01:30:36 2014

@<TRIPOS>MOLECULE
1fm9_570_2_ligand
   70    74     1     0     0
SMALL
NO_CHARGES


@<TRIPOS>ATOM
      1 N          14.6300   -6.6230   12.2970 N.pl3     1 570200      0.0000 
      2 CA         15.1750   -5.2870   12.7430 C.3       1 570200      0.0000 
      3 CB         14.0590   -4.2800   13.1630 C.3       1 570200      0.0000 
      4 CG         13.0210   -3.9940   12.0720 C.ar      1 570200      0.0000 
      5 CD1        11.7640   -4.6810   12.1280 C.ar      1 570200      0.0000 
      6 CD2        13.2850   -3.0650   11.0120 C.ar      1 570200      0.0000 
      7 CE1        10.7800   -4.4500   11.1480 C.ar      1 570200      0.0000 
      8 CE2        12.3040   -2.8260   10.0230 C.ar      1 570200      0.0000 
      9 CZ         11.0160   -3.5280   10.0790 C.ar      1 570200      0.0000 
     10 OH          9.9370   -3.3850    9.1550 O.3       1 570200      0.0000 
     11 C1A        15.2240   -7.7670   11.6100 C.ar      1 570200      0.0000 
     12 C1F        14.3950   -8.8860   11.1480 C.ar      1 570200      0.0000 
     13 C1E        15.0700   -9.9720   10.4770 C.ar      1 570200      0.0000 
     14 C1D        16.4700   -9.9630   10.2740 C.ar      1 570200      0.0000 
     15 C1C        17.2490   -8.8820   10.7250 C.ar      1 570200      0.0000 
     16 C1B        16.6460   -7.8050   11.3780 C.ar      1 570200      0.0000 
     17 C1H        11.8910  -10.1700   10.9450 C.ar      1 570200      0.0000 
     18 C1I        10.5890   -9.8870   10.3830 C.ar      1 570200      0.0000 
     19 C1J         9.7040  -10.9480   10.0350 C.ar      1 570200      0.0000 
     20 C1K        10.1070  -12.3000   10.2430 C.ar      1 570200      0.0000 
     21 C1L        11.3870  -12.5880   10.7970 C.ar      1 570200      0.0000 
     22 C1M        12.2690  -11.5350   11.1440 C.ar      1 570200      0.0000 
     23 C1G        12.8220   -9.0230   11.3070 C.2       1 570200      0.0000 
     24 O1G        12.2120   -8.0260   11.7450 O.2       1 570200      0.0000 
     25 O3F         8.6790   -6.3110    5.5150 O.3       1 570200      0.0000 
     26 C3G         9.4630   -5.6750    4.5590 C.2       1 570200      0.0000 
     27 N3H         9.6210   -4.3510    5.0320 N.2       1 570200      0.0000 
     28 C3C         8.9300   -4.2570    6.2210 C.2       1 570200      0.0000 
     29 C3D         8.3000   -5.5050    6.5670 C.2       1 570200      0.0000 
     30 C3E         7.4350   -5.8570    7.7840 C.3       1 570200      0.0000 
     31 C3I         9.9910   -6.1960    3.3780 C.ar      1 570200      0.0000 
     32 C3N        10.7850   -5.4040    2.4690 C.ar      1 570200      0.0000 
     33 C3M        11.2940   -5.9840    1.2780 C.ar      1 570200      0.0000 
     34 C3L        11.0230   -7.3440    0.9760 C.ar      1 570200      0.0000 
     35 C3K        10.2440   -8.1370    1.8620 C.ar      1 570200      0.0000 
     36 C3J         9.7290   -7.5690    3.0540 C.ar      1 570200      0.0000 
     37 C3A        10.1330   -2.6860    7.9020 C.3       1 570200      0.0000 
     38 C3B         8.8860   -2.9130    7.0260 C.3       1 570200      0.0000 
     39 O2         17.2590   -4.8030   13.7310 O.co2     1 570200      0.0000 
     40 O1         15.9520   -6.2630   14.7920 O.co2     1 570200      0.0000 
     41 C          16.1870   -5.4460   13.8430 C.2       1 570200      0.0000 
     42 H          13.5670   -6.7446   12.5479 H         1 570200      0.0000 
     43 H          15.6961   -4.8266   11.8775 H         1 570200      0.0000 
     44 H          14.5417   -3.3373   13.4614 H         1 570200      0.0000 
     45 H          13.5504   -4.6822   14.0519 H         1 570200      0.0000 
     46 H          11.5919   -5.3407   12.8889 H         1 570200      0.0000 
     47 H          14.1799   -2.5833   10.9800 H         1 570200      0.0000 
     48 H           9.8832   -4.9415   11.1914 H         1 570200      0.0000 
     49 H          12.4667   -2.1744    9.2652 H         1 570200      0.0000 
     50 H          14.5087  -10.7650   10.1435 H         1 570200      0.0000 
     51 H          16.9165  -10.7512    9.7947 H         1 570200      0.0000 
     52 H          18.2637   -8.8892   10.5714 H         1 570200      0.0000 
     53 H          17.2128   -7.0117   11.7082 H         1 570200      0.0000 
     54 H          10.3112   -8.9190   10.2385 H         1 570200      0.0000 
     55 H           8.7920  -10.7433    9.6413 H         1 570200      0.0000 
     56 H           9.4777  -13.0605    9.9946 H         1 570200      0.0000 
     57 H          11.6671  -13.5583   10.9434 H         1 570200      0.0000 
     58 H          13.1869  -11.7470   11.5413 H         1 570200      0.0000 
     59 H          10.9736   -4.4314    2.6918 H         1 570200      0.0000 
     60 H          11.8553   -5.4228    0.6381 H         1 570200      0.0000 
     61 H          11.3897   -7.7567    0.1166 H         1 570200      0.0000 
     62 H          10.0570   -9.1130    1.6386 H         1 570200      0.0000 
     63 H           9.1674   -8.1338    3.6909 H         1 570200      0.0000 
     64 H          10.9945   -3.0660    7.3615 H         1 570200      0.0000 
     65 H          10.2451   -1.6167    8.0528 H         1 570200      0.0000 
     66 H           7.9948   -2.9219    7.6602 H         1 570200      0.0000 
     67 H           8.7895   -2.0890    6.3131 H         1 570200      0.0000 
     68 H           7.8403   -6.5920    8.3276 H         1 570200      0.0000 
     69 H           7.3152   -5.0734    8.3937 H         1 570200      0.0000 
     70 H           6.5212   -6.1612    7.5147 H         1 570200      0.0000 
@<TRIPOS>BOND
     1    2    1 1    
     2   11    1 1    
     3   42    1 1    
     4    3    2 1    
     5   41    2 1    
     6   43    2 1    
     7    4    3 1    
     8   44    3 1    
     9   45    3 1    
    10    5    4 ar   
    11    6    4 ar   
    12    7    5 ar   
    13   46    5 1    
    14    8    6 ar   
    15   47    6 1    
    16    9    7 ar   
    17   48    7 1    
    18    9    8 ar   
    19   49    8 1    
    20   10    9 1    
    21   37   10 1    
    22   12   11 ar   
    23   16   11 ar   
    24   13   12 ar   
    25   23   12 1    
    26   14   13 ar   
    27   50   13 1    
    28   15   14 ar   
    29   51   14 1    
    30   16   15 ar   
    31   52   15 1    
    32   53   16 1    
    33   18   17 ar   
    34   22   17 ar   
    35   23   17 1    
    36   19   18 ar   
    37   54   18 1    
    38   20   19 ar   
    39   55   19 1    
    40   21   20 ar   
    41   56   20 1    
    42   22   21 ar   
    43   57   21 1    
    44   58   22 1    
    45   24   23 2    
    46   26   25 1    
    47   29   25 1    
    48   27   26 2    
    49   31   26 1    
    50   28   27 1    
    51   29   28 2    
    52   38   28 1    
    53   30   29 1    
    54   68   30 1    
    55   69   30 1    
    56   70   30 1    
    57   32   31 ar   
    58   36   31 ar   
    59   33   32 ar   
    60   59   32 1    
    61   34   33 ar   
    62   60   33 1    
    63   35   34 ar   
    64   61   34 1    
    65   36   35 ar   
    66   62   35 1    
    67   63   36 1    
    68   38   37 1    
    69   64   37 1    
    70   65   37 1    
    71   66   38 1    
    72   67   38 1    
    73   41   39 ar   
    74   41   40 ar   
@<TRIPOS>SUBSTRUCTURE
     1 570200      1 GROUP   
@<TRIPOS>SET

