#    Name: 4FPO_1_CAVITY_N1_6.mol2
#    Modification time : Mon Mar 10 20:43:17 2014

@<TRIPOS>MOLECULE
4FPO_1_CAVITY_N1_6.mol2
   99     0     6     0     0
SMALL
NO_CHARGES


@<TRIPOS>ATOM
      1 N          -8.6061   -1.1999  -42.6010 N.2       2 ALA2        0.0000 
      2 OG         -9.6584   -1.9699  -41.8595 O.2       1 SER1        0.0000 
      3 N          -7.7276   -1.3333  -44.5272 N.2       2 ALA2        0.0000 
      4 N          -8.7799   -2.1033  -43.7857 N.2       2 ALA2        0.0000 
      5 OG         -9.8322   -2.8733  -43.0443 O.2       1 SER1        0.0000 
      6 N          -8.9536   -3.0067  -44.9705 N.2       2 ALA2        0.0000 
      7 OG        -10.0059   -3.7767  -44.2290 O.2       1 SER1        0.0000 
      8 N          -6.4991   -1.3469  -42.7979 N.2       2 ALA2        0.0000 
      9 DU         -7.5514   -2.1169  -42.0564 H         6 CUB7        0.0000 
     10 N          -6.6728   -2.2503  -43.9827 N.2       2 ALA2        0.0000 
     11 DU         -7.7251   -3.0203  -43.2412 H         6 CUB7        0.0000 
     12 OG         -8.7774   -3.7903  -42.4997 O.2       1 SER1        0.0000 
     13 N          -6.8466   -3.1537  -45.1674 N.2       2 ALA2        0.0000 
     14 CA         -7.8989   -3.9237  -44.4260 C.3       5 GLY6        0.0000 
     15 OG         -8.9512   -4.6937  -43.6845 O.2       1 SER1        0.0000 
     16 OG        -10.0035   -5.4637  -42.9430 O.2       1 SER1        0.0000 
     17 CA         -9.1249   -5.5971  -44.8693 C.3       5 GLY6        0.0000 
     18 N          -5.4443   -2.2640  -42.2533 N.2       2 ALA2        0.0000 
     19 DU         -7.5489   -3.8040  -40.7704 H         6 CUB7        0.0000 
     20 CZ         -8.6012   -4.5740  -40.0289 C.ar      4 PHE5        0.0000 
     21 N          -4.5658   -2.3974  -44.1796 N.2       2 ALA2        0.0000 
     22 OG         -5.6181   -3.1674  -43.4381 O.2       1 SER1        0.0000 
     23 DU         -6.6704   -3.9374  -42.6966 H         6 CUB7        0.0000 
     24 CZ         -7.7227   -4.7074  -41.9552 C.ar      4 PHE5        0.0000 
     25 CA         -6.8441   -4.8408  -43.8814 C.3       5 GLY6        0.0000 
     26 CA         -7.8964   -5.6108  -43.1399 C.3       5 GLY6        0.0000 
     27 CZ         -8.9487   -6.3808  -42.3985 C.ar      4 PHE5        0.0000 
     28 CA         -8.0702   -6.5142  -44.3247 C.3       5 GLY6        0.0000 
     29 DU         -7.1989   -3.6842  -37.1148 H         6 CUB7        0.0000 
     30 OG         -8.2512   -4.4542  -36.3733 O.2       1 SER1        0.0000 
     31 DU         -6.3204   -3.8176  -39.0411 H         6 CUB7        0.0000 
     32 DU         -7.3727   -4.5876  -38.2996 H         6 CUB7        0.0000 
     33 OG         -8.4250   -5.3576  -37.5581 O.2       1 SER1        0.0000 
     34 CA         -3.3373   -2.4110  -42.4502 C.3       5 GLY6        0.0000 
     35 CA         -4.3896   -3.1810  -41.7088 C.3       5 GLY6        0.0000 
     36 DU         -5.4419   -3.9510  -40.9673 H         6 CUB7        0.0000 
     37 DU         -6.4941   -4.7210  -40.2258 H         6 CUB7        0.0000 
     38 CZ         -7.5464   -5.4910  -39.4844 C.ar      4 PHE5        0.0000 
     39 CZ         -8.5987   -6.2610  -38.7429 C.ar      4 PHE5        0.0000 
     40 CA         -4.5633   -4.0844  -42.8935 C.3       5 GLY6        0.0000 
     41 CA         -5.6156   -4.8544  -42.1521 C.3       5 GLY6        0.0000 
     42 DU         -6.6679   -5.6244  -41.4106 H         6 CUB7        0.0000 
     43 CZ         -7.7202   -6.3944  -40.6691 C.ar      4 PHE5        0.0000 
     44 CA         -6.8417   -6.5278  -42.5954 C.3       5 GLY6        0.0000 
     45 CZ         -7.8940   -7.2978  -41.8539 C.ar      4 PHE5        0.0000 
     46 CZ         -8.9463   -8.0678  -41.1124 C.ar      4 PHE5        0.0000 
     47 CA         -8.0677   -8.2012  -43.0387 C.3       5 GLY6        0.0000 
     48 CA         -9.1200   -8.9712  -42.2972 C.3       5 GLY6        0.0000 
     49 OG         -5.7966   -2.7945  -34.2007 O.2       1 SER1        0.0000 
     50 OG         -5.9704   -3.6979  -35.3855 O.2       1 SER1        0.0000 
     51 OG         -7.0227   -4.4679  -34.6440 O.2       1 SER1        0.0000 
     52 NZ         -6.1442   -4.6013  -36.5703 N.2       3 LYS4        0.0000 
     53 OG         -7.1964   -5.3713  -35.8288 O.2       1 SER1        0.0000 
     54 NZ         -5.2656   -4.7347  -38.4965 N.2       3 LYS4        0.0000 
     55 NZ         -6.3179   -5.5047  -37.7550 N.2       3 LYS4        0.0000 
     56 OG         -7.3702   -6.2747  -37.0136 O.2       1 SER1        0.0000 
     57 CA         -3.3348   -4.0981  -41.1642 C.3       5 GLY6        0.0000 
     58 CA         -4.3871   -4.8681  -40.4227 C.3       5 GLY6        0.0000 
     59 NZ         -5.4394   -5.6381  -39.6813 N.2       3 LYS4        0.0000 
     60 DU         -6.4917   -6.4081  -38.9398 H         6 CUB7        0.0000 
     61 OG         -7.5440   -7.1781  -38.1983 O.2       1 SER1        0.0000 
     62 CA         -4.5609   -5.7715  -41.6075 C.3       5 GLY6        0.0000 
     63 CA         -5.6132   -6.5415  -40.8660 C.3       5 GLY6        0.0000 
     64 CA         -6.6655   -7.3115  -40.1246 C.3       5 GLY6        0.0000 
     65 CZ         -7.7177   -8.0815  -39.3831 C.ar      4 PHE5        0.0000 
     66 CA         -5.7869   -7.4449  -42.0508 C.3       5 GLY6        0.0000 
     67 CA         -6.8392   -8.2149  -41.3093 C.3       5 GLY6        0.0000 
     68 NZ         -7.8915   -8.9849  -40.5679 N.2       3 LYS4        0.0000 
     69 CA         -7.0130   -9.1183  -42.4941 C.3       5 GLY6        0.0000 
     70 CZ         -3.6896   -2.9415  -34.3976 C.ar      4 PHE5        0.0000 
     71 CZ         -4.7419   -3.7115  -33.6562 C.ar      4 PHE5        0.0000 
     72 O          -5.7942   -4.4815  -32.9147 O.2       2 ALA2        0.0000 
     73 NZ         -4.9156   -4.6149  -34.8409 N.2       3 LYS4        0.0000 
     74 CA         -5.9679   -5.3849  -34.0995 C.3       5 GLY6        0.0000 
     75 NZ         -5.0894   -5.5183  -36.0257 N.2       3 LYS4        0.0000 
     76 CA         -6.1417   -6.2883  -35.2842 C.3       5 GLY6        0.0000 
     77 CA         -7.1940   -7.0583  -34.5428 C.3       5 GLY6        0.0000 
     78 NZ         -5.2632   -6.4217  -37.2105 N.2       3 LYS4        0.0000 
     79 OG         -6.3155   -7.1917  -36.4690 O.2       1 SER1        0.0000 
     80 OG         -7.3678   -7.9617  -35.7275 O.2       1 SER1        0.0000 
     81 NZ         -4.3847   -6.5551  -39.1367 N.2       3 LYS4        0.0000 
     82 CA         -5.4369   -7.3251  -38.3952 C.3       5 GLY6        0.0000 
     83 NZ         -6.4892   -8.0951  -37.6538 N.2       3 LYS4        0.0000 
     84 CA         -5.6107   -8.2285  -39.5800 C.3       5 GLY6        0.0000 
     85 NZ         -6.6630   -8.9985  -38.8385 N.2       3 LYS4        0.0000 
     86 CZ         -3.6871   -4.6285  -33.1116 C.ar      4 PHE5        0.0000 
     87 O          -4.7394   -5.3985  -32.3701 O.2       2 ALA2        0.0000 
     88 NZ         -3.8609   -5.5319  -34.2964 N.2       3 LYS4        0.0000 
     89 OG         -4.9132   -6.3019  -33.5549 O.2       1 SER1        0.0000 
     90 OG         -5.0870   -7.2053  -34.7397 O.2       1 SER1        0.0000 
     91 NZ         -5.2607   -8.1087  -35.9244 N.2       3 LYS4        0.0000 
     92 NZ         -6.3130   -8.8788  -35.1830 N.2       3 LYS4        0.0000 
     93 NZ         -5.4345   -9.0121  -37.1092 N.2       3 LYS4        0.0000 
     94 NZ         -1.7539   -5.6790  -34.4933 N.2       3 LYS4        0.0000 
     95 OG         -2.8062   -6.4490  -33.7518 O.2       1 SER1        0.0000 
     96 NZ         -2.9799   -7.3524  -34.9366 N.2       3 LYS4        0.0000 
     97 OG         -4.0322   -8.1224  -34.1951 O.2       1 SER1        0.0000 
     98 NZ         -3.1537   -8.2558  -36.1214 N.2       3 LYS4        0.0000 
     99 NZ         -4.2060   -9.0258  -35.3799 N.2       3 LYS4        0.0000 
@<TRIPOS>BOND
@<TRIPOS>SUBSTRUCTURE
     1 SER1        2 GROUP   
     2 ALA2        1 GROUP   
     3 LYS4       52 GROUP   
     4 PHE5       20 GROUP   
     5 GLY6       14 GROUP   
     6 CUB7        9 GROUP   
@<TRIPOS>SET

