#    Name: 4fpo_LL9_1_INTS_M
#    Modification time : Mon Mar 24 20:32:03 2014

@<TRIPOS>MOLECULE
4fpo_LL9_1_INTS_M
   60     0    12     0     0
SMALL
NO_CHARGES


@<TRIPOS>ATOM
      1 NZ         -4.9955   -5.7080  -30.8260 N.4       3 LYC4        0.0000 
      2 NZ         -3.9110   -5.2370  -31.7400 N.4      11 LYL4        0.0000 
      3 NZ         -6.6330   -5.0320  -29.5390 N.4       7 LYP4        0.0000 
      4 NZ         -3.3880   -5.4055  -30.3960 N.4       3 LYC4        0.0000 
      5 NZ         -1.6220   -5.6920  -28.5920 N.4       7 LYP4        0.0000 
      6 N          -4.9955   -5.7080  -30.8260 N.am      1 SEC2        0.0000 
      7 N          -3.9110   -5.2370  -31.7400 N.am      9 SEL2        0.0000 
      8 N          -6.0800   -6.1790  -29.9120 N.am      5 SEP2        0.0000 
      9 N          -5.0005   -4.5565  -30.8215 N.am      1 SEC2        0.0000 
     10 N          -6.0900   -3.8760  -29.9030 N.am      5 SEP2        0.0000 
     11 N          -3.3880   -5.4055  -30.3960 N.am      1 SEC2        0.0000 
     12 N          -2.8650   -5.5740  -29.0520 N.am      5 SEP2        0.0000 
     13 N          -4.3870   -6.7590  -31.7660 N.am      1 SEC2        0.0000 
     14 N          -4.8630   -8.2810  -31.7920 N.am      5 SEP2        0.0000 
     15 NZ         -1.1220   -7.3030  -32.1705 N.4       3 LYC4        0.0000 
     16 NZ         -1.5900   -5.8490  -32.1120 N.4      11 LYL4        0.0000 
     17 NZ          0.3850   -8.6530  -33.0650 N.4       7 LYP4        0.0000 
     18 NZ         -2.2275   -5.7115  -30.5820 N.4       3 LYC4        0.0000 
     19 N          -0.4720   -6.6675  -32.8900 N.am      1 SEC2        0.0000 
     20 N          -1.5900   -5.8490  -32.1120 N.am      9 SEL2        0.0000 
     21 N           0.6460   -7.4860  -33.6680 N.am      5 SEP2        0.0000 
     22 N          -1.1220   -7.3030  -32.1705 N.am      1 SEC2        0.0000 
     23 N          -0.6540   -8.7570  -32.2290 N.am      5 SEP2        0.0000 
     24 N          -1.1110   -5.9195  -30.7725 N.am      1 SEC2        0.0000 
     25 N          -0.6320   -5.9900  -29.4330 N.am      5 SEP2        0.0000 
     26 N          -2.2275   -5.7115  -30.5820 N.am      1 SEC2        0.0000 
     27 CA         -3.7350   -7.9360  -32.5850 C.3       4 GLC5        0.0000 
     28 CA         -3.3670   -6.5890  -33.9390 C.3      12 GLL5        0.0000 
     29 CA         -4.1030   -9.2830  -31.2310 C.3       8 GLP5        0.0000 
     30 CA         -6.7785   -6.0695  -33.7235 C.3       4 GLC5        0.0000 
     31 CA         -4.7290   -6.2460  -34.6100 C.3      12 GLL5        0.0000 
     32 CA         -8.8280   -5.8930  -32.8370 C.3       8 GLP5        0.0000 
     33 OD1        -3.8695   -6.2835  -36.6170 O.co2     2 ASC3        0.0000 
     34 OD1        -4.9440   -6.7990  -35.9310 O.co2    10 ASL3        0.0000 
     35 OD1        -2.7950   -5.7680  -37.3030 O.co2     6 ASP3        0.0000 
     36 CA         -3.5125   -5.8885  -39.0935 C.3       4 GLC5        0.0000 
     37 CA         -5.5760   -5.9160  -38.9650 C.3      12 GLL5        0.0000 
     38 CA         -1.4490   -5.8610  -39.2220 C.3       8 GLP5        0.0000 
     39 CA         -3.1605   -5.7110  -40.3925 C.3       4 GLC5        0.0000 
     40 CA         -4.8720   -5.5610  -41.5630 C.3      12 GLL5        0.0000 
     41 CA         -3.3965   -5.1015  -42.4395 C.3       4 GLC5        0.0000 
     42 CA         -1.9210   -4.6420  -43.3160 C.3       8 GLP5        0.0000 
     43 CA         -5.2945   -6.4500  -43.3400 C.3       4 GLC5        0.0000 
     44 CA         -5.7170   -7.3390  -45.1170 C.3       8 GLP5        0.0000 
     45 CA         -6.6230   -9.4595  -41.9130 C.3       4 GLC5        0.0000 
     46 CA         -8.1620   -8.3650  -42.2170 C.3      12 GLL5        0.0000 
     47 CA         -5.0840  -10.5540  -41.6090 C.3       8 GLP5        0.0000 
     48 CA         -8.4145  -10.2255  -42.1450 C.3       4 GLC5        0.0000 
     49 CA         -8.6670  -12.0860  -42.0730 C.3       8 GLP5        0.0000 
     50 CA         -6.9395   -7.8520  -43.6670 C.3       4 GLC5        0.0000 
     51 CA         -9.5250   -8.1335  -43.6455 C.3       4 GLC5        0.0000 
     52 CA        -10.8880   -7.9020  -45.0740 C.3       8 GLP5        0.0000 
     53 CA         -9.5510   -7.3510  -41.4910 C.3       4 GLC5        0.0000 
     54 CA        -10.9400   -6.3370  -40.7650 C.3       8 GLP5        0.0000 
     55 CA         -4.6247   -7.7058  -39.0637 C.3       4 GLC5        0.0000 
     56 CA         -3.2930   -9.2060  -39.6750 C.3       8 GLP5        0.0000 
     57 CA         -4.3155   -7.5630  -40.3030 C.3       4 GLC5        0.0000 
     58 CA         -5.8040   -6.2790  -40.2990 C.3      12 GLL5        0.0000 
     59 CA         -6.1297   -9.0388  -40.8588 C.3       4 GLC5        0.0000 
     60 CA         -6.8080   -7.2410  -40.6100 C.3      12 GLL5        0.0000 
@<TRIPOS>BOND
@<TRIPOS>SUBSTRUCTURE
     1 SEC2        6 GROUP        1 X    SEC  0     ROOT SEC X 2
     2 ASC3       33 GROUP        1 X    ASC  0     **** ASC X 3
     3 LYC4        1 GROUP        1 X    LYC  0     **** LYC X 4
     4 GLC5       27 GROUP        1 X    GLC  0     **** GLC X 6
     5 SEP2        8 GROUP        1 Y    SEP  0     ROOT SEP Y 9
     6 ASP3       35 GROUP        1 Y    ASP  0     **** ASP Y 10
     7 LYP4        3 GROUP        1 Y    LYP  0     **** LYP Y 11
     8 GLP5       29 GROUP        1 Y    GLP  0     **** GLP Y 13
     9 SEL2        7 GROUP        1 Z    SEL  0     ROOT SEL Z 16
    10 ASL3       34 GROUP        1 Z    ASL  0     **** ASL Z 17
    11 LYL4        2 GROUP        1 Z    LYL  0     **** LYL Z 18
    12 GLL5       28 GROUP        1 Z    GLL  0     **** GLL Z 20
@<TRIPOS>SET

