#    Name: 4fpo_LL9_1_ligand
#    Modification time : Mon Mar 24 20:32:03 2014

@<TRIPOS>MOLECULE
4fpo_LL9_1_ligand
   29    29     1     0     0
SMALL
NO_CHARGES


@<TRIPOS>ATOM
      1 OAD        -2.5680   -4.1990  -33.5070 O.co2     1 LL9701      0.0000 
      2 SAQ        -2.8100   -5.4210  -32.7930 S.o2      1 LL9701      0.0000 
      3 OAB        -3.9110   -5.2370  -31.7400 O.co2     1 LL9701      0.0000 
      4 OAC        -1.5900   -5.8490  -32.1120 O.co2     1 LL9701      0.0000 
      5 CAJ        -3.3670   -6.5890  -33.9390 C.3       1 LL9701      0.0000 
      6 CAI        -4.7290   -6.2460  -34.6100 C.3       1 LL9701      0.0000 
      7 NAL        -4.9440   -6.7990  -35.9310 N.4       1 LL9701      0.0000 
      8 CAK        -6.0900   -6.1220  -36.5660 C.3       1 LL9701      0.0000 
      9 CAN        -6.3370   -6.4950  -37.9400 C.ar      1 LL9701      0.0000 
     10 CAH        -5.5760   -5.9160  -38.9650 C.ar      1 LL9701      0.0000 
     11 CAO        -5.8040   -6.2790  -40.2990 C.ar      1 LL9701      0.0000 
     12 CL         -4.8720   -5.5610  -41.5630 Cl        1 LL9701      0.0000 
     13 CAP        -6.8080   -7.2410  -40.6100 C.ar      1 LL9701      0.0000 
     14 OAM        -7.0530   -7.6070  -41.9460 O.3       1 LL9701      0.0000 
     15 CAA        -8.1620   -8.3650  -42.2170 C.3       1 LL9701      0.0000 
     16 CAG        -7.5430   -7.8060  -39.6070 C.ar      1 LL9701      0.0000 
     17 CAF        -7.3100   -7.4370  -38.2330 C.ar      1 LL9701      0.0000 
     18 H          -3.4248   -7.5158  -33.3798 H         1 LL9701      0.0000 
     19 H          -2.5713   -6.6548  -34.6722 H         1 LL9701      0.0000 
     20 H          -4.8073   -5.1308  -34.6262 H         1 LL9701      0.0000 
     21 H          -5.5284   -6.5788  -33.9027 H         1 LL9701      0.0000 
     22 H          -5.9358   -5.0128  -36.4948 H         1 LL9701      0.0000 
     23 H          -7.0072   -6.3143  -35.9488 H         1 LL9701      0.0000 
     24 H          -4.8522   -5.2265  -38.7382 H         1 LL9701      0.0000 
     25 H          -8.2746   -8.5019  -39.7985 H         1 LL9701      0.0000 
     26 H          -7.8663   -7.8772  -37.5060 H         1 LL9701      0.0000 
     27 H          -8.2452   -8.5658  -43.1931 H         1 LL9701      0.0000 
     28 H          -8.1381   -9.2426  -41.7382 H         1 LL9701      0.0000 
     29 H          -9.0045   -7.9029  -41.9400 H         1 LL9701      0.0000 
@<TRIPOS>BOND
     1    2    1 ar   
     2    3    2 ar   
     3    4    2 ar   
     4    5    2 1    
     5    6    5 1    
     6   18    5 1    
     7   19    5 1    
     8    7    6 1    
     9   20    6 1    
    10   21    6 1    
    11    8    7 1    
    12    9    8 1    
    13   22    8 1    
    14   23    8 1    
    15   10    9 ar   
    16   17    9 ar   
    17   11   10 ar   
    18   24   10 1    
    19   12   11 1    
    20   13   11 ar   
    21   14   13 1    
    22   16   13 ar   
    23   15   14 1    
    24   27   15 1    
    25   28   15 1    
    26   29   15 1    
    27   17   16 ar   
    28   25   16 1    
    29   26   17 1    
@<TRIPOS>SUBSTRUCTURE
     1 LL9701      1 GROUP   
@<TRIPOS>SET

