#    Name: 1kor_ANP_4_INTS_M
#    Modification time : Tue Mar 25 10:16:41 2014

@<TRIPOS>MOLECULE
1kor_ANP_4_INTS_M
   67     0    12     0     0
SMALL
NO_CHARGES


@<TRIPOS>ATOM
      1 N          38.5145   50.6210   36.4290 N.am      2 SEC2        0.0000 
      2 N          38.2730   51.0480   35.3090 N.am     10 SEL2        0.0000 
      3 N          38.7560   50.1940   37.5490 N.am      6 SEP2        0.0000 
      4 N          38.1160   49.9335   35.2205 N.am      2 SEC2        0.0000 
      5 N          37.9590   48.8190   35.1320 N.am      6 SEP2        0.0000 
      6 N          39.9980   52.8945   36.4845 N.am      2 SEC2        0.0000 
      7 N          39.2610   53.4060   35.4610 N.am     10 SEL2        0.0000 
      8 N          40.7350   52.3830   37.5080 N.am      6 SEP2        0.0000 
      9 N          37.1560   51.7525   33.1350 N.am      2 SEC2        0.0000 
     10 N          37.9330   52.7130   33.4450 N.am     10 SEL2        0.0000 
     11 N          36.3790   50.7920   32.8250 N.am      6 SEP2        0.0000 
     12 NZ         31.7075   57.0040   35.6595 N.4       3 LYC4        0.0000 
     13 NZ         32.7650   56.6660   36.1910 N.4      11 LYL4        0.0000 
     14 NZ         30.4020   58.5100   34.5640 N.4       7 LYP4        0.0000 
     15 N          31.7075   57.0040   35.6595 N.am      2 SEC2        0.0000 
     16 N          32.7650   56.6660   36.1910 N.am     10 SEL2        0.0000 
     17 N          30.6500   57.3420   35.1280 N.am      6 SEP2        0.0000 
     18 N          31.7960   56.3890   34.5370 N.am      2 SEC2        0.0000 
     19 N          32.9420   55.4360   33.9460 N.am     10 SEL2        0.0000 
     20 CA         29.7110   51.3980   36.2210 C.3       4 GLC5        0.0000 
     21 CA         31.8830   51.8080   35.8970 C.3      12 GLL5        0.0000 
     22 CA         27.5390   50.9880   36.5450 C.3       8 GLP5        0.0000 
     23 N          32.6290   50.1470   38.2805 N.am      2 SEC2        0.0000 
     24 N          33.1630   50.4630   37.1950 N.am     10 SEL2        0.0000 
     25 N          32.0950   49.8310   39.3660 N.am      6 SEP2        0.0000 
     26 N          31.7900   49.2675   37.8415 N.am      2 SEC2        0.0000 
     27 N          31.4850   48.7040   36.3170 N.am     10 SEL2        0.0000 
     28 O          32.3730   47.7750   36.0075 O.2       1 ALC1        0.0000 
     29 O          31.4850   48.7040   36.3170 O.2       9 ALL1        0.0000 
     30 O          33.2610   46.8460   35.6980 O.2       5 ALP1        0.0000 
     31 CA         29.1800   50.2685   34.8795 C.3       4 GLC5        0.0000 
     32 CA         30.9340   50.0790   34.4930 C.3      12 GLL5        0.0000 
     33 CA         27.4260   50.4580   35.2660 C.3       8 GLP5        0.0000 
     34 CA         33.8065   48.6960   30.6730 C.3       4 GLC5        0.0000 
     35 CA         31.8050   48.5650   29.7880 C.3      12 GLL5        0.0000 
     36 CA         35.8080   48.8270   31.5580 C.3       8 GLP5        0.0000 
     37 CA         30.6135   47.1775   28.6470 C.3       4 GLC5        0.0000 
     38 CA         29.4220   45.7900   27.5060 C.3       8 GLP5        0.0000 
     39 O          31.8400   48.3475   27.4400 O.2       1 ALC1        0.0000 
     40 O          32.0350   49.1040   28.5500 O.2       9 ALL1        0.0000 
     41 O          31.6450   47.5910   26.3300 O.2       5 ALP1        0.0000 
     42 N          31.7635   46.2570   29.0055 N.am      2 SEC2        0.0000 
     43 N          31.7590   47.1870   29.9900 N.am     10 SEL2        0.0000 
     44 N          31.7680   45.3270   28.0210 N.am      6 SEP2        0.0000 
     45 CA         31.5650   45.9690   33.1930 C.3       4 GLC5        0.0000 
     46 CA         31.5200   46.7470   31.2750 C.3      12 GLL5        0.0000 
     47 CA         31.6100   45.1910   35.1110 C.3       8 GLP5        0.0000 
     48 CA         32.5370   45.5235   30.2780 C.3       4 GLC5        0.0000 
     49 CA         33.5540   44.3000   29.2810 C.3       8 GLP5        0.0000 
     50 CA         30.4710   46.2685   29.3905 C.3       4 GLC5        0.0000 
     51 CA         29.5180   46.8025   31.8400 C.3       4 GLC5        0.0000 
     52 CA         27.5160   46.8580   32.4050 C.3       8 GLP5        0.0000 
     53 CA         30.9280   47.5670   33.7410 C.3       4 GLC5        0.0000 
     54 CA         31.3630   48.9370   32.2030 C.3      12 GLL5        0.0000 
     55 CA         30.4930   46.1970   35.2790 C.3       8 GLP5        0.0000 
     56 CA         32.6282   51.0735   37.8975 C.3       4 GLC5        0.0000 
     57 CA         32.9110   50.8950   39.9150 C.3       8 GLP5        0.0000 
     58 CA         34.2155   49.7995   36.0050 C.3       4 GLC5        0.0000 
     59 CA         32.8080   50.6960   35.8630 C.3      12 GLL5        0.0000 
     60 CA         36.0060   49.4820   36.4140 C.3       8 GLP5        0.0000 
     61 CA         30.9905   48.0028   35.0950 C.3       4 GLC5        0.0000 
     62 CA         32.0420   49.5380   35.3290 C.3      12 GLL5        0.0000 
     63 CA         33.4555   49.7230   31.7420 C.3       4 GLC5        0.0000 
     64 CA         35.4270   50.2550   31.9280 C.3       8 GLP5        0.0000 
     65 CA         29.6690   49.1780   31.0129 C.3       4 GLC5        0.0000 
     66 CA         31.6050   49.4450   30.9090 C.3      12 GLL5        0.0000 
     67 CA         27.8040   49.3850   30.7500 C.3       8 GLP5        0.0000 
@<TRIPOS>BOND
@<TRIPOS>SUBSTRUCTURE
     1 ALC1       28 GROUP        1 X    ALC  0     ROOT ALC X 1
     2 SEC2        1 GROUP        1 X    SEC  0     **** SEC X 2
     3 LYC4       12 GROUP        1 X    LYC  0     **** LYC X 4
     4 GLC5       20 GROUP        1 X    GLC  0     **** GLC X 6
     5 ALP1       30 GROUP        1 Y    ALP  0     ROOT ALP Y 8
     6 SEP2        3 GROUP        1 Y    SEP  0     **** SEP Y 9
     7 LYP4       14 GROUP        1 Y    LYP  0     **** LYP Y 11
     8 GLP5       22 GROUP        1 Y    GLP  0     **** GLP Y 13
     9 ALL1       29 GROUP        1 Z    ALL  0     ROOT ALL Z 15
    10 SEL2        2 GROUP        1 Z    SEL  0     **** SEL Z 16
    11 LYL4       13 GROUP        1 Z    LYL  0     **** LYL Z 18
    12 GLL5       21 GROUP        1 Z    GLL  0     **** GLL Z 20
@<TRIPOS>SET

