#    Name: 1kor_ANP_4_ligand
#    Modification time : Tue Mar 25 10:16:41 2014

@<TRIPOS>MOLECULE
1kor_ANP_4_ligand
   43    45     1     0     0
SMALL
NO_CHARGES


@<TRIPOS>ATOM
      1 PG         38.1460   52.5010   34.9540 P.3       1 ANP3510     0.0000 
      2 O1G        38.2730   51.0480   35.3090 O.co2     1 ANP3510     0.0000 
      3 O2G        39.2610   53.4060   35.4610 O.co2     1 ANP3510     0.0000 
      4 O3G        37.9330   52.7130   33.4450 O.co2     1 ANP3510     0.0000 
      5 PB         36.0280   54.3880   35.2410 P.3       1 ANP3510     0.0000 
      6 O1B        35.6460   54.0750   33.8000 O.co2     1 ANP3510     0.0000 
      7 O2B        36.8330   55.6330   35.2900 O.co2     1 ANP3510     0.0000 
      8 N3B        36.7290   53.0570   35.6510 N.4       1 ANP3510     0.0000 
      9 PA         33.0530   55.3650   35.4570 P.3       1 ANP3510     0.0000 
     10 O1A        32.7650   56.6660   36.1910 O.co2     1 ANP3510     0.0000 
     11 O2A        32.9420   55.4360   33.9460 O.co2     1 ANP3510     0.0000 
     12 O3A        34.5480   54.8500   35.8900 O.3       1 ANP3510     0.0000 
     13 O5'        32.2150   54.1630   36.0850 O.3       1 ANP3510     0.0000 
     14 C5'        32.5340   53.0320   35.3210 C.3       1 ANP3510     0.0000 
     15 C4'        31.8830   51.8080   35.8970 C.3       1 ANP3510     0.0000 
     16 O4'        30.9130   51.4150   34.9610 O.3       1 ANP3510     0.0000 
     17 C3'        32.8080   50.6960   35.8630 C.3       1 ANP3510     0.0000 
     18 O3'        33.1630   50.4630   37.1950 O.3       1 ANP3510     0.0000 
     19 C2'        32.0420   49.5380   35.3290 C.3       1 ANP3510     0.0000 
     20 O2'        31.4850   48.7040   36.3170 O.3       1 ANP3510     0.0000 
     21 C1'        30.9340   50.0790   34.4930 C.3       1 ANP3510     0.0000 
     22 N9         31.2200   50.0260   32.9890 N.pl3     1 ANP3510     0.0000 
     23 C8         31.3750   51.1210   32.1900 C.2       1 ANP3510     0.0000 
     24 N7         31.6080   50.7790   30.9280 N.2       1 ANP3510     0.0000 
     25 C5         31.6050   49.4450   30.9090 C.ar      1 ANP3510     0.0000 
     26 C6         31.8050   48.5650   29.7880 C.ar      1 ANP3510     0.0000 
     27 N6         32.0350   49.1040   28.5500 N.pl3     1 ANP3510     0.0000 
     28 N1         31.7590   47.1870   29.9900 N.ar      1 ANP3510     0.0000 
     29 C2         31.5200   46.7470   31.2750 C.ar      1 ANP3510     0.0000 
     30 N3         31.3310   47.5800   32.3380 N.ar      1 ANP3510     0.0000 
     31 C4         31.3630   48.9370   32.2030 C.ar      1 ANP3510     0.0000 
     32 H          33.6239   52.8521   35.2861 H         1 ANP3510     0.0000 
     33 H          32.1976   53.1341   34.2732 H         1 ANP3510     0.0000 
     34 H          31.4992   51.9812   36.8319 H         1 ANP3510     0.0000 
     35 H          33.6251   50.9126   35.2433 H         1 ANP3510     0.0000 
     36 H          32.6962   48.9728   34.6586 H         1 ANP3510     0.0000 
     37 H          30.0372   49.5770   34.7290 H         1 ANP3510     0.0000 
     38 H          31.3173   52.0477   32.5281 H         1 ANP3510     0.0000 
     39 H          32.0795   50.1020   28.5060 H         1 ANP3510     0.0000 
     40 H          32.1383   48.4523   27.7986 H         1 ANP3510     0.0000 
     41 H          31.4822   45.6997   31.4394 H         1 ANP3510     0.0000 
     42 H          33.0813   51.3528   37.6439 H         1 ANP3510     0.0000 
     43 H          32.0190   47.8596   36.2739 H         1 ANP3510     0.0000 
@<TRIPOS>BOND
     1    2    1 ar   
     2    3    1 ar   
     3    4    1 ar   
     4    8    1 1    
     5    6    5 ar   
     6    7    5 ar   
     7    8    5 1    
     8   12    5 1    
     9   10    9 ar   
    10   11    9 ar   
    11   12    9 1    
    12   13    9 1    
    13   14   13 1    
    14   15   14 1    
    15   32   14 1    
    16   33   14 1    
    17   16   15 1    
    18   17   15 1    
    19   34   15 1    
    20   21   16 1    
    21   18   17 1    
    22   19   17 1    
    23   35   17 1    
    24   42   18 1    
    25   20   19 1    
    26   21   19 1    
    27   36   19 1    
    28   43   20 1    
    29   22   21 1    
    30   37   21 1    
    31   23   22 1    
    32   31   22 1    
    33   24   23 2    
    34   38   23 1    
    35   25   24 1    
    36   26   25 ar   
    37   31   25 ar   
    38   27   26 1    
    39   28   26 ar   
    40   39   27 1    
    41   40   27 1    
    42   29   28 ar   
    43   30   29 ar   
    44   41   29 1    
    45   31   30 ar   
@<TRIPOS>SUBSTRUCTURE
     1 ANP3510     1 GROUP   
@<TRIPOS>SET

