#    Name: 2CBJ_1_CAVITY_N1_6.mol2
#    Modification time : Tue Mar 11 06:51:00 2014

@<TRIPOS>MOLECULE
2CBJ_1_CAVITY_N1_6.mol2
   95     0     7     0     0
SMALL
NO_CHARGES


@<TRIPOS>ATOM
      1 NZ         33.6220   43.1659   22.4189 N.2       4 LYS4        0.0000 
      2 CZ         31.9115   44.1516   21.6426 C.ar      5 PHE5        0.0000 
      3 OD1        30.0699   45.4005   12.7940 O.3       3 ASP3        0.0000 
      4 OD1        31.9685   44.3867   10.2215 O.3       3 ASP3        0.0000 
      5 OD1        30.7655   45.0533   10.8203 O.3       3 ASP3        0.0000 
      6 CA         29.5624   45.7198   11.4190 C.3       6 GLY6        0.0000 
      7 DU         30.2580   45.3725    9.4453 H         7 CUB7        0.0000 
      8 DU         29.0550   46.0390   10.0440 H         7 CUB7        0.0000 
      9 CZ         34.0867   41.1941   21.7896 C.ar      5 PHE5        0.0000 
     10 DU         32.8836   41.8606   22.3883 H         7 CUB7        0.0000 
     11 O          31.6806   42.5271   22.9871 O.2       2 ALA2        0.0000 
     12 NZ         30.4776   43.1936   23.5858 N.2       4 LYS4        0.0000 
     13 OG         33.5792   41.5133   20.4146 O.2       1 SER1        0.0000 
     14 NZ         32.3762   42.1798   21.0133 N.2       4 LYS4        0.0000 
     15 CZ         31.1732   42.8463   21.6121 C.ar      5 PHE5        0.0000 
     16 CZ         29.9701   43.5128   22.2108 C.ar      5 PHE5        0.0000 
     17 CZ         30.6657   43.1655   20.2371 C.ar      5 PHE5        0.0000 
     18 CZ         30.1583   43.4848   18.8621 C.ar      5 PHE5        0.0000 
     19 CA         32.0569   42.4710   16.2897 C.3       6 GLY6        0.0000 
     20 NZ         30.8538   43.1375   16.8884 N.2       4 LYS4        0.0000 
     21 CA         31.5494   42.7902   14.9147 C.3       6 GLY6        0.0000 
     22 N          30.3464   43.4567   15.5134 N.2       2 ALA2        0.0000 
     23 OD1        29.8390   43.7760   14.1384 O.3       3 ASP3        0.0000 
     24 N          28.6359   44.4425   14.7371 N.2       2 ALA2        0.0000 
     25 CA         30.5345   43.4287   12.1647 C.3       6 GLY6        0.0000 
     26 OD1        29.3315   44.0952   12.7634 O.3       3 ASP3        0.0000 
     27 CA         30.0271   43.7479   10.7897 C.3       6 GLY6        0.0000 
     28 N          28.8241   44.4144   11.3884 N.2       2 ALA2        0.0000 
     29 CA         30.7227   43.4007    8.8160 C.3       6 GLY6        0.0000 
     30 DU         29.5196   44.0672    9.4147 H         7 CUB7        0.0000 
     31 CA         28.3166   44.7337   10.0134 C.3       6 GLY6        0.0000 
     32 CA         33.3483   39.8887   21.7590 C.3       6 GLY6        0.0000 
     33 O          32.1453   40.5553   22.3578 O.2       2 ALA2        0.0000 
     34 N          30.9422   41.2218   22.9565 N.2       2 ALA2        0.0000 
     35 NZ         29.7392   41.8883   23.5552 N.2       4 LYS4        0.0000 
     36 CA         32.8408   40.2080   20.3841 C.3       6 GLY6        0.0000 
     37 CA         31.6378   40.8745   20.9828 C.3       6 GLY6        0.0000 
     38 DU         30.4348   41.5410   21.5815 H         7 CUB7        0.0000 
     39 NZ         29.2317   42.2075   22.1802 N.2       4 LYS4        0.0000 
     40 OG         32.3334   40.5272   19.0091 O.2       1 SER1        0.0000 
     41 NZ         31.1304   41.1937   19.6078 N.2       4 LYS4        0.0000 
     42 CZ         29.9273   41.8602   20.2065 C.ar      5 PHE5        0.0000 
     43 CZ         28.7243   42.5267   20.8053 C.ar      5 PHE5        0.0000 
     44 OG         31.8259   40.8464   17.6341 O.2       1 SER1        0.0000 
     45 NZ         30.6229   41.5130   18.2328 N.2       4 LYS4        0.0000 
     46 CZ         29.4199   42.1795   18.8315 C.ar      5 PHE5        0.0000 
     47 CA         28.2168   42.8460   19.4303 C.3       6 GLY6        0.0000 
     48 OG         32.5215   40.4992   15.6604 O.2       1 SER1        0.0000 
     49 OG         31.3185   41.1657   16.2591 O.2       1 SER1        0.0000 
     50 NZ         30.1155   41.8322   16.8578 N.2       4 LYS4        0.0000 
     51 N          28.9124   42.4987   17.4566 N.2       2 ALA2        0.0000 
     52 CA         30.8111   41.4849   14.8841 C.3       6 GLY6        0.0000 
     53 DU         29.6080   42.1514   15.4828 H         7 CUB7        0.0000 
     54 N          28.4050   42.8179   16.0816 N.2       2 ALA2        0.0000 
     55 CA         30.3036   41.8041   13.5091 C.3       6 GLY6        0.0000 
     56 CA         29.1006   42.4707   14.1079 C.3       6 GLY6        0.0000 
     57 N          27.8975   43.1372   14.7066 N.2       2 ALA2        0.0000 
     58 CA         29.7962   42.1234   12.1341 C.3       6 GLY6        0.0000 
     59 CA         28.5931   42.7899   12.7329 C.3       6 GLY6        0.0000 
     60 N          29.2887   42.4426   10.7592 N.2       2 ALA2        0.0000 
     61 CA         28.0857   43.1091   11.3579 C.3       6 GLY6        0.0000 
     62 CA         28.7813   42.7618    9.3842 C.3       6 GLY6        0.0000 
     63 CA         31.4069   39.2499   22.3272 C.3       6 GLY6        0.0000 
     64 N          30.2038   39.9164   22.9259 N.2       2 ALA2        0.0000 
     65 CA         30.8994   39.5692   20.9522 C.3       6 GLY6        0.0000 
     66 CZ         29.6964   40.2357   21.5510 C.ar      5 PHE5        0.0000 
     67 CZ         30.3920   39.8884   19.5772 C.ar      5 PHE5        0.0000 
     68 CZ         29.1889   40.5549   20.1760 C.ar      5 PHE5        0.0000 
     69 NZ         27.9859   41.2214   20.7747 N.2       4 LYS4        0.0000 
     70 OG         32.2906   38.8746   17.0048 O.2       1 SER1        0.0000 
     71 CA         31.0876   39.5411   17.6035 C.3       6 GLY6        0.0000 
     72 CZ         29.8845   40.2076   18.2023 C.ar      5 PHE5        0.0000 
     73 CZ         28.6815   40.8741   18.8010 C.ar      5 PHE5        0.0000 
     74 CA         27.4785   41.5406   19.3997 C.3       6 GLY6        0.0000 
     75 N          30.5801   39.8604   16.2285 N.2       2 ALA2        0.0000 
     76 CZ         29.3771   40.5269   16.8273 C.ar      5 PHE5        0.0000 
     77 CZ         28.1741   41.1934   17.4260 C.ar      5 PHE5        0.0000 
     78 CA         26.9710   41.8599   18.0247 C.3       6 GLY6        0.0000 
     79 N          30.0727   40.1796   14.8536 N.2       2 ALA2        0.0000 
     80 DU         28.8696   40.8461   15.4523 H         7 CUB7        0.0000 
     81 N          27.6666   41.5126   16.0510 N.2       2 ALA2        0.0000 
     82 N          29.5652   40.4988   13.4786 N.2       2 ALA2        0.0000 
     83 N          28.3622   41.1653   14.0773 N.2       2 ALA2        0.0000 
     84 N          27.1592   41.8318   14.6760 N.2       2 ALA2        0.0000 
     85 CA         27.8547   41.4846   12.7023 C.3       6 GLY6        0.0000 
     86 CA         31.5522   37.5693   16.9742 C.3       6 GLY6        0.0000 
     87 CZ         30.3492   38.2358   17.5730 C.ar      5 PHE5        0.0000 
     88 CZ         26.7401   40.2353   19.3692 C.ar      5 PHE5        0.0000 
     89 N          29.8417   38.5550   16.1980 N.2       2 ALA2        0.0000 
     90 CZ         28.6387   39.2215   16.7967 C.ar      5 PHE5        0.0000 
     91 CZ         26.2326   40.5546   17.9942 C.ar      5 PHE5        0.0000 
     92 CA         28.1313   39.5408   15.4217 C.3       6 GLY6        0.0000 
     93 N          26.9282   40.2073   16.0205 N.2       2 ALA2        0.0000 
     94 N          26.4208   40.5265   14.6455 N.2       2 ALA2        0.0000 
     95 CA         30.8083   46.7058   12.8245 C.3       6 GLY6        0.0000 
@<TRIPOS>BOND
@<TRIPOS>SUBSTRUCTURE
     1 SER1       13 GROUP   
     2 ALA2       11 GROUP   
     3 ASP3        3 GROUP   
     4 LYS4        1 GROUP   
     5 PHE5        2 GROUP   
     6 GLY6        6 GROUP   
     7 CUB7        7 GROUP   
@<TRIPOS>SET

