#    Name: 2cbj_OAN_1_INTS_M
#    Modification time : Mon Mar 24 23:25:13 2014

@<TRIPOS>MOLECULE
2cbj_OAN_1_INTS_M
   67     0     9     0     0
SMALL
NO_CHARGES


@<TRIPOS>ATOM
      1 CA         36.9615   42.4310   21.0935 C.3       3 GLC5        0.0000 
      2 CA         36.3610   41.1260   22.3470 C.3       9 GLL5        0.0000 
      3 CA         37.5620   43.7360   19.8400 C.3       6 GLP5        0.0000 
      4 CA         38.5280   41.2565   22.1905 C.3       3 GLC5        0.0000 
      5 CA         40.6950   41.3870   22.0340 C.3       6 GLP5        0.0000 
      6 CA         36.8145   39.9845   21.0740 C.3       3 GLC5        0.0000 
      7 CA         37.2680   38.8430   19.8010 C.3       6 GLP5        0.0000 
      8 CA         36.4735   39.2500   22.8435 C.3       3 GLC5        0.0000 
      9 CA         36.5860   37.3740   23.3400 C.3       6 GLP5        0.0000 
     10 CA         35.9540   41.4950   24.0865 C.3       3 GLC5        0.0000 
     11 CA         35.5470   41.8640   25.8260 C.3       6 GLP5        0.0000 
     12 N          33.6715   39.0520   23.2435 N.am      2 SEC2        0.0000 
     13 N          34.1590   40.1370   22.4990 N.am      8 SEL2        0.0000 
     14 N          33.1840   37.9670   23.9880 N.am      5 SEP2        0.0000 
     15 O          35.0445   43.4015   21.3780 O.2       1 ALC1        0.0000 
     16 O          34.3300   42.2390   21.6190 O.2       7 ALL1        0.0000 
     17 O          35.7590   44.5640   21.1370 O.2       4 ALP1        0.0000 
     18 CA         33.6865   42.9670   24.1325 C.3       3 GLC5        0.0000 
     19 CA         32.2170   42.7650   22.7850 C.3       9 GLL5        0.0000 
     20 CA         35.1560   43.1690   25.4800 C.3       6 GLP5        0.0000 
     21 N          33.2850   45.2085   22.9120 N.am      2 SEC2        0.0000 
     22 N          32.2670   44.1500   23.1080 N.am      8 SEL2        0.0000 
     23 N          34.3030   46.2670   22.7160 N.am      5 SEP2        0.0000 
     24 CA         29.8475   43.9800   22.0390 C.3       3 GLC5        0.0000 
     25 CA         30.7780   42.2830   22.8100 C.3       9 GLL5        0.0000 
     26 CA         28.9170   45.6770   21.2680 C.3       6 GLP5        0.0000 
     27 N          30.8735   42.2225   25.3820 N.am      2 SEC2        0.0000 
     28 N          30.1620   42.6060   24.0510 N.am      8 SEL2        0.0000 
     29 N          31.5850   41.8390   26.7130 N.am      5 SEP2        0.0000 
     30 O          29.0260   43.0680   24.0120 O.2       1 ALC1        0.0000 
     31 O          30.1620   42.6060   24.0510 O.2       7 ALL1        0.0000 
     32 O          27.8900   43.5300   23.9730 O.2       4 ALP1        0.0000 
     33 CA         29.3460   37.8295   22.9355 C.3       3 GLC5        0.0000 
     34 CA         29.4330   39.9750   22.7330 C.3       9 GLL5        0.0000 
     35 CA         29.2590   35.6840   23.1380 C.3       6 GLP5        0.0000 
     36 CA         29.1935   39.5745   24.9120 C.3       3 GLC5        0.0000 
     37 CA         28.9540   39.1740   27.0910 C.3       6 GLP5        0.0000 
     38 CA         27.7010   39.1955   22.9750 C.3       3 GLC5        0.0000 
     39 CA         25.9690   38.4160   23.2170 C.3       6 GLP5        0.0000 
     40 CA         28.8020   38.7595   21.1440 C.3       3 GLC5        0.0000 
     41 CA         28.1710   37.5440   19.5550 C.3       6 GLP5        0.0000 
     42 O          27.5410   41.1975   22.8280 O.2       1 ALC1        0.0000 
     43 O          28.3700   40.6860   22.0980 O.2       7 ALL1        0.0000 
     44 O          26.7120   41.7090   23.5580 O.2       4 ALP1        0.0000 
     45 O          28.1300   42.1080   23.0355 O.2       1 ALC1        0.0000 
     46 N          32.2220   42.8280   17.7735 N.am      2 SEC2        0.0000 
     47 N          31.5130   41.7790   16.9930 N.am      8 SEL2        0.0000 
     48 N          32.9310   43.8770   18.5540 N.am      5 SEP2        0.0000 
     49 CA         31.2843   44.1152   21.2353 C.3       3 GLC5        0.0000 
     50 CA         32.8900   42.4920   21.4040 C.3       9 GLL5        0.0000 
     51 CA         30.0150   45.6020   20.3760 C.3       6 GLP5        0.0000 
     52 CA         31.2935   38.9657   21.6037 C.3       3 GLC5        0.0000 
     53 CA         30.7730   40.7580   22.5960 C.3       9 GLL5        0.0000 
     54 CA         32.4840   37.5650   20.5430 C.3       6 GLP5        0.0000 
     55 CA         29.4462   38.9730   14.0790 C.3       3 GLC5        0.0000 
     56 CA         29.3650   40.2860   15.8890 C.3       9 GLL5        0.0000 
     57 CA         29.2730   37.3080   12.8290 C.3       6 GLP5        0.0000 
     58 CA         30.9918   41.5328   13.2235 C.3       3 GLC5        0.0000 
     59 CA         29.8740   40.9900   14.7690 C.3       9 GLL5        0.0000 
     60 CA         32.5200   41.8980   12.2220 C.3       6 GLP5        0.0000 
     61 CA         28.8250   39.2402   13.2592 C.3       3 GLC5        0.0000 
     62 CA         29.0530   41.3450   13.6810 C.3       9 GLL5        0.0000 
     63 CA         27.0125   41.6058   12.2807 C.3       3 GLC5        0.0000 
     64 CA         27.7010   41.0000   13.6980 C.3       9 GLL5        0.0000 
     65 CA         25.6480   42.0390   10.8720 C.3       6 GLP5        0.0000 
     66 CA         28.4297   38.7120   14.0780 C.3       3 GLC5        0.0000 
     67 CA         27.1720   40.2930   14.7890 C.3       9 GLL5        0.0000 
@<TRIPOS>BOND
@<TRIPOS>SUBSTRUCTURE
     1 ALC1       15 GROUP        1 X    ALC  0     ROOT ALC X 1
     2 SEC2       12 GROUP        1 X    SEC  0     **** SEC X 2
     3 GLC5        1 GROUP        1 X    GLC  0     **** GLC X 6
     4 ALP1       17 GROUP        1 Y    ALP  0     ROOT ALP Y 8
     5 SEP2       14 GROUP        1 Y    SEP  0     **** SEP Y 9
     6 GLP5        3 GROUP        1 Y    GLP  0     **** GLP Y 13
     7 ALL1       16 GROUP        1 Z    ALL  0     ROOT ALL Z 15
     8 SEL2       13 GROUP        1 Z    SEL  0     **** SEL Z 16
     9 GLL5        2 GROUP        1 Z    GLL  0     **** GLL Z 20
@<TRIPOS>SET

