#    Name: 2cbj_OAN_1_ligand
#    Modification time : Mon Mar 24 23:25:14 2014

@<TRIPOS>MOLECULE
2cbj_OAN_1_ligand
   44    45     1     0     0
SMALL
NO_CHARGES


@<TRIPOS>ATOM
      1 CAH        36.3610   41.1260   22.3470 C.3       1 OAN1625     0.0000 
      2 CAG        34.8320   41.1180   22.1590 C.2       1 OAN1625     0.0000 
      3 OAN        34.1590   40.1370   22.4990 O.2       1 OAN1625     0.0000 
      4 NAI        34.3300   42.2390   21.6190 N.am      1 OAN1625     0.0000 
      5 CAB        32.8900   42.4920   21.4040 C.3       1 OAN1625     0.0000 
      6 CAC        32.2170   42.7650   22.7850 C.3       1 OAN1625     0.0000 
      7 OAJ        32.2670   44.1500   23.1080 O.3       1 OAN1625     0.0000 
      8 CAD        30.7780   42.2830   22.8100 C.3       1 OAN1625     0.0000 
      9 OAK        30.1620   42.6060   24.0510 O.3       1 OAN1625     0.0000 
     10 CAE        30.7730   40.7580   22.5960 C.3       1 OAN1625     0.0000 
     11 CAF        29.4330   39.9750   22.7330 C.3       1 OAN1625     0.0000 
     12 OAM        28.3700   40.6860   22.0980 O.3       1 OAN1625     0.0000 
     13 OAL        31.3210   40.4870   21.2800 O.3       1 OAN1625     0.0000 
     14 CAA        32.1910   41.3470   20.6590 C.2       1 OAN1625     0.0000 
     15 NAY        32.4020   41.1960   19.3420 N.2       1 OAN1625     0.0000 
     16 OAQ        31.8010   40.2090   18.5730 O.3       1 OAN1625     0.0000 
     17 CAP        31.1530   40.6970   17.4770 C.2       1 OAN1625     0.0000 
     18 OAR        31.5130   41.7790   16.9930 O.2       1 OAN1625     0.0000 
     19 NAO        30.1400   39.9400   16.9710 N.am      1 OAN1625     0.0000 
     20 CAS        29.3650   40.2860   15.8890 C.ar      1 OAN1625     0.0000 
     21 CAT        29.8740   40.9900   14.7690 C.ar      1 OAN1625     0.0000 
     22 CAU        29.0530   41.3450   13.6810 C.ar      1 OAN1625     0.0000 
     23 CAV        27.7010   41.0000   13.6980 C.ar      1 OAN1625     0.0000 
     24 CAW        27.1720   40.2930   14.7890 C.ar      1 OAN1625     0.0000 
     25 CAX        28.0010   39.9390   15.8650 C.ar      1 OAN1625     0.0000 
     26 H          34.9620   43.0258   21.3091 H         1 OAN1625     0.0000 
     27 H          32.7688   43.4070   20.8155 H         1 OAN1625     0.0000 
     28 H          32.7751   42.1808   23.5261 H         1 OAN1625     0.0000 
     29 H          30.2583   42.7281   21.9757 H         1 OAN1625     0.0000 
     30 H          31.4792   40.3177   23.3373 H         1 OAN1625     0.0000 
     31 H          29.2535   39.8337   23.8056 H         1 OAN1625     0.0000 
     32 H          29.5936   38.9860   22.2872 H         1 OAN1625     0.0000 
     33 H          29.9274   39.0061   17.4469 H         1 OAN1625     0.0000 
     34 H          30.8745   41.2479   14.7539 H         1 OAN1625     0.0000 
     35 H          29.4500   41.8514   12.8879 H         1 OAN1625     0.0000 
     36 H          27.0918   41.2610   12.9162 H         1 OAN1625     0.0000 
     37 H          26.1810   40.0353   14.8001 H         1 OAN1625     0.0000 
     38 H          27.6019   39.4108   16.6596 H         1 OAN1625     0.0000 
     39 H          36.8009   40.3820   21.8441 H         1 OAN1625     0.0000 
     40 H          36.7703   41.9797   22.0250 H         1 OAN1625     0.0000 
     41 H          36.6176   41.0221   23.3079 H         1 OAN1625     0.0000 
     42 H          31.5874   44.2716   23.8314 H         1 OAN1625     0.0000 
     43 H          29.1847   42.4563   23.9014 H         1 OAN1625     0.0000 
     44 H          28.1390   41.4251   22.7306 H         1 OAN1625     0.0000 
@<TRIPOS>BOND
     1    2    1 1    
     2   39    1 1    
     3   40    1 1    
     4   41    1 1    
     5    3    2 2    
     6    4    2 am   
     7    5    4 1    
     8   26    4 1    
     9    6    5 1    
    10   14    5 1    
    11   27    5 1    
    12    7    6 1    
    13    8    6 1    
    14   28    6 1    
    15   42    7 1    
    16    9    8 1    
    17   10    8 1    
    18   29    8 1    
    19   43    9 1    
    20   11   10 1    
    21   13   10 1    
    22   30   10 1    
    23   12   11 1    
    24   31   11 1    
    25   32   11 1    
    26   44   12 1    
    27   14   13 1    
    28   15   14 2    
    29   16   15 1    
    30   17   16 1    
    31   18   17 2    
    32   19   17 am   
    33   20   19 1    
    34   33   19 1    
    35   21   20 ar   
    36   25   20 ar   
    37   22   21 ar   
    38   34   21 1    
    39   23   22 ar   
    40   35   22 1    
    41   24   23 ar   
    42   36   23 1    
    43   25   24 ar   
    44   37   24 1    
    45   38   25 1    
@<TRIPOS>SUBSTRUCTURE
     1 OAN1625     1 GROUP   
@<TRIPOS>SET

