#    Name: 1BNW_1_CAVITY_N1_ALL.mol2
#    Modification time : Mon Mar 10 15:05:21 2014

@<TRIPOS>MOLECULE
1BNW_1_CAVITY_N1_ALL.mol2
   78     0     6     0     0
SMALL
NO_CHARGES


@<TRIPOS>ATOM
      1 O           2.7166    4.2837   11.2479 O.2       2 ALA2        0.0000 
      2 CA         -1.1241    6.2305   14.8478 C.3       5 GLY6        0.0000 
      3 CA         -2.2542    7.1161   14.4132 C.3       5 GLY6        0.0000 
      4 CA         -0.9189    5.7954   13.4270 C.3       5 GLY6        0.0000 
      5 DU         -2.0489    6.6809   12.9925 H         6 CUB7        0.0000 
      6 N           0.4165    4.4747   12.4408 N.2       2 ALA2        0.0000 
      7 N          -0.7136    5.3602   12.0063 N.2       2 ALA2        0.0000 
      8 CZ          0.6217    4.0395   11.0201 C.ar      4 PHE5        0.0000 
      9 DU         -0.5083    4.9250   10.5855 H         6 CUB7        0.0000 
     10 N           0.8270    3.6043    9.5993 N.2       2 ALA2        0.0000 
     11 CZ         -4.5543    7.3070   15.6061 C.ar      4 PHE5        0.0000 
     12 CA         -2.0889    5.1007   15.0544 C.3       5 GLY6        0.0000 
     13 CA         -3.2190    5.9863   14.6199 C.3       5 GLY6        0.0000 
     14 CZ         -4.3490    6.8718   14.1854 C.ar      4 PHE5        0.0000 
     15 OG         -1.8837    4.6656   13.6337 O.2       1 SER1        0.0000 
     16 DU         -3.0137    5.5511   13.1992 H         6 CUB7        0.0000 
     17 DU         -4.1438    6.4366   12.7647 H         6 CUB7        0.0000 
     18 CZ         -5.2738    7.3222   12.3302 C.ar      4 PHE5        0.0000 
     19 OG         -0.5483    3.3449   12.6475 O.2       1 SER1        0.0000 
     20 OG         -1.6784    4.2304   12.2129 O.2       1 SER1        0.0000 
     21 DU         -3.9385    6.0015   11.3439 H         6 CUB7        0.0000 
     22 CZ         -0.3431    2.9097   11.2267 C.ar      4 PHE5        0.0000 
     23 DU         -1.4731    3.7952   10.7922 H         6 CUB7        0.0000 
     24 DU         -2.6032    4.6808   10.3577 H         6 CUB7        0.0000 
     25 CA         -0.1378    2.4745    9.8060 C.3       5 GLY6        0.0000 
     26 O          -1.2679    3.3600    9.3715 O.2       2 ALA2        0.0000 
     27 O          -2.3979    4.2456    8.9370 O.2       2 ALA2        0.0000 
     28 CA         -5.5191    6.1772   15.8128 C.3       5 GLY6        0.0000 
     29 CA         -3.0537    3.9709   15.2611 C.3       5 GLY6        0.0000 
     30 CA         -4.1838    4.8565   14.8266 C.3       5 GLY6        0.0000 
     31 CZ         -5.3138    5.7420   14.3921 C.ar      4 PHE5        0.0000 
     32 CZ         -6.4439    6.6275   13.9576 C.ar      4 PHE5        0.0000 
     33 CZ         -7.5740    7.5131   13.5231 C.ar      4 PHE5        0.0000 
     34 OG         -2.8485    3.5358   13.8404 O.2       1 SER1        0.0000 
     35 DU         -3.9785    4.4213   13.4058 H         6 CUB7        0.0000 
     36 O          -5.1086    5.3068   12.9713 O.2       2 ALA2        0.0000 
     37 O          -6.2386    6.1924   12.5368 O.2       2 ALA2        0.0000 
     38 CA         -7.3687    7.0779   12.1023 C.3       5 GLY6        0.0000 
     39 OG         -2.6432    3.1006   12.4196 O.2       1 SER1        0.0000 
     40 DU         -3.7733    3.9861   11.9851 H         6 CUB7        0.0000 
     41 O          -4.9033    4.8717   11.5506 O.2       2 ALA2        0.0000 
     42 O          -6.0334    5.7572   11.1161 O.2       2 ALA2        0.0000 
     43 OG         -1.3079    1.7799   11.4334 O.2       1 SER1        0.0000 
     44 O          -2.4379    2.6654   10.9989 O.2       2 ALA2        0.0000 
     45 O          -3.5680    3.5510   10.5644 O.2       2 ALA2        0.0000 
     46 N          -4.6981    4.4365   10.1299 N.2       2 ALA2        0.0000 
     47 O          -2.2327    2.2302    9.5781 O.2       2 ALA2        0.0000 
     48 CA         -6.4839    5.0474   16.0195 C.3       5 GLY6        0.0000 
     49 OG         -4.0185    2.8411   15.4678 O.2       1 SER1        0.0000 
     50 CA         -5.1486    3.7267   15.0332 C.3       5 GLY6        0.0000 
     51 O          -6.2786    4.6122   14.5987 O.2       2 ALA2        0.0000 
     52 CA         -7.4087    5.4977   14.1642 C.3       5 GLY6        0.0000 
     53 OG         -3.8133    2.4060   14.0470 O.2       1 SER1        0.0000 
     54 O          -4.9433    3.2915   13.6125 O.2       2 ALA2        0.0000 
     55 O          -6.0734    4.1770   13.1780 O.2       2 ALA2        0.0000 
     56 OG         -3.6080    1.9708   12.6263 O.2       1 SER1        0.0000 
     57 O          -4.7381    2.8563   12.1918 O.2       2 ALA2        0.0000 
     58 OG         -2.2727    0.6501   11.6401 O.2       1 SER1        0.0000 
     59 O          -3.4027    1.5356   11.2055 O.2       2 ALA2        0.0000 
     60 N          -4.5328    2.4212   10.7710 N.2       2 ALA2        0.0000 
     61 CA         -2.0674    0.2149   10.2193 C.3       5 GLY6        0.0000 
     62 CA         -5.1886    2.1465   17.0952 C.3       5 GLY6        0.0000 
     63 CA         -6.3187    3.0320   16.6606 C.3       5 GLY6        0.0000 
     64 CA         -7.4487    3.9176   16.2261 C.3       5 GLY6        0.0000 
     65 OD1        -4.9833    1.7113   15.6744 O.3       3 ASP3        0.0000 
     66 N          -6.1134    2.5969   15.2399 N.2       2 ALA2        0.0000 
     67 CA         -7.2434    3.4824   14.8054 C.3       5 GLY6        0.0000 
     68 N          -5.9081    2.1617   13.8192 N.2       2 ALA2        0.0000 
     69 N          -4.5728    0.8410   12.8329 N.2       2 ALA2        0.0000 
     70 O          -5.7029    1.7265   12.3984 O.2       2 ALA2        0.0000 
     71 CA         -3.2375   -0.4797   11.8467 C.3       5 GLY6        0.0000 
     72 O          -4.3675    0.4058   11.4122 O.2       2 ALA2        0.0000 
     73 O          -5.4976    1.2914   10.9777 O.2       2 ALA2        0.0000 
     74 CA         -3.0322   -0.9149   10.4260 C.3       5 GLY6        0.0000 
     75 O          -4.1623   -0.0294    9.9915 O.2       2 ALA2        0.0000 
     76 CZ         -6.3587    1.4519   18.7226 C.ar      4 PHE5        0.0000 
     77 OD1        -6.1534    1.0167   17.3018 O.3       3 ASP3        0.0000 
     78 CA         -7.2835    1.9022   16.8673 C.3       5 GLY6        0.0000 
@<TRIPOS>BOND
@<TRIPOS>SUBSTRUCTURE
     1 SER1       15 GROUP   
     2 ALA2        1 GROUP   
     3 ASP3       65 GROUP   
     4 PHE5        8 GROUP   
     5 GLY6        2 GROUP   
     6 CUB7        5 GROUP   
@<TRIPOS>SET

