#    Name: 1bnw_TPD_1_INTS_M
#    Modification time : Mon Mar 24 19:40:29 2014

@<TRIPOS>MOLECULE
1bnw_TPD_1_INTS_M
   30     0    12     0     0
SMALL
NO_CHARGES


@<TRIPOS>ATOM
      1 CA         -2.4140    5.9860   15.9470 C.3       4 GLC5        0.0000 
      2 CA         -2.5880    6.3460   13.9900 C.3      12 GLL5        0.0000 
      3 CA         -2.2400    5.6260   17.9040 C.3       8 GLP5        0.0000 
      4 N          -4.1350    0.6680   18.6445 N.am      2 SEC2        0.0000 
      5 N          -5.4750    1.0740   18.1580 N.am     10 SEL2        0.0000 
      6 N          -2.7950    0.2620   19.1310 N.am      6 SEP2        0.0000 
      7 O          -4.5415   -1.2285   17.0520 O.2       1 ALC1        0.0000 
      8 O          -5.3990   -0.4720   16.2890 O.2       9 ALL1        0.0000 
      9 O          -3.6840   -1.9850   17.8150 O.2       5 ALP1        0.0000 
     10 Zn         -6.1215   -1.0130   15.8570 Zn        3 ZIC7        0.0000 
     11 Zn         -5.3990   -0.4720   16.2890 Zn       11 ZIL7        0.0000 
     12 Zn         -6.8440   -1.5540   15.4250 Zn        7 ZIP7        0.0000 
     13 CA         -3.3300    2.7680   17.0925 C.3       4 GLC5        0.0000 
     14 CA         -4.0400    2.1040   15.2520 C.3      12 GLL5        0.0000 
     15 CA         -2.6200    3.4320   18.9330 C.3       8 GLP5        0.0000 
     16 CA         -2.7935    0.5765   14.9040 C.3       4 GLC5        0.0000 
     17 CA         -1.5470   -0.9510   14.5560 C.3       8 GLP5        0.0000 
     18 CA         -8.1095    3.4265   15.3790 C.3       4 GLC5        0.0000 
     19 CA         -6.1780    3.5170   15.5160 C.3      12 GLL5        0.0000 
     20 CA        -10.0410    3.3360   15.2420 C.3       8 GLP5        0.0000 
     21 CA         -1.8265    7.0935   16.5750 C.3       4 GLC5        0.0000 
     22 CA         -1.4130    8.5610   15.2460 C.3      12 GLL5        0.0000 
     23 CA          0.0905    7.9400   15.9430 C.3       4 GLC5        0.0000 
     24 CA          1.5940    7.3190   16.6400 C.3       8 GLP5        0.0000 
     25 CA         -0.6690    9.0115   17.2610 C.3       4 GLC5        0.0000 
     26 CA          0.0750    9.4620   19.2760 C.3       8 GLP5        0.0000 
     27 CA         -0.5650    6.5635   14.8710 C.3       4 GLC5        0.0000 
     28 CA          1.2000    6.1060   15.8000 C.3       8 GLP5        0.0000 
     29 CA         -4.8178    4.0499   16.8257 C.3       4 GLC5        0.0000 
     30 CA         -4.5960    4.8470   18.5250 C.3       8 GLP5        0.0000 
@<TRIPOS>BOND
@<TRIPOS>SUBSTRUCTURE
     1 ALC1        7 GROUP        1 X    ALC  0     ROOT ALC X 1
     2 SEC2        4 GROUP        1 X    SEC  0     **** SEC X 2
     3 ZIC7       10 GROUP        1 X    ZIC  0     **** ZIC X 5
     4 GLC5        1 GROUP        1 X    GLC  0     **** GLC X 6
     5 ALP1        9 GROUP        1 Y    ALP  0     ROOT ALP Y 8
     6 SEP2        6 GROUP        1 Y    SEP  0     **** SEP Y 9
     7 ZIP7       12 GROUP        1 Y    ZIP  0     **** ZIP Y 12
     8 GLP5        3 GROUP        1 Y    GLP  0     **** GLP Y 13
     9 ALL1        8 GROUP        1 Z    ALL  0     ROOT ALL Z 15
    10 SEL2        5 GROUP        1 Z    SEL  0     **** SEL Z 16
    11 ZIL7       11 GROUP        1 Z    ZIL  0     **** ZIL Z 19
    12 GLL5        2 GROUP        1 Z    GLL  0     **** GLL Z 20
@<TRIPOS>SET

