#    Name: 1bnw_TPD_1_ligand
#    Modification time : Mon Mar 24 19:40:29 2014

@<TRIPOS>MOLECULE
1bnw_TPD_1_ligand
   28    29     1     0     0
SMALL
NO_CHARGES


@<TRIPOS>ATOM
      1 C3         -5.2720    2.0930   15.8300 C.2       1 TPD555      0.0000 
      2 C9         -2.5880    6.3460   13.9900 C.3       1 TPD555      0.0000 
      3 C10        -2.0720    7.6960   13.8940 C.2       1 TPD555      0.0000 
      4 C11        -2.1060    8.4440   12.7330 C.2       1 TPD555      0.0000 
      5 C12        -1.6140    9.7130   12.9390 C.2       1 TPD555      0.0000 
      6 C13        -1.1930    9.9560   14.2360 C.2       1 TPD555      0.0000 
      7 O1A        -5.4750    1.0740   18.1580 O.2       1 TPD555      0.0000 
      8 O2A        -7.3150    0.9750   16.7440 O.2       1 TPD555      0.0000 
      9 N21        -5.3990   -0.4720   16.2890 N.pl3     1 TPD555      0.0000 
     10 S1         -5.8990    0.8280   16.8150 S.o2      1 TPD555      0.0000 
     11 C4         -4.0400    2.1040   15.2520 C.2       1 TPD555      0.0000 
     12 C5         -3.8220    3.2650   14.5570 C.2       1 TPD555      0.0000 
     13 C6         -4.8860    4.1360   14.6030 C.2       1 TPD555      0.0000 
     14 S2         -6.1780    3.5170   15.5160 S.3       1 TPD555      0.0000 
     15 S7         -5.0220    5.6980   13.8580 S.o2      1 TPD555      0.0000 
     16 O3B        -4.9270    5.4990   12.4420 O.2       1 TPD555      0.0000 
     17 O4B        -6.3080    6.2440   14.1910 O.2       1 TPD555      0.0000 
     18 N8         -3.9630    6.5960   14.4120 N.pl3     1 TPD555      0.0000 
     19 S14        -1.4130    8.5610   15.2460 S.3       1 TPD555      0.0000 
     20 H          -2.0638    5.7885   14.7347 H         1 TPD555      0.0000 
     21 H          -2.5711    5.8618   13.0385 H         1 TPD555      0.0000 
     22 H          -2.4364    8.1132   11.8790 H         1 TPD555      0.0000 
     23 H          -1.5635   10.3978   12.2230 H         1 TPD555      0.0000 
     24 H          -0.8294   10.6770   14.6760 H         1 TPD555      0.0000 
     25 H          -4.5571   -0.8193   16.7022 H         1 TPD555      0.0000 
     26 H          -3.3877    1.3768   15.3208 H         1 TPD555      0.0000 
     27 H          -2.9839    3.4599   14.0698 H         1 TPD555      0.0000 
     28 H          -4.1984    7.3169   15.0308 H         1 TPD555      0.0000 
@<TRIPOS>BOND
     1   10    1 1    
     2   11    1 2    
     3   14    1 1    
     4    3    2 1    
     5   18    2 1    
     6   20    2 1    
     7   21    2 1    
     8    4    3 2    
     9   19    3 1    
    10    5    4 1    
    11   22    4 1    
    12    6    5 2    
    13   23    5 1    
    14   19    6 1    
    15   24    6 1    
    16   10    7 2    
    17   10    8 2    
    18   10    9 1    
    19   25    9 1    
    20   12   11 1    
    21   26   11 1    
    22   13   12 2    
    23   27   12 1    
    24   14   13 1    
    25   15   13 1    
    26   16   15 2    
    27   17   15 2    
    28   18   15 1    
    29   28   18 1    
@<TRIPOS>SUBSTRUCTURE
     1 TPD555      1 GROUP   
@<TRIPOS>SET

