#    Name: 3r8d_PNU_1_INTS_M
#    Modification time : Tue Mar 25 11:15:03 2014

@<TRIPOS>MOLECULE
3r8d_PNU_1_INTS_M
   35     0     6     0     0
SMALL
NO_CHARGES


@<TRIPOS>ATOM
      1 CA         -9.6835  -10.6970  -23.7340 C.3       2 GLC5        0.0000 
      2 CA        -11.0240   -9.9130  -22.7470 C.3       6 GLL5        0.0000 
      3 CA         -8.3430  -11.4810  -24.7210 C.3       4 GLP5        0.0000 
      4 N         -18.7320   -8.3815  -20.9380 N.am      1 SEC2        0.0000 
      5 N         -18.0740   -8.8640  -22.3470 N.am      5 SEL2        0.0000 
      6 N         -19.3900   -7.8990  -19.5290 N.am      3 SEP2        0.0000 
      7 CA        -16.5195   -9.3730  -26.1890 C.3       2 GLC5        0.0000 
      8 CA        -18.0250   -8.8440  -24.7200 C.3       6 GLL5        0.0000 
      9 CA        -15.0140   -9.9020  -27.6580 C.3       4 GLP5        0.0000 
     10 CA        -22.7520   -8.2450  -24.1255 C.3       2 GLC5        0.0000 
     11 CA        -21.4290   -9.6720  -25.2180 C.3       6 GLL5        0.0000 
     12 CA        -24.0750   -6.8180  -23.0330 C.3       4 GLP5        0.0000 
     13 CA        -22.7495   -9.9935  -26.6345 C.3       2 GLC5        0.0000 
     14 CA        -24.0700  -10.3150  -28.0510 C.3       4 GLP5        0.0000 
     15 CA        -14.6660   -9.1850  -25.0700 C.3       2 GLC5        0.0000 
     16 CA        -15.9070   -8.3320  -23.4420 C.3       6 GLL5        0.0000 
     17 CA        -13.4250  -10.0380  -26.6980 C.3       4 GLP5        0.0000 
     18 CA        -12.6790   -5.0195  -22.2045 C.3       2 GLC5        0.0000 
     19 CA        -11.6510   -6.3630  -21.0460 C.3       6 GLL5        0.0000 
     20 CA        -13.7070   -3.6760  -23.3630 C.3       4 GLP5        0.0000 
     21 CA        -10.7150   -6.6020  -19.3425 C.3       2 GLC5        0.0000 
     22 CA         -9.7790   -6.8410  -17.6390 C.3       4 GLP5        0.0000 
     23 CA         -9.6715   -7.1500  -21.7605 C.3       2 GLC5        0.0000 
     24 CA         -7.6920   -7.9370  -22.4750 C.3       4 GLP5        0.0000 
     25 CA        -10.8060   -4.8485  -21.5940 C.3       2 GLC5        0.0000 
     26 CA         -9.9610   -3.3340  -22.1420 C.3       4 GLP5        0.0000 
     27 CA        -15.2820   -8.6870  -26.1575 C.3       2 GLC5        0.0000 
     28 CA        -15.5500   -7.4720  -24.6570 C.3       6 GLL5        0.0000 
     29 CA        -15.7720   -6.2010  -26.4180 C.3       2 GLC5        0.0000 
     30 CA        -15.9940   -4.9300  -28.1790 C.3       4 GLP5        0.0000 
     31 CA        -14.6285   -5.5740  -24.0100 C.3       2 GLC5        0.0000 
     32 CA        -13.7625   -9.8373  -24.9235 C.3       2 GLC5        0.0000 
     33 CA        -13.2950   -9.4100  -22.8920 C.3       6 GLL5        0.0000 
     34 CA        -10.2309   -8.7285  -20.7466 C.3       2 GLC5        0.0000 
     35 CA         -9.0640   -8.8650  -19.3550 C.3       4 GLP5        0.0000 
@<TRIPOS>BOND
@<TRIPOS>SUBSTRUCTURE
     1 SEC2        4 GROUP        1 X    SEC  0     ROOT SEC X 2
     2 GLC5        1 GROUP        1 X    GLC  0     **** GLC X 6
     3 SEP2        6 GROUP        1 Y    SEP  0     ROOT SEP Y 9
     4 GLP5        3 GROUP        1 Y    GLP  0     **** GLP Y 13
     5 SEL2        5 GROUP        1 Z    SEL  0     ROOT SEL Z 16
     6 GLL5        2 GROUP        1 Z    GLL  0     **** GLL Z 20
@<TRIPOS>SET

