#    Name: 3r8d_PNU_1_ligand
#    Modification time : Tue Mar 25 11:15:03 2014

@<TRIPOS>MOLECULE
3r8d_PNU_1_ligand
   31    33     1     0     0
SMALL
NO_CHARGES


@<TRIPOS>ATOM
      1 C1        -13.2950   -9.4100  -22.8920 C.ar      1 PNU1        0.0000 
      2 N2        -12.2660  -10.2390  -23.1310 N.ar      1 PNU1        0.0000 
      3 C3        -11.0240   -9.9130  -22.7470 C.ar      1 PNU1        0.0000 
      4 C4        -10.8010   -8.7110  -22.0940 C.ar      1 PNU1        0.0000 
      5 C5        -11.8830   -7.8720  -21.8560 C.ar      1 PNU1        0.0000 
      6 N6        -13.1050   -8.2410  -22.2610 N.ar      1 PNU1        0.0000 
      7 C7        -20.0410   -9.3400  -23.5470 C.ar      1 PNU1        0.0000 
      8 C8        -19.3590   -9.1780  -22.3480 C.ar      1 PNU1        0.0000 
      9 N9        -18.0740   -8.8640  -22.3470 N.ar      1 PNU1        0.0000 
     10 C10       -17.3920   -8.6940  -23.4900 C.ar      1 PNU1        0.0000 
     11 C11       -18.0250   -8.8440  -24.7200 C.ar      1 PNU1        0.0000 
     12 C12       -19.3720   -9.1720  -24.7470 C.ar      1 PNU1        0.0000 
     13 C13       -20.2370   -9.3800  -25.7380 C.2       1 PNU1        0.0000 
     14 O14       -21.3330   -9.6540  -23.8500 O.3       1 PNU1        0.0000 
     15 C15       -21.4290   -9.6720  -25.2180 C.2       1 PNU1        0.0000 
     16 C16       -15.9070   -8.3320  -23.4420 C.3       1 PNU1        0.0000 
     17 S17       -14.9050   -9.8630  -23.4060 S.3       1 PNU1        0.0000 
     18 N18       -10.0100  -10.7410  -22.9900 N.pl3     1 PNU1        0.0000 
     19 CL19      -11.6510   -6.3630  -21.0460 Cl        1 PNU1        0.0000 
     20 C21       -15.5500   -7.4720  -24.6570 C.3       1 PNU1        0.0000 
     21 H          -9.8633   -8.4462  -21.7938 H         1 PNU1        0.0000 
     22 H         -19.8889   -9.3109  -21.4599 H         1 PNU1        0.0000 
     23 H         -17.5033   -8.7140  -25.5888 H         1 PNU1        0.0000 
     24 H         -20.0320   -9.3273  -26.6905 H         1 PNU1        0.0000 
     25 H         -22.2415   -9.8677  -25.7060 H         1 PNU1        0.0000 
     26 H         -15.6508   -7.8609  -22.5333 H         1 PNU1        0.0000 
     27 H         -10.2330  -11.5721  -23.4994 H         1 PNU1        0.0000 
     28 H          -9.1168  -10.4571  -22.6412 H         1 PNU1        0.0000 
     29 H         -14.5845   -7.2118  -24.6570 H         1 PNU1        0.0000 
     30 H         -15.7240   -7.9528  -25.5164 H         1 PNU1        0.0000 
     31 H         -16.0817   -6.6254  -24.6819 H         1 PNU1        0.0000 
@<TRIPOS>BOND
     1    2    1 ar   
     2    6    1 ar   
     3   17    1 1    
     4    3    2 ar   
     5    4    3 ar   
     6   18    3 1    
     7    5    4 ar   
     8   21    4 1    
     9    6    5 ar   
    10   19    5 1    
    11    8    7 ar   
    12   12    7 ar   
    13   14    7 1    
    14    9    8 ar   
    15   22    8 1    
    16   10    9 ar   
    17   11   10 ar   
    18   16   10 1    
    19   12   11 ar   
    20   23   11 1    
    21   13   12 1    
    22   15   13 2    
    23   24   13 1    
    24   15   14 1    
    25   25   15 1    
    26   17   16 1    
    27   20   16 1    
    28   26   16 1    
    29   27   18 1    
    30   28   18 1    
    31   29   20 1    
    32   30   20 1    
    33   31   20 1    
@<TRIPOS>SUBSTRUCTURE
     1 PNU1        1 GROUP   
@<TRIPOS>SET

