#    Name: 1rxh_BNI_2_INTS_M
#    Modification time : Tue Mar 25 01:26:37 2014

@<TRIPOS>MOLECULE
1rxh_BNI_2_INTS_M
   62     0     9     0     0
SMALL
NO_CHARGES


@<TRIPOS>ATOM
      1 CA         33.6895   34.1780    5.9865 C.3       3 GLC5        0.0000 
      2 CA         34.2670   35.6370    5.3090 C.3       9 GLL5        0.0000 
      3 CA         33.1120   32.7190    6.6640 C.3       6 GLP5        0.0000 
      4 CA         31.6630   36.0770    4.3120 C.3       3 GLC5        0.0000 
      5 CA         33.3150   36.8040    5.3850 C.3       9 GLL5        0.0000 
      6 CA         30.0110   35.3500    3.2390 C.3       6 GLP5        0.0000 
      7 CA         33.3060   35.1360    6.6140 C.3       3 GLC5        0.0000 
      8 CA         33.2970   33.4680    7.8430 C.3       6 GLP5        0.0000 
      9 CA         35.3470   37.6900    7.6205 C.3       3 GLC5        0.0000 
     10 CA         33.5390   37.4890    6.6890 C.3       9 GLL5        0.0000 
     11 CA         37.1550   37.8910    8.5520 C.3       6 GLP5        0.0000 
     12 CA         30.4680   37.2825    6.8915 C.3       3 GLC5        0.0000 
     13 CA         32.2510   37.8550    7.3690 C.3       9 GLL5        0.0000 
     14 CA         28.6850   36.7100    6.4140 C.3       6 GLP5        0.0000 
     15 CA         33.6110   39.5940   12.4490 C.3       3 GLC5        0.0000 
     16 CA         32.8870   38.6840   11.1380 C.3       9 GLL5        0.0000 
     17 CA         34.3350   40.5040   13.7600 C.3       6 GLP5        0.0000 
     18 CA         33.2620   40.4855   11.7360 C.3       3 GLC5        0.0000 
     19 CA         31.7420   39.6080   10.7320 C.3       9 GLL5        0.0000 
     20 CA         34.7820   41.3630   12.7400 C.3       6 GLP5        0.0000 
     21 N          34.5400   36.5775    2.4900 N.am      2 SEC2        0.0000 
     22 N          35.5060   35.5510    3.3910 N.am      8 SEL2        0.0000 
     23 N          33.5740   37.6040    1.5890 N.am      5 SEP2        0.0000 
     24 N          27.7745   38.9725   11.4715 N.am      2 SEC2        0.0000 
     25 N          28.4910   38.4200   10.5070 N.am      8 SEL2        0.0000 
     26 N          27.0580   39.5250   12.4360 N.am      5 SEP2        0.0000 
     27 N          27.4685   38.7030    9.4950 N.am      2 SEC2        0.0000 
     28 N          26.4460   38.9860    8.4830 N.am      5 SEP2        0.0000 
     29 O          30.0650   39.4315   12.5010 O.2       1 ALC1        0.0000 
     30 O          30.4950   39.1580   11.2570 O.2       7 ALL1        0.0000 
     31 O          29.6350   39.7050   13.7450 O.2       4 ALP1        0.0000 
     32 O          29.6700   38.5210    7.6310 O.2       1 ALC1        0.0000 
     33 O          30.1700   39.0200    9.0820 O.2       7 ALL1        0.0000 
     34 O          29.1700   38.0220    6.1800 O.2       4 ALP1        0.0000 
     35 CA         32.5105   35.6440    9.2640 C.3       3 GLC5        0.0000 
     36 CA         32.7910   37.2470    9.9860 C.3       9 GLL5        0.0000 
     37 CA         32.2300   34.0410    8.5420 C.3       6 GLP5        0.0000 
     38 CA         37.5110   34.7450    2.8965 C.3       3 GLC5        0.0000 
     39 CA         38.5860   36.4220    3.8460 C.3       9 GLL5        0.0000 
     40 CA         36.4360   33.0680    1.9470 C.3       6 GLP5        0.0000 
     41 CA         38.9010   34.7355    4.9460 C.3       3 GLC5        0.0000 
     42 CA         39.2160   33.0490    6.0460 C.3       6 GLP5        0.0000 
     43 CA         41.2050   35.8170    4.4720 C.3       3 GLC5        0.0000 
     44 CA         39.8930   36.9750    3.4430 C.3       9 GLL5        0.0000 
     45 CA         42.5170   34.6590    5.5010 C.3       6 GLP5        0.0000 
     46 CA         40.1290   39.7955    6.2295 C.3       3 GLC5        0.0000 
     47 CA         39.2250   39.2330    4.4390 C.3       9 GLL5        0.0000 
     48 CA         41.0330   40.3580    8.0200 C.3       6 GLP5        0.0000 
     49 CA         33.0830   38.3238    4.4320 C.3       3 GLC5        0.0000 
     50 CA         32.7390   39.5010    2.8270 C.3       6 GLP5        0.0000 
     51 CA         32.5625   35.8565    7.7855 C.3       3 GLC5        0.0000 
     52 CA         33.6715   36.5397   11.7165 C.3       3 GLC5        0.0000 
     53 CA         34.5040   35.1140   12.8710 C.3       6 GLP5        0.0000 
     54 CA         31.8285   36.5733   11.5435 C.3       3 GLC5        0.0000 
     55 CA         30.8180   35.1810   12.5250 C.3       6 GLP5        0.0000 
     56 CA         30.6038   41.0480   10.0370 C.3       3 GLC5        0.0000 
     57 CA         29.5740   42.5310   10.1040 C.3       6 GLP5        0.0000 
     58 CA         31.4070   40.0389    7.5241 C.3       3 GLC5        0.0000 
     59 CA         31.5250   39.5220    9.2080 C.3       9 GLL5        0.0000 
     60 CA         30.8360   41.2180    6.4250 C.3       6 GLP5        0.0000 
     61 CA         37.4718   37.9365    6.6155 C.3       3 GLC5        0.0000 
     62 CA         37.9570   38.6790    4.8230 C.3       9 GLL5        0.0000 
@<TRIPOS>BOND
@<TRIPOS>SUBSTRUCTURE
     1 ALC1       29 GROUP        1 X    ALC  0     ROOT ALC X 1
     2 SEC2       21 GROUP        1 X    SEC  0     **** SEC X 2
     3 GLC5        1 GROUP        1 X    GLC  0     **** GLC X 6
     4 ALP1       31 GROUP        1 Y    ALP  0     ROOT ALP Y 8
     5 SEP2       23 GROUP        1 Y    SEP  0     **** SEP Y 9
     6 GLP5        3 GROUP        1 Y    GLP  0     **** GLP Y 13
     7 ALL1       30 GROUP        1 Z    ALL  0     ROOT ALL Z 15
     8 SEL2       22 GROUP        1 Z    SEL  0     **** SEL Z 16
     9 GLL5        2 GROUP        1 Z    GLL  0     **** GLL Z 20
@<TRIPOS>SET

