#    Name: 1rxh_BNI_2_ligand
#    Modification time : Tue Mar 25 01:26:37 2014

@<TRIPOS>MOLECULE
1rxh_BNI_2_ligand
   45    47     1     0     0
SMALL
NO_CHARGES


@<TRIPOS>ATOM
      1 C1         35.6110   35.8570    4.6020 C.2       1 BNI502      0.0000 
      2 C10        34.2670   35.6370    5.3090 C.3       1 BNI502      0.0000 
      3 C9         33.3150   36.8040    5.3850 C.3       1 BNI502      0.0000 
      4 C8         33.5390   37.4890    6.6890 C.3       1 BNI502      0.0000 
      5 C7         32.2510   37.8550    7.3690 C.3       1 BNI502      0.0000 
      6 C2         32.6110   38.5400    8.7080 C.3       1 BNI502      0.0000 
      7 C6         32.8870   38.6840   11.1380 C.3       1 BNI502      0.0000 
      8 C4         31.5250   39.5220    9.2080 C.3       1 BNI502      0.0000 
      9 C5         31.7420   39.6080   10.7320 C.3       1 BNI502      0.0000 
     10 C3         29.6370   38.8360   10.2940 C.2       1 BNI502      0.0000 
     11 O2         35.5060   35.5510    3.3910 O.2       1 BNI502      0.0000 
     12 O3         28.4910   38.4200   10.5070 O.2       1 BNI502      0.0000 
     13 N1         30.4950   39.1580   11.2570 N.am      1 BNI502      0.0000 
     14 N2         30.1700   39.0200    9.0820 N.am      1 BNI502      0.0000 
     15 S1         32.7910   37.2470    9.9860 S.3       1 BNI502      0.0000 
     16 N17        36.3940   36.8790    4.9590 N.am      1 BNI502      0.0000 
     17 C18        37.6200   37.2850    4.5350 C.ar      1 BNI502      0.0000 
     18 C20        38.5860   36.4220    3.8460 C.ar      1 BNI502      0.0000 
     19 C21        39.8930   36.9750    3.4430 C.ar      1 BNI502      0.0000 
     20 C22        40.2170   38.4050    3.7430 C.ar      1 BNI502      0.0000 
     21 C23        39.2250   39.2330    4.4390 C.ar      1 BNI502      0.0000 
     22 C24        37.9570   38.6790    4.8230 C.ar      1 BNI502      0.0000 
     23 N25        41.5780   39.0500    3.3330 N.pl3     1 BNI502      0.0000 
     24 O26        42.4510   38.4090    2.7380 O.2       1 BNI502      0.0000 
     25 O27        41.8150   40.2290    3.5920 O.2       1 BNI502      0.0000 
     26 H          34.4786   35.2710    6.3471 H         1 BNI502      0.0000 
     27 H          33.7503   34.7771    4.8090 H         1 BNI502      0.0000 
     28 H          32.2965   36.4424    5.3236 H         1 BNI502      0.0000 
     29 H          33.5137   37.4846    4.5671 H         1 BNI502      0.0000 
     30 H          34.1347   38.4023    6.5290 H         1 BNI502      0.0000 
     31 H          34.1249   36.8343    7.3543 H         1 BNI502      0.0000 
     32 H          31.6714   36.9731    7.5779 H         1 BNI502      0.0000 
     33 H          31.6908   38.5484    6.7668 H         1 BNI502      0.0000 
     34 H          33.5630   38.9754    8.6965 H         1 BNI502      0.0000 
     35 H          32.7596   38.2227   12.0626 H         1 BNI502      0.0000 
     36 H          33.8359   39.0587   10.9301 H         1 BNI502      0.0000 
     37 H          31.6661   40.4670    8.8059 H         1 BNI502      0.0000 
     38 H          31.9513   40.6037   10.9800 H         1 BNI502      0.0000 
     39 H          30.3396   39.1103   12.2225 H         1 BNI502      0.0000 
     40 H          29.7703   38.8632    8.2232 H         1 BNI502      0.0000 
     41 H          35.9608   37.5364    5.7681 H         1 BNI502      0.0000 
     42 H          38.3645   35.4698    3.6502 H         1 BNI502      0.0000 
     43 H          40.5616   36.4082    2.9740 H         1 BNI502      0.0000 
     44 H          39.4488   40.1974    4.6430 H         1 BNI502      0.0000 
     45 H          37.2724   39.2576    5.3049 H         1 BNI502      0.0000 
@<TRIPOS>BOND
     1    2    1 1    
     2   11    1 2    
     3   16    1 am   
     4    3    2 1    
     5   26    2 1    
     6   27    2 1    
     7    4    3 1    
     8   28    3 1    
     9   29    3 1    
    10    5    4 1    
    11   30    4 1    
    12   31    4 1    
    13    6    5 1    
    14   32    5 1    
    15   33    5 1    
    16    8    6 1    
    17   15    6 1    
    18   34    6 1    
    19    9    7 1    
    20   15    7 1    
    21   35    7 1    
    22   36    7 1    
    23    9    8 1    
    24   14    8 1    
    25   37    8 1    
    26   13    9 1    
    27   38    9 1    
    28   12   10 2    
    29   13   10 am   
    30   14   10 am   
    31   39   13 1    
    32   40   14 1    
    33   17   16 1    
    34   41   16 1    
    35   18   17 ar   
    36   22   17 ar   
    37   19   18 ar   
    38   42   18 1    
    39   20   19 ar   
    40   43   19 1    
    41   21   20 ar   
    42   23   20 1    
    43   22   21 ar   
    44   44   21 1    
    45   45   22 1    
    46   24   23 2    
    47   25   23 2    
@<TRIPOS>SUBSTRUCTURE
     1 BNI502      1 GROUP   
@<TRIPOS>SET

