#    Name: 1sqb_AZO_1_INTS_M
#    Modification time : Tue Mar 25 02:38:27 2014

@<TRIPOS>MOLECULE
1sqb_AZO_1_INTS_M
   83     0     6     0     0
SMALL
NO_CHARGES


@<TRIPOS>ATOM
      1 CA         71.6900   53.7750  166.8250 C.3       2 GLC5        0.0000 
      2 CA         71.0620   54.7580  165.0250 C.3       6 GLL5        0.0000 
      3 CA         72.3180   52.7920  168.6250 C.3       4 GLP5        0.0000 
      4 CA         68.8600   55.0895  164.8515 C.3       2 GLC5        0.0000 
      5 CA         66.6580   55.4210  164.6780 C.3       4 GLP5        0.0000 
      6 CA         68.4220   55.3560  165.9370 C.3       2 GLC5        0.0000 
      7 CA         70.1860   55.2910  167.1960 C.3       6 GLL5        0.0000 
      8 CA         70.8310   53.1120  167.3015 C.3       2 GLC5        0.0000 
      9 CA         69.3440   53.4320  165.9780 C.3       6 GLL5        0.0000 
     10 CA         67.7320   53.6090  167.1965 C.3       2 GLC5        0.0000 
     11 CA         66.1200   53.7860  168.4150 C.3       4 GLP5        0.0000 
     12 CA         68.0010   54.4265  165.3280 C.3       2 GLC5        0.0000 
     13 CA         68.1340   51.9235  166.4165 C.3       2 GLC5        0.0000 
     14 CA         66.9240   50.4150  166.8550 C.3       4 GLP5        0.0000 
     15 CA         68.4080   53.4835  172.9070 C.3       2 GLC5        0.0000 
     16 CA         68.3500   54.6620  171.1940 C.3       6 GLL5        0.0000 
     17 CA         68.4660   52.3050  174.6200 C.3       4 GLP5        0.0000 
     18 CA         65.8625   54.4765  171.9015 C.3       2 GLC5        0.0000 
     19 CA         67.5910   55.7800  171.5900 C.3       6 GLL5        0.0000 
     20 CA         64.1340   53.1730  172.2130 C.3       4 GLP5        0.0000 
     21 CA         66.5940   57.3990  172.8125 C.3       2 GLC5        0.0000 
     22 CA         67.7000   57.0210  170.9300 C.3       6 GLL5        0.0000 
     23 CA         65.4880   57.7770  174.6950 C.3       4 GLP5        0.0000 
     24 CA         68.5865   57.8400  167.0485 C.3       2 GLC5        0.0000 
     25 CA         68.7050   58.4960  169.1480 C.3       6 GLL5        0.0000 
     26 CA         68.4680   57.1840  164.9490 C.3       4 GLP5        0.0000 
     27 N          65.1145   57.7405  168.1010 N.am      1 SEC2        0.0000 
     28 N          66.7570   58.0960  167.7990 N.am      5 SEL2        0.0000 
     29 N          63.4720   57.3850  168.4030 N.am      3 SEP2        0.0000 
     30 CA         65.6505   56.7580  167.3815 C.3       2 GLC5        0.0000 
     31 CA         65.8970   58.5370  166.7520 C.3       6 GLL5        0.0000 
     32 CA         65.4040   54.9790  168.0110 C.3       4 GLP5        0.0000 
     33 CA         64.2435   58.9505  166.9575 C.3       2 GLC5        0.0000 
     34 CA         62.5900   59.3640  167.1630 C.3       4 GLP5        0.0000 
     35 CA         65.5350   59.5885  165.3330 C.3       2 GLC5        0.0000 
     36 CA         65.1730   60.6400  163.9140 C.3       4 GLP5        0.0000 
     37 CA         67.1825   57.8605  165.8505 C.3       2 GLC5        0.0000 
     38 CA         72.5035   58.9115  169.7190 C.3       2 GLC5        0.0000 
     39 CA         71.6040   59.7480  170.9650 C.3       6 GLL5        0.0000 
     40 CA         73.4030   58.0750  168.4730 C.3       4 GLP5        0.0000 
     41 CA         69.5115   60.4710  171.2015 C.3       2 GLC5        0.0000 
     42 CA         67.4190   61.1940  171.4380 C.3       4 GLP5        0.0000 
     43 CA         72.4930   61.1890  171.2815 C.3       2 GLC5        0.0000 
     44 CA         73.3820   62.6300  171.5980 C.3       4 GLP5        0.0000 
     45 CA         71.1665   58.1510  172.1140 C.3       2 GLC5        0.0000 
     46 CA         70.7290   56.5540  173.2630 C.3       4 GLP5        0.0000 
     47 CA         72.9105   58.9160  171.9070 C.3       2 GLC5        0.0000 
     48 CA         74.2170   58.0840  172.8490 C.3       4 GLP5        0.0000 
     49 CA         73.3390   51.5505  162.6735 C.3       2 GLC5        0.0000 
     50 CA         73.8690   53.1850  162.8790 C.3       6 GLL5        0.0000 
     51 CA         73.4090   49.7540  162.8210 C.3       4 GLP5        0.0000 
     52 CA         70.1498   52.0883  161.1147 C.3       2 GLC5        0.0000 
     53 CA         72.4060   52.9050  160.9360 C.3       6 GLL5        0.0000 
     54 CA         68.4830   51.1020  161.6420 C.3       4 GLP5        0.0000 
     55 CA         71.8578   51.3492  161.5853 C.3       2 GLC5        0.0000 
     56 CA         71.2270   53.2440  160.2390 C.3       6 GLL5        0.0000 
     57 CA         71.8990   49.6240  162.5830 C.3       4 GLP5        0.0000 
     58 CA         70.8605   53.5438  158.5648 C.3       2 GLC5        0.0000 
     59 CA         70.3050   54.1930  160.7460 C.3       6 GLL5        0.0000 
     60 CA         70.9550   53.3690  156.6370 C.3       4 GLP5        0.0000 
     61 CA         69.4477   52.8042  161.5038 C.3       2 GLC5        0.0000 
     62 CA         70.3755   55.6331  159.7899 C.3       2 GLC5        0.0000 
     63 CA         70.1080   56.9970  158.3410 C.3       4 GLP5        0.0000 
     64 CA         71.6870   54.8083  167.9630 C.3       2 GLC5        0.0000 
     65 CA         71.1060   55.5540  166.1720 C.3       6 GLL5        0.0000 
     66 CA         72.7280   54.1940  169.2420 C.3       4 GLP5        0.0000 
     67 CA         70.0155   55.9567  171.5083 C.3       2 GLC5        0.0000 
     68 CA         69.3540   55.9640  169.3850 C.3       6 GLL5        0.0000 
     69 CA         71.0150   54.7768  169.4977 C.3       2 GLC5        0.0000 
     70 CA         69.2500   54.7550  170.1220 C.3       6 GLL5        0.0000 
     71 CA         70.2655   53.6418  171.6720 C.3       2 GLC5        0.0000 
     72 CA         71.7310   52.5750  172.6860 C.3       4 GLP5        0.0000 
     73 CA         67.6437   55.4620  173.3020 C.3       2 GLC5        0.0000 
     74 CA         67.3170   55.7030  175.2120 C.3       4 GLP5        0.0000 
     75 CA         69.3498   55.8875  172.3275 C.3       2 GLC5        0.0000 
     76 CA         67.4730   54.3984  169.4444 C.3       2 GLC5        0.0000 
     77 CA         69.4228   56.8192  171.8155 C.3       2 GLC5        0.0000 
     78 CA         66.4586   56.1756  169.9160 C.3       2 GLC5        0.0000 
     79 CA         64.8280   55.5770  169.2990 C.3       4 GLP5        0.0000 
     80 CA         70.9472   58.8045  168.4075 C.3       2 GLC5        0.0000 
     81 CA         72.6280   58.6620  167.4470 C.3       4 GLP5        0.0000 
     82 CA         68.3427   60.0705  170.4030 C.3       2 GLC5        0.0000 
     83 CA         69.8280   59.3980  169.5880 C.3       6 GLL5        0.0000 
@<TRIPOS>BOND
@<TRIPOS>SUBSTRUCTURE
     1 SEC2       27 GROUP        1 X    SEC  0     ROOT SEC X 2
     2 GLC5        1 GROUP        1 X    GLC  0     **** GLC X 6
     3 SEP2       29 GROUP        1 Y    SEP  0     ROOT SEP Y 9
     4 GLP5        3 GROUP        1 Y    GLP  0     **** GLP Y 13
     5 SEL2       28 GROUP        1 Z    SEL  0     ROOT SEL Z 16
     6 GLL5        2 GROUP        1 Z    GLL  0     **** GLL Z 20
@<TRIPOS>SET

