#    Name: 1sqb_AZO_1_ligand
#    Modification time : Tue Mar 25 02:38:27 2014

@<TRIPOS>MOLECULE
1sqb_AZO_1_ligand
   47    49     1     0     0
SMALL
NO_CHARGES


@<TRIPOS>ATOM
      1 N1         74.8120   52.9000  163.4520 N.1       1 AZO383      0.0000 
      2 C1         73.8690   53.1850  162.8790 C.1       1 AZO383      0.0000 
      3 C2         72.6690   53.5090  162.1730 C.ar      1 AZO383      0.0000 
      4 C3         72.4060   52.9050  160.9360 C.ar      1 AZO383      0.0000 
      5 C4         71.2270   53.2440  160.2390 C.ar      1 AZO383      0.0000 
      6 C5         70.3050   54.1930  160.7460 C.ar      1 AZO383      0.0000 
      7 C6         70.5200   54.8200  161.9850 C.ar      1 AZO383      0.0000 
      8 C7         71.6880   54.5100  162.7270 C.ar      1 AZO383      0.0000 
      9 O1         71.8990   55.0640  163.9710 O.3       1 AZO383      0.0000 
     10 C8         71.0620   54.7580  165.0250 C.ar      1 AZO383      0.0000 
     11 C9         71.1060   55.5540  166.1720 C.ar      1 AZO383      0.0000 
     12 C10        70.1860   55.2910  167.1960 C.ar      1 AZO383      0.0000 
     13 N3         69.3380   54.2220  167.0750 N.ar      1 AZO383      0.0000 
     14 C11        69.3440   53.4320  165.9780 C.ar      1 AZO383      0.0000 
     15 N2         70.1890   53.7070  164.9650 N.ar      1 AZO383      0.0000 
     16 O2         70.2280   56.0870  168.3290 O.3       1 AZO383      0.0000 
     17 C12        69.3540   55.9640  169.3850 C.ar      1 AZO383      0.0000 
     18 C13        69.2500   54.7550  170.1220 C.ar      1 AZO383      0.0000 
     19 C14        68.3500   54.6620  171.1940 C.ar      1 AZO383      0.0000 
     20 C15        67.5910   55.7800  171.5900 C.ar      1 AZO383      0.0000 
     21 C16        67.7000   57.0210  170.9300 C.ar      1 AZO383      0.0000 
     22 C17        68.5330   57.1480  169.8060 C.ar      1 AZO383      0.0000 
     23 C18        68.7050   58.4960  169.1480 C.2       1 AZO383      0.0000 
     24 C19        67.8550   58.9390  168.2230 C.2       1 AZO383      0.0000 
     25 O3         67.9810   60.0560  167.7100 O.2       1 AZO383      0.0000 
     26 O4         66.7570   58.0960  167.7990 O.3       1 AZO383      0.0000 
     27 C20        65.8970   58.5370  166.7520 C.3       1 AZO383      0.0000 
     28 C21        69.8280   59.3980  169.5880 C.2       1 AZO383      0.0000 
     29 O5         70.6100   58.8230  170.6030 O.3       1 AZO383      0.0000 
     30 C22        71.6040   59.7480  170.9650 C.3       1 AZO383      0.0000 
     31 H          73.0560   52.2284  160.5409 H         1 AZO383      0.0000 
     32 H          71.0279   52.7885  159.3325 H         1 AZO383      0.0000 
     33 H          69.4675   54.4229  160.1951 H         1 AZO383      0.0000 
     34 H          69.8486   55.4899  162.3508 H         1 AZO383      0.0000 
     35 H          71.7834   56.3013  166.2632 H         1 AZO383      0.0000 
     36 H          68.7005   52.6185  165.9182 H         1 AZO383      0.0000 
     37 H          69.8339   53.9570  169.8657 H         1 AZO383      0.0000 
     38 H          68.2421   53.7722  171.6956 H         1 AZO383      0.0000 
     39 H          66.9364   55.6891  172.3856 H         1 AZO383      0.0000 
     40 H          67.1717   57.8275  171.2712 H         1 AZO383      0.0000 
     41 H          69.9503   60.2551  169.1889 H         1 AZO383      0.0000 
     42 H          66.3985   58.6958  165.9015 H         1 AZO383      0.0000 
     43 H          65.1831   57.8663  166.5504 H         1 AZO383      0.0000 
     44 H          65.4369   59.3937  166.9853 H         1 AZO383      0.0000 
     45 H          72.1985   59.3913  171.6857 H         1 AZO383      0.0000 
     46 H          72.1912   59.9842  170.1908 H         1 AZO383      0.0000 
     47 H          71.2104   60.6019  171.3056 H         1 AZO383      0.0000 
@<TRIPOS>BOND
     1    2    1 3    
     2    3    2 1    
     3    4    3 ar   
     4    8    3 ar   
     5    5    4 ar   
     6   31    4 1    
     7    6    5 ar   
     8   32    5 1    
     9    7    6 ar   
    10   33    6 1    
    11    8    7 ar   
    12   34    7 1    
    13    9    8 1    
    14   10    9 1    
    15   11   10 ar   
    16   15   10 ar   
    17   12   11 ar   
    18   35   11 1    
    19   13   12 ar   
    20   16   12 1    
    21   14   13 ar   
    22   15   14 ar   
    23   36   14 1    
    24   17   16 1    
    25   18   17 ar   
    26   22   17 ar   
    27   19   18 ar   
    28   37   18 1    
    29   20   19 ar   
    30   38   19 1    
    31   21   20 ar   
    32   39   20 1    
    33   22   21 ar   
    34   40   21 1    
    35   23   22 1    
    36   24   23 1    
    37   28   23 2    
    38   25   24 2    
    39   26   24 1    
    40   27   26 1    
    41   42   27 1    
    42   43   27 1    
    43   44   27 1    
    44   29   28 1    
    45   41   28 1    
    46   30   29 1    
    47   45   30 1    
    48   46   30 1    
    49   47   30 1    
@<TRIPOS>SUBSTRUCTURE
     1 AZO383      1 GROUP   
@<TRIPOS>SET

