#    Name: 2hwi_VRX_1_INTS_M
#    Modification time : Tue Mar 25 17:08:19 2014

@<TRIPOS>MOLECULE
2hwi_VRX_1_INTS_M
   70     0     9     0     0
SMALL
NO_CHARGES


@<TRIPOS>ATOM
      1 CA          7.9305   40.1535   73.0035 C.3       3 GLC5        0.0000 
      2 CA          8.3630   38.5840   74.5000 C.3       9 GLL5        0.0000 
      3 CA          7.4980   41.7230   71.5070 C.3       6 GLP5        0.0000 
      4 CA         12.1335   39.3255   73.3320 C.3       3 GLC5        0.0000 
      5 CA         10.5820   39.1600   73.7560 C.3       9 GLL5        0.0000 
      6 CA         13.6850   39.4910   72.9080 C.3       6 GLP5        0.0000 
      7 CA         10.7495   39.9460   75.3625 C.3       3 GLC5        0.0000 
      8 CA         10.9170   40.7320   76.9690 C.3       6 GLP5        0.0000 
      9 NZ          6.8875   38.3380   80.3940 N.4       2 LYC4        0.0000 
     10 NZ          7.1580   37.2340   79.2790 N.4       8 LYL4        0.0000 
     11 NZ          6.6170   39.4420   81.5090 N.4       5 LYP4        0.0000 
     12 N           6.8875   38.3380   80.3940 N.am      1 SEC2        0.0000 
     13 N           7.1580   37.2340   79.2790 N.am      7 SEL2        0.0000 
     14 N           6.6170   39.4420   81.5090 N.am      4 SEP2        0.0000 
     15 CA          6.3800   33.5290   72.8690 C.3       3 GLC5        0.0000 
     16 CA          7.3000   32.3270   74.2520 C.3       9 GLL5        0.0000 
     17 CA          5.4600   34.7310   71.4860 C.3       6 GLP5        0.0000 
     18 N           3.9685   33.4880   74.7780 N.am      1 SEC2        0.0000 
     19 N           5.3580   33.4400   75.0340 N.am      7 SEL2        0.0000 
     20 N           2.5790   33.5360   74.5220 N.am      4 SEP2        0.0000 
     21 N           4.1435   32.0170   72.7480 N.am      1 SEC2        0.0000 
     22 N           5.0890   31.6280   73.6130 N.am      7 SEL2        0.0000 
     23 N           3.1980   32.4060   71.8830 N.am      4 SEP2        0.0000 
     24 CA          9.2765   29.5615   72.0195 C.3       3 GLC5        0.0000 
     25 CA          9.6660   31.1930   73.4490 C.3       9 GLL5        0.0000 
     26 CA          8.8870   27.9300   70.5900 C.3       6 GLP5        0.0000 
     27 CA         11.2390   32.4580   75.8975 C.3       3 GLC5        0.0000 
     28 CA         10.6040   31.7100   74.3380 C.3       9 GLL5        0.0000 
     29 CA         11.8740   33.2060   77.4570 C.3       6 GLP5        0.0000 
     30 CA         13.0385   32.1430   75.3015 C.3       3 GLC5        0.0000 
     31 CA         11.8550   31.3140   73.9120 C.3       9 GLL5        0.0000 
     32 CA         14.2220   32.9720   76.6910 C.3       6 GLP5        0.0000 
     33 CA         10.2915   29.2375   71.6800 C.3       3 GLC5        0.0000 
     34 CA         11.6960   30.5450   72.7700 C.3       9 GLL5        0.0000 
     35 CA         13.2500   28.4730   70.3760 C.3       3 GLC5        0.0000 
     36 CA         12.7710   29.8600   71.9420 C.3       9 GLL5        0.0000 
     37 CA         13.7290   27.0860   68.8100 C.3       6 GLP5        0.0000 
     38 CA         11.5595   32.0840   70.6485 C.3       3 GLC5        0.0000 
     39 CA         13.1250   30.6360   70.6690 C.3       9 GLL5        0.0000 
     40 CA          9.9940   33.5320   70.6280 C.3       6 GLP5        0.0000 
     41 CA         13.1705   31.7090   69.3015 C.3       3 GLC5        0.0000 
     42 CA         13.2160   32.7820   67.9340 C.3       6 GLP5        0.0000 
     43 CA         13.8020   29.4440   69.4125 C.3       3 GLC5        0.0000 
     44 CA         14.4790   28.2520   68.1560 C.3       6 GLP5        0.0000 
     45 CA         14.9430   31.3220   70.4495 C.3       3 GLC5        0.0000 
     46 CA         16.7610   32.0080   70.2300 C.3       6 GLP5        0.0000 
     47 CA          9.5617   36.1335   74.0472 C.3       3 GLC5        0.0000 
     48 CA         10.3280   37.3950   75.3650 C.3       9 GLL5        0.0000 
     49 CA          9.2070   35.2430   72.2900 C.3       6 GLP5        0.0000 
     50 CA         11.5518   36.1380   76.3363 C.3       3 GLC5        0.0000 
     51 CA         13.1870   35.2520   76.8680 C.3       6 GLP5        0.0000 
     52 CA          9.1323   38.8535   76.6757 C.3       3 GLC5        0.0000 
     53 CA          8.3480   40.6830   77.5470 C.3       6 GLP5        0.0000 
     54 CA         11.7830   37.9293   73.8978 C.3       3 GLC5        0.0000 
     55 CA          9.7640   38.3840   74.5220 C.3       9 GLL5        0.0000 
     56 CA         13.5200   37.9690   72.8520 C.3       6 GLP5        0.0000 
     57 CA         10.1120   40.2145   72.9495 C.3       3 GLC5        0.0000 
     58 CA         10.0510   41.6570   71.7600 C.3       6 GLP5        0.0000 
     59 CA          8.7058   39.5835   76.0290 C.3       3 GLC5        0.0000 
     60 CA          8.5045   36.2788   74.0370 C.3       3 GLC5        0.0000 
     61 CA          7.5190   37.7950   75.3320 C.3       9 GLL5        0.0000 
     62 CA          8.0750   38.9988   76.6655 C.3       3 GLC5        0.0000 
     63 CA          9.5149   37.0325   73.2117 C.3       3 GLC5        0.0000 
     64 CA          8.4195   34.0890   73.5213 C.3       3 GLC5        0.0000 
     65 CA          7.9640   33.5430   75.2530 C.3       9 GLL5        0.0000 
     66 CA          6.9348   30.4015   72.6875 C.3       3 GLC5        0.0000 
     67 CA          6.1390   28.9760   71.5030 C.3       6 GLP5        0.0000 
     68 CA          9.4537   32.3960   72.0493 C.3       3 GLC5        0.0000 
     69 CA          8.1610   31.3270   73.4920 C.3       9 GLL5        0.0000 
     70 CA         10.7284   32.2802   72.0378 C.3       3 GLC5        0.0000 
@<TRIPOS>BOND
@<TRIPOS>SUBSTRUCTURE
     1 SEC2       12 GROUP        1 X    SEC  0     ROOT SEC X 2
     2 LYC4        9 GROUP        1 X    LYC  0     **** LYC X 4
     3 GLC5        1 GROUP        1 X    GLC  0     **** GLC X 6
     4 SEP2       14 GROUP        1 Y    SEP  0     ROOT SEP Y 9
     5 LYP4       11 GROUP        1 Y    LYP  0     **** LYP Y 11
     6 GLP5        3 GROUP        1 Y    GLP  0     **** GLP Y 13
     7 SEL2       13 GROUP        1 Z    SEL  0     ROOT SEL Z 16
     8 LYL4       10 GROUP        1 Z    LYL  0     **** LYL Z 18
     9 GLL5        2 GROUP        1 Z    GLL  0     **** GLL Z 20
@<TRIPOS>SET

