#    Name: 2hwi_VRX_1_ligand
#    Modification time : Tue Mar 25 17:08:19 2014

@<TRIPOS>MOLECULE
2hwi_VRX_1_ligand
   42    44     1     0     0
SMALL
NO_CHARGES


@<TRIPOS>ATOM
      1 C1          9.5050   36.6530   76.2440 C.ar      1 VRX600      0.0000 
      2 C2         10.3280   37.3950   75.3650 C.ar      1 VRX600      0.0000 
      3 C3          9.7640   38.3840   74.5220 C.ar      1 VRX600      0.0000 
      4 C4          8.3630   38.5840   74.5000 C.ar      1 VRX600      0.0000 
      5 C5          7.5190   37.7950   75.3320 C.ar      1 VRX600      0.0000 
      6 C6          8.0850   36.8340   76.2360 C.ar      1 VRX600      0.0000 
      7 F          10.5820   39.1600   73.7560 F         1 VRX600      0.0000 
      8 C8          7.1750   35.9860   77.1850 C.3       1 VRX600      0.0000 
      9 C9          6.5690   36.9180   78.2590 C.2       1 VRX600      0.0000 
     10 O10         5.3080   37.3670   77.9640 O.co2     1 VRX600      0.0000 
     11 O11         7.1580   37.2340   79.2790 O.co2     1 VRX600      0.0000 
     12 N12         6.1020   35.2110   76.4660 N.pl3     1 VRX600      0.0000 
     13 C13         6.3700   34.0990   75.6060 C.2       1 VRX600      0.0000 
     14 S14         7.9640   33.5430   75.2530 S.3       1 VRX600      0.0000 
     15 C15         7.3000   32.3270   74.2520 C.3       1 VRX600      0.0000 
     16 C16         5.8080   32.3890   74.2370 C.2       1 VRX600      0.0000 
     17 N17         5.3580   33.4400   75.0340 N.2       1 VRX600      0.0000 
     18 O18         5.0890   31.6280   73.6130 O.2       1 VRX600      0.0000 
     19 C19         8.1610   31.3270   73.4920 C.3       1 VRX600      0.0000 
     20 C20         9.6660   31.1930   73.4490 C.2       1 VRX600      0.0000 
     21 C21        10.6040   31.7100   74.3380 C.2       1 VRX600      0.0000 
     22 C22        11.8550   31.3140   73.9120 C.2       1 VRX600      0.0000 
     23 C23        11.6960   30.5450   72.7700 C.2       1 VRX600      0.0000 
     24 O24        10.3500   30.4890   72.4930 O.3       1 VRX600      0.0000 
     25 C25        12.7710   29.8600   71.9420 C.3       1 VRX600      0.0000 
     26 C26        13.1250   30.6360   70.6690 C.3       1 VRX600      0.0000 
     27 H           9.9195   35.9815   76.8919 H         1 VRX600      0.0000 
     28 H          11.3341   37.2176   75.3372 H         1 VRX600      0.0000 
     29 H           7.9553   39.2908   73.8908 H         1 VRX600      0.0000 
     30 H           6.5086   37.9089   75.2896 H         1 VRX600      0.0000 
     31 H           7.8350   35.2846   77.7134 H         1 VRX600      0.0000 
     32 H           5.1328   35.5217   76.6214 H         1 VRX600      0.0000 
     33 H           7.3558   33.2855   73.1685 H         1 VRX600      0.0000 
     34 H           7.7941   31.3623   72.3713 H         1 VRX600      0.0000 
     35 H           7.7354   30.2589   73.7566 H         1 VRX600      0.0000 
     36 H          10.4101   32.2400   75.0998 H         1 VRX600      0.0000 
     37 H          12.6827   31.5289   74.3263 H         1 VRX600      0.0000 
     38 H          12.4278   28.8560   71.6608 H         1 VRX600      0.0000 
     39 H          13.6778   29.7436   72.5494 H         1 VRX600      0.0000 
     40 H          13.4691   31.5518   70.8759 H         1 VRX600      0.0000 
     41 H          13.8313   30.1712   70.1350 H         1 VRX600      0.0000 
     42 H          12.3320   30.7492   70.0704 H         1 VRX600      0.0000 
@<TRIPOS>BOND
     1    2    1 ar   
     2    6    1 ar   
     3   27    1 1    
     4    3    2 ar   
     5   28    2 1    
     6    4    3 ar   
     7    7    3 1    
     8    5    4 ar   
     9   29    4 1    
    10    6    5 ar   
    11   30    5 1    
    12    8    6 1    
    13    9    8 1    
    14   12    8 1    
    15   31    8 1    
    16   10    9 ar   
    17   11    9 ar   
    18   13   12 1    
    19   32   12 1    
    20   14   13 1    
    21   17   13 2    
    22   15   14 1    
    23   16   15 1    
    24   19   15 1    
    25   33   15 1    
    26   17   16 1    
    27   18   16 2    
    28   20   19 1    
    29   34   19 1    
    30   35   19 1    
    31   21   20 2    
    32   24   20 1    
    33   22   21 1    
    34   36   21 1    
    35   23   22 2    
    36   37   22 1    
    37   24   23 1    
    38   25   23 1    
    39   26   25 1    
    40   38   25 1    
    41   39   25 1    
    42   40   26 1    
    43   41   26 1    
    44   42   26 1    
@<TRIPOS>SUBSTRUCTURE
     1 VRX600      1 GROUP   
@<TRIPOS>SET

