#    Name: 4dpt_AGS_1_INTS_M
#    Modification time : Tue Mar 25 10:03:25 2014

@<TRIPOS>MOLECULE
4dpt_AGS_1_INTS_M
   58     0     9     0     0
SMALL
NO_CHARGES


@<TRIPOS>ATOM
      1 CA          5.0470   17.1165   15.9655 C.3       3 GLC5        0.0000 
      2 CA          5.8060   18.5180   16.5580 C.3       9 GLL5        0.0000 
      3 CA          4.2880   15.7150   15.3730 C.3       6 GLP5        0.0000 
      4 N           7.1530   14.6860   15.9645 N.am      2 SEC2        0.0000 
      5 N           6.3650   15.6680   16.9710 N.am      8 SEL2        0.0000 
      6 N           7.9410   13.7040   14.9580 N.am      5 SEP2        0.0000 
      7 N           7.7470   15.4560   17.1980 N.am      2 SEC2        0.0000 
      8 N           9.1290   15.2440   17.4250 N.am      5 SEP2        0.0000 
      9 N           6.8505   14.2655   17.2350 N.am      2 SEC2        0.0000 
     10 N           7.3360   12.8630   17.4990 N.am      5 SEP2        0.0000 
     11 N           6.6275   15.4530   13.4540 N.am      2 SEC2        0.0000 
     12 N           7.5940   16.4440   13.0920 N.am      8 SEL2        0.0000 
     13 N           5.6610   14.4620   13.8160 N.am      5 SEP2        0.0000 
     14 N           7.8095   15.3210   12.4615 N.am      2 SEC2        0.0000 
     15 N           8.0250   14.1980   11.8310 N.am      5 SEP2        0.0000 
     16 N           7.7675   15.0740   14.0250 N.am      2 SEC2        0.0000 
     17 N           4.9025   17.2865   14.3320 N.am      2 SEC2        0.0000 
     18 N           6.1510   18.0450   14.3240 N.am      8 SEL2        0.0000 
     19 N           3.6540   16.5280   14.3400 N.am      5 SEP2        0.0000 
     20 N           7.9875   15.2790   15.2285 N.am      2 SEC2        0.0000 
     21 N           8.0340   16.8540   15.4990 N.am      8 SEL2        0.0000 
     22 N          10.6080   21.6785   14.9810 N.am      2 SEC2        0.0000 
     23 N          10.5520   20.1750   14.3790 N.am      8 SEL2        0.0000 
     24 N          10.6640   23.1820   15.5830 N.am      5 SEP2        0.0000 
     25 N          10.1785   20.5970   15.7685 N.am      2 SEC2        0.0000 
     26 N           9.8050   21.0190   17.1580 N.am      5 SEP2        0.0000 
     27 CA         10.1125   17.3945   11.6745 C.3       3 GLC5        0.0000 
     28 CA         10.7640   16.4170   13.3750 C.3       9 GLL5        0.0000 
     29 CA          9.4610   18.3720    9.9740 C.3       6 GLP5        0.0000 
     30 CA         10.9855   17.0435   10.9305 C.3       3 GLC5        0.0000 
     31 CA         12.5100   15.7150   11.8870 C.3       9 GLL5        0.0000 
     32 N           9.1000   10.9305   10.1720 N.am      2 SEC2        0.0000 
     33 N          10.1400   11.0210   11.2340 N.am      8 SEL2        0.0000 
     34 N           8.0600   10.8400    9.1100 N.am      5 SEP2        0.0000 
     35 CA         11.6765   10.3730    9.6200 C.3       3 GLC5        0.0000 
     36 CA         11.1670   10.2480   11.6360 C.3       9 GLL5        0.0000 
     37 CA         12.1860   10.4980    7.6040 C.3       6 GLP5        0.0000 
     38 CA         11.1230    8.6345    9.7355 C.3       3 GLC5        0.0000 
     39 CA         11.4170    8.8710   11.6300 C.3       9 GLL5        0.0000 
     40 CA         10.8290    8.3980    7.8410 C.3       6 GLP5        0.0000 
     41 CA         11.4775    6.8520   10.8035 C.3       3 GLC5        0.0000 
     42 CA         11.5380    4.8330    9.9770 C.3       6 GLP5        0.0000 
     43 O          10.4595    6.6580   10.9170 O.2       1 ALC1        0.0000 
     44 O          10.4590    7.9620   11.1130 O.2       7 ALL1        0.0000 
     45 O          10.4600    5.3540   10.7210 O.2       4 ALP1        0.0000 
     46 O           8.8930    8.5620   10.7670 O.2       1 ALC1        0.0000 
     47 O           7.3270    9.1620   10.4210 O.2       4 ALP1        0.0000 
     48 CA         14.9370    8.8890   11.2920 C.3       3 GLC5        0.0000 
     49 CA         13.5030    9.2490   12.6170 C.3       9 GLL5        0.0000 
     50 CA         16.3710    8.5290    9.9670 C.3       6 GLP5        0.0000 
     51 CA         15.4640    8.6725   13.3660 C.3       3 GLC5        0.0000 
     52 CA         17.4250    8.0960   14.1150 C.3       6 GLP5        0.0000 
     53 CA         11.8020    9.5130   13.6325 C.3       3 GLC5        0.0000 
     54 CA         10.1010    9.7770   14.6480 C.3       6 GLP5        0.0000 
     55 CA         10.5523   15.3228   14.7990 C.3       3 GLC5        0.0000 
     56 CA         11.9210   15.5460   13.2210 C.3       9 GLL5        0.0000 
     57 CA          9.7620   14.6640   16.3000 C.3       6 GLP5        0.0000 
     58 CA         10.9090   10.0504   13.2710 C.3       3 GLC5        0.0000 
@<TRIPOS>BOND
@<TRIPOS>SUBSTRUCTURE
     1 ALC1       43 GROUP        1 X    ALC  0     ROOT ALC X 1
     2 SEC2        4 GROUP        1 X    SEC  0     **** SEC X 2
     3 GLC5        1 GROUP        1 X    GLC  0     **** GLC X 6
     4 ALP1       45 GROUP        1 Y    ALP  0     ROOT ALP Y 8
     5 SEP2        6 GROUP        1 Y    SEP  0     **** SEP Y 9
     6 GLP5        3 GROUP        1 Y    GLP  0     **** GLP Y 13
     7 ALL1       44 GROUP        1 Z    ALL  0     ROOT ALL Z 15
     8 SEL2        5 GROUP        1 Z    SEL  0     **** SEL Z 16
     9 GLL5        2 GROUP        1 Z    GLL  0     **** GLL Z 20
@<TRIPOS>SET

