#    Name: 4dpt_AGS_1_ligand
#    Modification time : Tue Mar 25 10:03:26 2014

@<TRIPOS>MOLECULE
4dpt_AGS_1_ligand
   43    45     1     0     0
SMALL
NO_CHARGES


@<TRIPOS>ATOM
      1 PG          7.0960   16.9470   16.7500 P.3       1 AGS402      0.0000 
      2 S1G         5.8060   18.5180   16.5580 S.3       1 AGS402      0.0000 
      3 O2G         6.3650   15.6680   16.9710 O.co2     1 AGS402      0.0000 
      4 O3G         7.8740   17.0500   17.9980 O.co2     1 AGS402      0.0000 
      5 PB          7.5830   17.4840   14.1660 P.3       1 AGS402      0.0000 
      6 O1B         7.5940   16.4440   13.0920 O.co2     1 AGS402      0.0000 
      7 O2B         6.1510   18.0450   14.3240 O.co2     1 AGS402      0.0000 
      8 O3B         8.0340   16.8540   15.4990 O.3       1 AGS402      0.0000 
      9 PA         10.0230   18.7050   14.3710 P.3       1 AGS402      0.0000 
     10 O1A        10.5520   20.1750   14.3790 O.co2     1 AGS402      0.0000 
     11 O2A         9.9840   18.1740   15.7980 O.co2     1 AGS402      0.0000 
     12 O3A         8.5820   18.6710   13.7670 O.3       1 AGS402      0.0000 
     13 O5'        11.0000   17.7790   13.4810 O.3       1 AGS402      0.0000 
     14 C5'        10.7640   16.4170   13.3750 C.3       1 AGS402      0.0000 
     15 C4'        11.9210   15.5460   13.2210 C.3       1 AGS402      0.0000 
     16 O4'        11.5110   14.2250   13.2940 O.3       1 AGS402      0.0000 
     17 C3'        12.5100   15.7150   11.8870 C.3       1 AGS402      0.0000 
     18 O3'        13.7190   16.3750   12.0100 O.3       1 AGS402      0.0000 
     19 C2'        12.7420   14.4080   11.3930 C.3       1 AGS402      0.0000 
     20 O2'        14.1010   14.2560   11.0960 O.3       1 AGS402      0.0000 
     21 C1'        12.3720   13.5030   12.4710 C.3       1 AGS402      0.0000 
     22 N9         11.6670   12.3470   12.0480 N.pl3     1 AGS402      0.0000 
     23 C8         10.4510   12.3000   11.4880 C.2       1 AGS402      0.0000 
     24 N7         10.1400   11.0210   11.2340 N.2       1 AGS402      0.0000 
     25 C5         11.1670   10.2480   11.6360 C.ar      1 AGS402      0.0000 
     26 C6         11.4170    8.8710   11.6300 C.ar      1 AGS402      0.0000 
     27 N6         10.4590    7.9620   11.1130 N.pl3     1 AGS402      0.0000 
     28 N1         12.5800    8.4280   12.1240 N.ar      1 AGS402      0.0000 
     29 C2         13.5030    9.2490   12.6170 C.ar      1 AGS402      0.0000 
     30 N3         13.2880   10.5700   12.6340 N.ar      1 AGS402      0.0000 
     31 C4         12.1420   11.0880   12.1550 C.ar      1 AGS402      0.0000 
     32 H          10.0496   16.2018   12.5114 H         1 AGS402      0.0000 
     33 H          10.1657   16.0446   14.2726 H         1 AGS402      0.0000 
     34 H          12.6597   15.7725   13.9628 H         1 AGS402      0.0000 
     35 H          11.8167   16.2367   11.2651 H         1 AGS402      0.0000 
     36 H          12.1203   14.2143   10.5418 H         1 AGS402      0.0000 
     37 H          13.2601   13.2297   13.0295 H         1 AGS402      0.0000 
     38 H           9.8860   13.0676   11.2968 H         1 AGS402      0.0000 
     39 H           9.5930    8.3602   10.8105 H         1 AGS402      0.0000 
     40 H          10.7305    6.9997   11.0947 H         1 AGS402      0.0000 
     41 H          14.4022    8.8644   12.9940 H         1 AGS402      0.0000 
     42 H          14.4018   15.7302   11.6666 H         1 AGS402      0.0000 
     43 H          14.4255   13.5485   11.7239 H         1 AGS402      0.0000 
@<TRIPOS>BOND
     1    2    1 1    
     2    3    1 ar   
     3    4    1 ar   
     4    8    1 1    
     5    6    5 ar   
     6    7    5 ar   
     7    8    5 1    
     8   12    5 1    
     9   10    9 ar   
    10   11    9 ar   
    11   12    9 1    
    12   13    9 1    
    13   14   13 1    
    14   15   14 1    
    15   32   14 1    
    16   33   14 1    
    17   16   15 1    
    18   17   15 1    
    19   34   15 1    
    20   21   16 1    
    21   18   17 1    
    22   19   17 1    
    23   35   17 1    
    24   42   18 1    
    25   20   19 1    
    26   21   19 1    
    27   36   19 1    
    28   43   20 1    
    29   22   21 1    
    30   37   21 1    
    31   23   22 1    
    32   31   22 1    
    33   24   23 2    
    34   38   23 1    
    35   25   24 1    
    36   26   25 ar   
    37   31   25 ar   
    38   27   26 1    
    39   28   26 ar   
    40   39   27 1    
    41   40   27 1    
    42   29   28 ar   
    43   30   29 ar   
    44   41   29 1    
    45   31   30 ar   
@<TRIPOS>SUBSTRUCTURE
     1 AGS402      1 GROUP   
@<TRIPOS>SET

