#    Name: 4mvc_CDC_2_INTS_M
#    Modification time : Tue Mar 25 12:24:15 2014

@<TRIPOS>MOLECULE
4mvc_CDC_2_INTS_M
   74     0    15     0     0
SMALL
NO_CHARGES


@<TRIPOS>ATOM
      1 N           9.1600   -7.1325  -33.3760 N.am      2 SEC2        0.0000 
      2 N           8.7770   -8.5630  -32.8160 N.am     12 SEL2        0.0000 
      3 N           9.5430   -5.7020  -33.9360 N.am      7 SEP2        0.0000 
      4 CA          6.3005   -8.5890  -32.5980 C.3       5 GLC5        0.0000 
      5 CA          7.5040   -9.9270  -31.3680 C.3      15 GLL5        0.0000 
      6 CA          5.0970   -7.2510  -33.8280 C.3      10 GLP5        0.0000 
      7 O           8.8890   -6.2755  -31.1590 O.2       1 ALC1        0.0000 
      8 O           7.9810   -7.6560  -30.7990 O.2      11 ALL1        0.0000 
      9 O           9.7970   -4.8950  -31.5190 O.2       6 ALP1        0.0000 
     10 O           7.2890   -6.8930  -29.7850 O.2       1 ALC1        0.0000 
     11 O           6.5970   -6.1300  -28.7710 O.2       6 ALP1        0.0000 
     12 CA          6.3790  -11.2775  -34.8185 C.3       5 GLC5        0.0000 
     13 CA          8.4750  -11.8930  -34.3670 C.3      15 GLL5        0.0000 
     14 CA          4.2830  -10.6620  -35.2700 C.3      10 GLP5        0.0000 
     15 CA          8.1075  -11.2565  -35.9695 C.3       5 GLC5        0.0000 
     16 CA          7.7400  -10.6200  -37.5720 C.3      10 GLP5        0.0000 
     17 CA          6.7620  -17.0370  -33.6450 C.3       5 GLC5        0.0000 
     18 CA          7.0250  -15.0400  -33.5930 C.3      15 GLL5        0.0000 
     19 CA          6.4990  -19.0340  -33.6970 C.3      10 GLP5        0.0000 
     20 N           5.3160  -17.4495  -31.4745 N.am      2 SEC2        0.0000 
     21 N           5.5990  -15.9170  -31.1590 N.am     12 SEL2        0.0000 
     22 N           5.0330  -18.9820  -31.7900 N.am      7 SEP2        0.0000 
     23 N           4.2955  -16.5250  -31.4350 N.am      2 SEC2        0.0000 
     24 N           2.9920  -17.1330  -31.7110 N.am      7 SEP2        0.0000 
     25 NZ          7.2235  -16.3725  -28.3785 N.4       4 LYC4        0.0000 
     26 NZ          7.7520  -15.4150  -29.7900 N.4      14 LYL4        0.0000 
     27 NZ          6.6950  -17.3300  -26.9670 N.4       9 LYP4        0.0000 
     28 N           6.3730  -18.1420  -31.6315 N.am      2 SEC2        0.0000 
     29 N           7.7130  -17.3020  -31.4730 N.am     12 SEL2        0.0000 
     30 N          11.1160  -16.5505  -32.7910 N.am      2 SEC2        0.0000 
     31 N          10.1960  -16.8680  -31.8450 N.am     12 SEL2        0.0000 
     32 N          12.0360  -16.2330  -33.7370 N.am      7 SEP2        0.0000 
     33 NZ          8.0035  -17.5705  -28.2645 N.4       4 LYC4        0.0000 
     34 NZ          9.3120  -17.8110  -29.5620 N.4      14 LYL4        0.0000 
     35 N          10.1435  -19.0190  -28.9680 N.am      2 SEC2        0.0000 
     36 N           9.3120  -17.8110  -29.5620 N.am     12 SEL2        0.0000 
     37 N          10.9750  -20.2270  -28.3740 N.am      7 SEP2        0.0000 
     38 CA         10.8355  -17.9595  -33.9970 C.3       5 GLC5        0.0000 
     39 CA          9.9040  -19.4510  -32.9330 C.3      15 GLL5        0.0000 
     40 CA         11.7670  -16.4680  -35.0610 C.3      10 GLP5        0.0000 
     41 CA          9.0355  -21.0310  -35.2545 C.3       5 GLC5        0.0000 
     42 CA          9.6200  -20.8860  -33.3560 C.3      15 GLL5        0.0000 
     43 CA          8.4510  -21.1760  -37.1530 C.3      10 GLP5        0.0000 
     44 CA          8.1570  -22.5780  -33.1170 C.3       5 GLC5        0.0000 
     45 CA          6.6940  -24.2700  -32.8780 C.3      10 GLP5        0.0000 
     46 OD1        10.5700  -21.7715  -34.4470 O.co2     3 ASC3        0.0000 
     47 OD1        10.5880  -21.7960  -32.7280 O.co2    13 ASL3        0.0000 
     48 OD1        10.5520  -21.7470  -36.1660 O.co2     8 ASP3        0.0000 
     49 CA         12.1020  -20.2935  -31.5180 C.3       5 GLC5        0.0000 
     50 CA         11.9430  -21.2520  -32.8690 C.3      15 GLL5        0.0000 
     51 CA         12.2610  -19.3350  -30.1670 C.3      10 GLP5        0.0000 
     52 CA         13.8395  -22.1775  -33.0385 C.3       5 GLC5        0.0000 
     53 CA         15.7360  -23.1030  -33.2080 C.3      10 GLP5        0.0000 
     54 CA         12.8750  -20.5930  -34.2545 C.3       5 GLC5        0.0000 
     55 CA         13.8070  -19.9340  -35.6400 C.3      10 GLP5        0.0000 
     56 CA          8.5975  -23.6820  -33.1440 C.3       5 GLC5        0.0000 
     57 CA         10.5010  -23.0940  -33.4100 C.3      15 GLL5        0.0000 
     58 CA         10.5770  -24.8800  -32.8920 C.3       5 GLC5        0.0000 
     59 CA         10.6530  -26.6660  -32.3740 C.3      10 GLP5        0.0000 
     60 CA         10.4700  -23.1235  -29.8980 C.3       5 GLC5        0.0000 
     61 CA         10.2920  -21.9600  -31.2970 C.3      15 GLL5        0.0000 
     62 CA         10.6480  -24.2870  -28.4990 C.3      10 GLP5        0.0000 
     63 CA         11.2765  -20.6475  -30.7320 C.3       5 GLC5        0.0000 
     64 CA          5.9347  -11.5030  -32.2692 C.3       5 GLC5        0.0000 
     65 CA          7.6410  -10.9730  -32.2730 C.3      15 GLL5        0.0000 
     66 CA          4.2970  -12.5560  -32.7180 C.3      10 GLP5        0.0000 
     67 CA         10.5970  -14.9770  -34.6513 C.3       5 GLC5        0.0000 
     68 CA          9.6440  -12.8000  -34.0070 C.3      15 GLL5        0.0000 
     69 CA          5.8622  -15.1207  -34.8885 C.3       5 GLC5        0.0000 
     70 CA          7.6960  -14.1070  -34.5990 C.3      15 GLL5        0.0000 
     71 CA          4.3640  -15.6680  -35.6810 C.3      10 GLP5        0.0000 
     72 CA          5.8287  -13.5647  -33.4070 C.3       5 GLC5        0.0000 
     73 CA          8.1305  -19.6013  -33.4207 C.3       5 GLC5        0.0000 
     74 CA         11.0115  -19.7518  -31.6558 C.3       5 GLC5        0.0000 
@<TRIPOS>BOND
@<TRIPOS>SUBSTRUCTURE
     1 ALC1        7 GROUP        1 X    ALC  0     ROOT ALC X 1
     2 SEC2        1 GROUP        1 X    SEC  0     **** SEC X 2
     3 ASC3       46 GROUP        1 X    ASC  0     **** ASC X 3
     4 LYC4       25 GROUP        1 X    LYC  0     **** LYC X 4
     5 GLC5        4 GROUP        1 X    GLC  0     **** GLC X 6
     6 ALP1        9 GROUP        1 Y    ALP  0     ROOT ALP Y 8
     7 SEP2        3 GROUP        1 Y    SEP  0     **** SEP Y 9
     8 ASP3       48 GROUP        1 Y    ASP  0     **** ASP Y 10
     9 LYP4       27 GROUP        1 Y    LYP  0     **** LYP Y 11
    10 GLP5        6 GROUP        1 Y    GLP  0     **** GLP Y 13
    11 ALL1        8 GROUP        1 Z    ALL  0     ROOT ALL Z 15
    12 SEL2        2 GROUP        1 Z    SEL  0     **** SEL Z 16
    13 ASL3       47 GROUP        1 Z    ASL  0     **** ASL Z 17
    14 LYL4       26 GROUP        1 Z    LYL  0     **** LYL Z 18
    15 GLL5        5 GROUP        1 Z    GLL  0     **** GLL Z 20
@<TRIPOS>SET

