#    Name: 4mvc_CDC_2_ligand
#    Modification time : Tue Mar 25 12:24:15 2014

@<TRIPOS>MOLECULE
4mvc_CDC_2_ligand
   56    57     1     0     0
SMALL
NO_CHARGES


@<TRIPOS>ATOM
      1 N1          8.3260  -10.7880  -33.4090 N.am      1 CDC401      0.0000 
      2 C2          8.8920   -9.6010  -33.6770 C.2       1 CDC401      0.0000 
      3 N3          8.7770   -8.5630  -32.8160 N.2       1 CDC401      0.0000 
      4 C4          8.0910   -8.7020  -31.6610 C.2       1 CDC401      0.0000 
      5 C5          7.5040   -9.9270  -31.3680 C.2       1 CDC401      0.0000 
      6 C6          7.6410  -10.9730  -32.2730 C.2       1 CDC401      0.0000 
      7 O2          9.5890   -9.4360  -34.8360 O.2       1 CDC401      0.0000 
      8 N4          7.9810   -7.6560  -30.7990 N.pl3     1 CDC401      0.0000 
      9 C1'         8.4750  -11.8930  -34.3670 C.3       1 CDC401      0.0000 
     10 C2'         9.6440  -12.8000  -34.0070 C.3       1 CDC401      0.0000 
     11 O2'        10.8440  -12.4040  -34.6800 O.3       1 CDC401      0.0000 
     12 C3'         9.2100  -14.1720  -34.4760 C.3       1 CDC401      0.0000 
     13 C4'         7.6960  -14.1070  -34.5990 C.3       1 CDC401      0.0000 
     14 O4'         7.3150  -12.7360  -34.3970 O.3       1 CDC401      0.0000 
     15 O3'         9.7810  -14.4350  -35.7610 O.3       1 CDC401      0.0000 
     16 C5'         7.0250  -15.0400  -33.5930 C.3       1 CDC401      0.0000 
     17 O5'         7.6220  -14.9250  -32.2990 O.3       1 CDC401      0.0000 
     18 PA          7.1080  -15.8570  -31.0840 P.3       1 CDC401      0.0000 
     19 O1A         5.5990  -15.9170  -31.1590 O.co2     1 CDC401      0.0000 
     20 O2A         7.7520  -15.4150  -29.7900 O.co2     1 CDC401      0.0000 
     21 O3A         7.7130  -17.3020  -31.4730 O.3       1 CDC401      0.0000 
     22 PB          9.2210  -17.7240  -31.0690 P.3       1 CDC401      0.0000 
     23 O1B         9.3420  -19.2210  -31.6430 O.3       1 CDC401      0.0000 
     24 O2B        10.1960  -16.8680  -31.8450 O.co2     1 CDC401      0.0000 
     25 O3B         9.3120  -17.8110  -29.5620 O.co2     1 CDC401      0.0000 
     26 C14         9.9040  -19.4510  -32.9330 C.3       1 CDC401      0.0000 
     27 C15         9.6200  -20.8860  -33.3560 C.3       1 CDC401      0.0000 
     28 N11        10.5880  -21.7960  -32.7280 N.4       1 CDC401      0.0000 
     29 C16        11.9430  -21.2520  -32.8690 C.3       1 CDC401      0.0000 
     30 C17        10.5010  -23.0940  -33.4100 C.3       1 CDC401      0.0000 
     31 C18        10.2920  -21.9600  -31.2970 C.3       1 CDC401      0.0000 
     32 H           6.9799  -10.0569  -30.5010 H         1 CDC401      0.0000 
     33 H           7.2052  -11.8862  -32.0481 H         1 CDC401      0.0000 
     34 H           8.7248   -6.9880  -30.8206 H         1 CDC401      0.0000 
     35 H           7.1660   -7.6471  -30.2195 H         1 CDC401      0.0000 
     36 H           8.6708  -11.5029  -35.3621 H         1 CDC401      0.0000 
     37 H           9.7414  -12.8212  -32.9497 H         1 CDC401      0.0000 
     38 H           9.4684  -14.8882  -33.7496 H         1 CDC401      0.0000 
     39 H           7.4343  -14.4296  -35.5992 H         1 CDC401      0.0000 
     40 H           7.1045  -16.0672  -33.9856 H         1 CDC401      0.0000 
     41 H           5.9520  -14.7877  -33.5676 H         1 CDC401      0.0000 
     42 H          10.9896  -19.3083  -32.9351 H         1 CDC401      0.0000 
     43 H           9.4733  -18.7861  -33.6888 H         1 CDC401      0.0000 
     44 H           9.6845  -20.9462  -34.4449 H         1 CDC401      0.0000 
     45 H           8.6007  -21.1409  -33.0566 H         1 CDC401      0.0000 
     46 H          12.6278  -21.8474  -32.4489 H         1 CDC401      0.0000 
     47 H          12.2005  -21.1408  -33.8288 H         1 CDC401      0.0000 
     48 H          12.0298  -20.3546  -32.4364 H         1 CDC401      0.0000 
     49 H          10.7083  -23.0158  -34.3851 H         1 CDC401      0.0000 
     50 H          11.1421  -23.7588  -33.0264 H         1 CDC401      0.0000 
     51 H           9.5866  -23.4920  -33.3357 H         1 CDC401      0.0000 
     52 H          10.9408  -22.5772  -30.8519 H         1 CDC401      0.0000 
     53 H          10.3326  -21.0891  -30.8072 H         1 CDC401      0.0000 
     54 H           9.3783  -22.3379  -31.1477 H         1 CDC401      0.0000 
     55 H          10.7282  -11.4276  -34.8622 H         1 CDC401      0.0000 
     56 H          10.5049  -13.7532  -35.8669 H         1 CDC401      0.0000 
@<TRIPOS>BOND
     1    2    1 am   
     2    6    1 1    
     3    9    1 1    
     4    3    2 1    
     5    7    2 2    
     6    4    3 2    
     7    5    4 1    
     8    8    4 1    
     9    6    5 2    
    10   32    5 1    
    11   33    6 1    
    12   34    8 1    
    13   35    8 1    
    14   10    9 1    
    15   14    9 1    
    16   36    9 1    
    17   11   10 1    
    18   12   10 1    
    19   37   10 1    
    20   55   11 1    
    21   13   12 1    
    22   15   12 1    
    23   38   12 1    
    24   14   13 1    
    25   16   13 1    
    26   39   13 1    
    27   56   15 1    
    28   17   16 1    
    29   40   16 1    
    30   41   16 1    
    31   18   17 1    
    32   19   18 ar   
    33   20   18 ar   
    34   21   18 1    
    35   22   21 1    
    36   23   22 1    
    37   24   22 ar   
    38   25   22 ar   
    39   26   23 1    
    40   27   26 1    
    41   42   26 1    
    42   43   26 1    
    43   28   27 1    
    44   44   27 1    
    45   45   27 1    
    46   29   28 1    
    47   30   28 1    
    48   31   28 1    
    49   46   29 1    
    50   47   29 1    
    51   48   29 1    
    52   49   30 1    
    53   50   30 1    
    54   51   30 1    
    55   52   31 1    
    56   53   31 1    
    57   54   31 1    
@<TRIPOS>SUBSTRUCTURE
     1 CDC401      1 GROUP   
@<TRIPOS>SET

