#    Name: 4e4m_0NH_3_INTS_M
#    Modification time : Tue Mar 25 10:36:57 2014

@<TRIPOS>MOLECULE
4e4m_0NH_3_INTS_M
   62     0     9     0     0
SMALL
NO_CHARGES


@<TRIPOS>ATOM
      1 CA         12.6165  -60.0820    3.9825 C.3       3 GLC5        0.0000 
      2 CA         12.1250  -58.6050    2.4650 C.3       9 GLL5        0.0000 
      3 CA         13.1080  -61.5590    5.5000 C.3       6 GLP5        0.0000 
      4 CA          9.7935  -60.4210    4.2540 C.3       3 GLC5        0.0000 
      5 CA         10.5840  -58.4070    4.4440 C.3       9 GLL5        0.0000 
      6 CA          9.0030  -62.4350    4.0640 C.3       6 GLP5        0.0000 
      7 CA          9.6650  -59.1210    6.1100 C.3       3 GLC5        0.0000 
      8 CA          8.7460  -59.8350    7.7760 C.3       6 GLP5        0.0000 
      9 CA         10.1910  -57.9915    6.9120 C.3       3 GLC5        0.0000 
     10 CA         11.4490  -57.5030    5.3520 C.3       9 GLL5        0.0000 
     11 CA          8.9330  -58.4800    8.4720 C.3       6 GLP5        0.0000 
     12 CA         10.1140  -54.5295    2.7375 C.3       3 GLC5        0.0000 
     13 CA         11.6770  -55.8350    3.4330 C.3       9 GLL5        0.0000 
     14 CA          8.5510  -53.2240    2.0420 C.3       6 GLP5        0.0000 
     15 CA          9.3455  -53.4375    3.6020 C.3       3 GLC5        0.0000 
     16 CA         10.1400  -53.6510    5.1620 C.3       9 GLL5        0.0000 
     17 CA          9.1820  -51.7395    4.8020 C.3       3 GLC5        0.0000 
     18 CA          8.2240  -49.8280    4.4420 C.3       6 GLP5        0.0000 
     19 CA         10.7920  -52.2645    6.3440 C.3       3 GLC5        0.0000 
     20 CA         11.4440  -50.8780    7.5260 C.3       6 GLP5        0.0000 
     21 CA          8.6735  -58.7330   -0.3185 C.3       3 GLC5        0.0000 
     22 CA          7.6960  -59.4020    1.3660 C.3       9 GLL5        0.0000 
     23 CA          9.6510  -58.0640   -2.0030 C.3       6 GLP5        0.0000 
     24 CA          5.0780  -57.9070    4.9035 C.3       3 GLC5        0.0000 
     25 CA          6.4040  -56.2370    4.4790 C.3       9 GLL5        0.0000 
     26 CA          3.7520  -59.5770    5.3280 C.3       6 GLP5        0.0000 
     27 CA          5.7605  -56.4760    6.2725 C.3       3 GLC5        0.0000 
     28 CA          5.1170  -56.7150    8.0660 C.3       6 GLP5        0.0000 
     29 CA          7.0515  -55.0575    2.7260 C.3       3 GLC5        0.0000 
     30 CA          7.6990  -53.8780    0.9730 C.3       6 GLP5        0.0000 
     31 O           3.8525  -57.0005    3.5080 O.2       1 ALC1        0.0000 
     32 O           5.4440  -56.8840    3.7450 O.2       7 ALL1        0.0000 
     33 O           2.2610  -57.1170    3.2710 O.2       4 ALP1        0.0000 
     34 CA          4.8945  -58.6805    4.1055 C.3       3 GLC5        0.0000 
     35 CA          6.0370  -57.7840    2.8830 C.3       9 GLL5        0.0000 
     36 CA          5.2835  -57.1485    0.9130 C.3       3 GLC5        0.0000 
     37 CA          4.5300  -56.5130   -1.0570 C.3       6 GLP5        0.0000 
     38 N           4.5025  -58.5250    1.0205 N.am      2 SEC2        0.0000 
     39 N           5.5390  -58.6350    1.9750 N.am      8 SEL2        0.0000 
     40 N           3.4660  -58.4150    0.0660 N.am      5 SEP2        0.0000 
     41 CA          4.1055  -59.3900    1.4560 C.3       3 GLC5        0.0000 
     42 CA          6.2960  -59.4220    1.2430 C.3       9 GLL5        0.0000 
     43 CA          1.9150  -59.3580    1.6690 C.3       6 GLP5        0.0000 
     44 CA          5.1075  -58.6595    0.0090 C.3       3 GLC5        0.0000 
     45 CA          3.9190  -57.8970   -1.2250 C.3       6 GLP5        0.0000 
     46 CA          9.4880  -56.2765    1.6825 C.3       3 GLC5        0.0000 
     47 CA         10.7450  -58.0980    2.9370 C.3       9 GLL5        0.0000 
     48 CA          8.2880  -55.2050    0.5820 C.3       6 GLP5        0.0000 
     49 CA         12.0623  -59.7570    5.1990 C.3       3 GLC5        0.0000 
     50 CA         12.2935  -55.7848    1.2300 C.3       3 GLC5        0.0000 
     51 CA         10.6310  -56.5980    2.6290 C.3       9 GLL5        0.0000 
     52 CA         13.4330  -55.3530   -0.5710 C.3       6 GLP5        0.0000 
     53 CA          8.1418  -57.0850    1.2092 C.3       3 GLC5        0.0000 
     54 CA          6.6378  -59.8560    3.3533 C.3       3 GLC5        0.0000 
     55 CA          7.4360  -57.7020    3.0820 C.3       9 GLL5        0.0000 
     56 CA          6.5390  -61.9690    3.7240 C.3       6 GLP5        0.0000 
     57 CA          7.4627  -58.5260    5.3127 C.3       3 GLC5        0.0000 
     58 CA          7.3980  -59.8570    7.0190 C.3       6 GLP5        0.0000 
     59 CA          7.5351  -56.3473    1.9134 C.3       3 GLC5        0.0000 
     60 CA          7.6190  -56.6880    4.1310 C.3       9 GLL5        0.0000 
     61 CA          6.8424  -60.5812    2.6319 C.3       3 GLC5        0.0000 
     62 CA          8.2950  -58.5280    2.3070 C.3       9 GLL5        0.0000 
@<TRIPOS>BOND
@<TRIPOS>SUBSTRUCTURE
     1 ALC1       31 GROUP        1 X    ALC  0     ROOT ALC X 1
     2 SEC2       38 GROUP        1 X    SEC  0     **** SEC X 2
     3 GLC5        1 GROUP        1 X    GLC  0     **** GLC X 6
     4 ALP1       33 GROUP        1 Y    ALP  0     ROOT ALP Y 8
     5 SEP2       40 GROUP        1 Y    SEP  0     **** SEP Y 9
     6 GLP5        3 GROUP        1 Y    GLP  0     **** GLP Y 13
     7 ALL1       32 GROUP        1 Z    ALL  0     ROOT ALL Z 15
     8 SEL2       39 GROUP        1 Z    SEL  0     **** SEL Z 16
     9 GLL5        2 GROUP        1 Z    GLL  0     **** GLL Z 20
@<TRIPOS>SET

