#    Name: 4e4m_0NH_3_ligand
#    Modification time : Tue Mar 25 10:36:58 2014

@<TRIPOS>MOLECULE
4e4m_0NH_3_ligand
   42    45     1     0     0
SMALL
NO_CHARGES


@<TRIPOS>ATOM
      1 C1         12.1250  -58.6050    2.4650 C.3       1 0NH1201     0.0000 
      2 C2         10.7450  -58.0980    2.9370 C.3       1 0NH1201     0.0000 
      3 C3         10.5840  -58.4070    4.4440 C.3       1 0NH1201     0.0000 
      4 C4         11.4490  -57.5030    5.3520 C.3       1 0NH1201     0.0000 
      5 N5         11.4700  -56.1060    4.8660 N.pl3     1 0NH1201     0.0000 
      6 C6         11.6770  -55.8350    3.4330 C.3       1 0NH1201     0.0000 
      7 C7         10.6310  -56.5980    2.6290 C.3       1 0NH1201     0.0000 
      8 S8         11.3210  -54.8140    5.9040 S.o2      1 0NH1201     0.0000 
      9 O9         12.6320  -54.2490    5.8740 O.2       1 0NH1201     0.0000 
     10 O10        10.8310  -55.3760    7.1170 O.2       1 0NH1201     0.0000 
     11 C11        10.1400  -53.6510    5.1620 C.3       1 0NH1201     0.0000 
     12 N12         9.6610  -58.7520    2.1870 N.pl3     1 0NH1201     0.0000 
     13 C13         9.8450  -59.7080    1.2220 C.2       1 0NH1201     0.0000 
     14 N14         8.6970  -60.0880    0.7490 N.2       1 0NH1201     0.0000 
     15 C15         7.6960  -59.4020    1.3660 C.ar      1 0NH1201     0.0000 
     16 C16         8.2950  -58.5280    2.3070 C.ar      1 0NH1201     0.0000 
     17 C17         7.4360  -57.7020    3.0820 C.ar      1 0NH1201     0.0000 
     18 C18         7.6190  -56.6880    4.1310 C.2       1 0NH1201     0.0000 
     19 C19         6.4040  -56.2370    4.4790 C.2       1 0NH1201     0.0000 
     20 N20         5.4440  -56.8840    3.7450 N.pl3     1 0NH1201     0.0000 
     21 C22         6.0370  -57.7840    2.8830 C.ar      1 0NH1201     0.0000 
     22 N23         5.5390  -58.6350    1.9750 N.ar      1 0NH1201     0.0000 
     23 C24         6.2960  -59.4220    1.2430 C.ar      1 0NH1201     0.0000 
     24 H          10.8574  -59.4532    4.6218 H         1 0NH1201     0.0000 
     25 H           9.5308  -58.2826    4.7201 H         1 0NH1201     0.0000 
     26 H          12.4623  -57.9186    5.3761 H         1 0NH1201     0.0000 
     27 H          11.0396  -57.5525    6.3669 H         1 0NH1201     0.0000 
     28 H          12.6650  -56.1630    3.1182 H         1 0NH1201     0.0000 
     29 H          11.5707  -54.7732    3.2230 H         1 0NH1201     0.0000 
     30 H           9.6416  -56.2538    2.9010 H         1 0NH1201     0.0000 
     31 H          10.7984  -56.4389    1.5716 H         1 0NH1201     0.0000 
     32 H          10.7333  -60.0314    0.9561 H         1 0NH1201     0.0000 
     33 H           8.4705  -56.4491    4.4520 H         1 0NH1201     0.0000 
     34 H           6.2164  -55.5570    5.1465 H         1 0NH1201     0.0000 
     35 H           4.4925  -56.7358    3.8165 H         1 0NH1201     0.0000 
     36 H           5.8881  -60.0881    0.5463 H         1 0NH1201     0.0000 
     37 H          12.8725  -58.1648    2.9625 H         1 0NH1201     0.0000 
     38 H          12.2242  -59.5910    2.5992 H         1 0NH1201     0.0000 
     39 H          12.2741  -58.4251    1.4927 H         1 0NH1201     0.0000 
     40 H          10.0039  -52.8433    5.7357 H         1 0NH1201     0.0000 
     41 H          10.4497  -53.3268    4.2681 H         1 0NH1201     0.0000 
     42 H           9.2418  -54.0693    5.0269 H         1 0NH1201     0.0000 
@<TRIPOS>BOND
     1    2    1 1    
     2   37    1 1    
     3   38    1 1    
     4   39    1 1    
     5    3    2 1    
     6    7    2 1    
     7   12    2 1    
     8    4    3 1    
     9   24    3 1    
    10   25    3 1    
    11    5    4 1    
    12   26    4 1    
    13   27    4 1    
    14    6    5 1    
    15    8    5 1    
    16    7    6 1    
    17   28    6 1    
    18   29    6 1    
    19   30    7 1    
    20   31    7 1    
    21    9    8 2    
    22   10    8 2    
    23   11    8 1    
    24   40   11 1    
    25   41   11 1    
    26   42   11 1    
    27   13   12 1    
    28   16   12 1    
    29   14   13 2    
    30   32   13 1    
    31   15   14 1    
    32   16   15 ar   
    33   23   15 ar   
    34   17   16 ar   
    35   18   17 1    
    36   21   17 ar   
    37   19   18 2    
    38   33   18 1    
    39   20   19 1    
    40   34   19 1    
    41   21   20 1    
    42   35   20 1    
    43   22   21 ar   
    44   23   22 ar   
    45   36   23 1    
@<TRIPOS>SUBSTRUCTURE
     1 0NH1201     1 GROUP   
@<TRIPOS>SET

