#    Name: 1IDT_2_CAVITY_N1_ALL.mol2
#    Modification time : Tue Mar 11 08:03:06 2014

@<TRIPOS>MOLECULE
1IDT_2_CAVITY_N1_ALL.mol2
  155     0     7     0     0
SMALL
NO_CHARGES


@<TRIPOS>ATOM
      1 N          24.9245  -41.7347   58.2621 N.2       2 ALA2        0.0000 
      2 N          25.0711  -42.2718   56.2151 N.2       2 ALA2        0.0000 
      3 CA         24.6276  -43.8884   53.3100 C.3       6 GLY6        0.0000 
      4 DU         25.3643  -43.3461   52.1212 H         7 CUB7        0.0000 
      5 DU         26.1009  -42.8037   50.9325 H         7 CUB7        0.0000 
      6 CA         24.7742  -44.4256   51.2630 C.3       6 GLY6        0.0000 
      7 DU         25.5109  -43.8832   50.0743 H         7 CUB7        0.0000 
      8 CA         24.1841  -45.5051   50.4049 C.3       6 GLY6        0.0000 
      9 CA         24.9208  -44.9627   49.2161 C.3       6 GLY6        0.0000 
     10 DU         25.6574  -44.4204   48.0273 H         7 CUB7        0.0000 
     11 N          24.3307  -46.0422   48.3579 N.2       2 ALA2        0.0000 
     12 N          25.0674  -45.4998   47.1692 N.2       2 ALA2        0.0000 
     13 CA         24.3488  -39.7660   58.8035 C.3       6 GLY6        0.0000 
     14 CA         23.7587  -40.8455   57.9453 C.3       6 GLY6        0.0000 
     15 N          24.4954  -40.3032   56.7565 N.2       2 ALA2        0.0000 
     16 DU         25.2320  -39.7608   55.5677 H         7 CUB7        0.0000 
     17 N          23.9053  -41.3827   55.8983 N.2       2 ALA2        0.0000 
     18 N          24.6420  -40.8403   54.7096 N.2       2 ALA2        0.0000 
     19 N          24.0519  -41.9198   53.8514 N.2       2 ALA2        0.0000 
     20 DU         25.5252  -40.8351   51.4739 H         7 CUB7        0.0000 
     21 CA         23.4618  -42.9993   52.9932 C.3       6 GLY6        0.0000 
     22 DU         24.1985  -42.4570   51.8044 H         7 CUB7        0.0000 
     23 DU         24.9351  -41.9146   50.6157 H         7 CUB7        0.0000 
     24 CA         22.8717  -44.0788   52.1350 C.3       6 GLY6        0.0000 
     25 DU         23.6084  -43.5365   50.9462 H         7 CUB7        0.0000 
     26 DU         24.3450  -42.9941   49.7575 H         7 CUB7        0.0000 
     27 CZ         25.0817  -42.4517   48.5687 C.ar      5 PHE5        0.0000 
     28 CZ         23.0183  -44.6160   50.0881 C.ar      5 PHE5        0.0000 
     29 N          23.7550  -44.0736   48.8993 N.2       2 ALA2        0.0000 
     30 CZ         24.4916  -43.5312   47.7105 C.ar      5 PHE5        0.0000 
     31 N          23.1649  -45.1531   48.0411 N.2       2 ALA2        0.0000 
     32 N          23.9015  -44.6107   46.8524 N.2       2 ALA2        0.0000 
     33 CA         24.6382  -44.0684   45.6636 C.3       6 GLY6        0.0000 
     34 N          25.0998  -36.1756   59.0143 N.2       2 ALA2        0.0000 
     35 N          25.8365  -35.6332   57.8255 N.2       2 ALA2        0.0000 
     36 CA         23.7731  -37.7974   59.3448 C.3       6 GLY6        0.0000 
     37 DU         24.5097  -37.2551   58.1561 H         7 CUB7        0.0000 
     38 DU         25.2464  -36.7127   56.9673 H         7 CUB7        0.0000 
     39 CZ         25.9831  -36.1703   55.7786 C.ar      5 PHE5        0.0000 
     40 CA         23.9196  -38.3346   57.2979 C.3       6 GLY6        0.0000 
     41 DU         24.6563  -37.7922   56.1091 H         7 CUB7        0.0000 
     42 CZ         25.3930  -37.2498   54.9204 C.ar      5 PHE5        0.0000 
     43 CA         23.3296  -39.4141   56.4397 C.3       6 GLY6        0.0000 
     44 DU         24.0662  -38.8717   55.2510 H         7 CUB7        0.0000 
     45 CZ         24.8029  -38.3293   54.0622 C.ar      5 PHE5        0.0000 
     46 N          22.7395  -40.4936   55.5815 N.2       2 ALA2        0.0000 
     47 DU         23.4761  -39.9512   54.3928 H         7 CUB7        0.0000 
     48 DU         24.2128  -39.4088   53.2040 H         7 CUB7        0.0000 
     49 CA         22.1494  -41.5731   54.7233 C.3       6 GLY6        0.0000 
     50 CA         22.8861  -41.0307   53.5346 C.3       6 GLY6        0.0000 
     51 DU         23.6227  -40.4883   52.3458 H         7 CUB7        0.0000 
     52 DU         24.3594  -39.9460   51.1571 H         7 CUB7        0.0000 
     53 CZ         25.0961  -39.4036   49.9683 C.ar      5 PHE5        0.0000 
     54 O          22.2960  -42.1102   52.6764 O.2       2 ALA2        0.0000 
     55 O          23.0326  -41.5678   51.4876 O.2       2 ALA2        0.0000 
     56 CZ         23.7693  -41.0255   50.2989 C.ar      5 PHE5        0.0000 
     57 CZ         24.5060  -40.4831   49.1101 C.ar      5 PHE5        0.0000 
     58 O          22.4426  -42.6473   50.6295 O.2       2 ALA2        0.0000 
     59 CZ         23.1792  -42.1050   49.4407 C.ar      5 PHE5        0.0000 
     60 CZ         21.8525  -43.7268   49.7713 C.ar      5 PHE5        0.0000 
     61 DU         22.5891  -43.1845   48.5825 H         7 CUB7        0.0000 
     62 CZ         23.3258  -42.6421   47.3937 C.ar      5 PHE5        0.0000 
     63 N          21.9991  -44.2640   47.7243 N.2       2 ALA2        0.0000 
     64 CA         22.7357  -43.7216   46.5356 C.3       6 GLY6        0.0000 
     65 N          23.9340  -35.2865   58.6975 N.2       2 ALA2        0.0000 
     66 N          24.6707  -34.7441   57.5087 N.2       2 ALA2        0.0000 
     67 CA         25.4074  -34.2017   56.3199 C.3       6 GLY6        0.0000 
     68 CZ         23.3439  -36.3660   57.8393 C.ar      5 PHE5        0.0000 
     69 DU         24.0806  -35.8236   56.6505 H         7 CUB7        0.0000 
     70 CZ         24.8173  -35.2812   55.4618 C.ar      5 PHE5        0.0000 
     71 CA         22.7538  -37.4455   56.9811 C.3       6 GLY6        0.0000 
     72 DU         23.4905  -36.9031   55.7923 H         7 CUB7        0.0000 
     73 CZ         24.2272  -36.3607   54.6036 C.ar      5 PHE5        0.0000 
     74 CA         22.1638  -38.5250   56.1229 C.3       6 GLY6        0.0000 
     75 DU         22.9004  -37.9826   54.9342 H         7 CUB7        0.0000 
     76 CZ         23.6371  -37.4402   53.7454 C.ar      5 PHE5        0.0000 
     77 CA         21.5737  -39.6045   55.2647 C.3       6 GLY6        0.0000 
     78 DU         22.3103  -39.0621   54.0760 H         7 CUB7        0.0000 
     79 CZ         23.0470  -38.5197   52.8872 C.ar      5 PHE5        0.0000 
     80 CZ         23.7837  -37.9774   51.6984 C.ar      5 PHE5        0.0000 
     81 O          20.9836  -40.6840   54.4065 O.2       2 ALA2        0.0000 
     82 O          21.7203  -40.1416   53.2178 O.2       2 ALA2        0.0000 
     83 DU         22.4569  -39.5992   52.0290 H         7 CUB7        0.0000 
     84 OD1        23.1936  -39.0569   50.8403 O.3       3 ASP3        0.0000 
     85 CA         23.9303  -38.5145   49.6515 C.3       6 GLY6        0.0000 
     86 O          21.8668  -40.6787   51.1708 O.2       2 ALA2        0.0000 
     87 DU         22.6035  -40.1364   49.9821 H         7 CUB7        0.0000 
     88 CZ         23.3402  -39.5940   48.7933 C.ar      5 PHE5        0.0000 
     89 O          21.2767  -41.7582   50.3127 O.2       2 ALA2        0.0000 
     90 DU         22.0134  -41.2159   49.1239 H         7 CUB7        0.0000 
     91 CZ         22.7501  -40.6735   47.9351 C.ar      5 PHE5        0.0000 
     92 O          20.6867  -42.8377   49.4545 O.2       2 ALA2        0.0000 
     93 O          21.4233  -42.2954   48.2657 O.2       2 ALA2        0.0000 
     94 CZ         22.1600  -41.7530   47.0769 C.ar      5 PHE5        0.0000 
     95 O          20.8332  -43.3749   47.4075 O.2       2 ALA2        0.0000 
     96 CZ         23.5049  -33.8550   57.1919 C.ar      5 PHE5        0.0000 
     97 CZ         24.2415  -33.3126   56.0031 C.ar      5 PHE5        0.0000 
     98 CZ         22.9148  -34.9345   56.3337 C.ar      5 PHE5        0.0000 
     99 CZ         23.6515  -34.3921   55.1450 C.ar      5 PHE5        0.0000 
    100 CZ         22.3247  -36.0140   55.4755 C.ar      5 PHE5        0.0000 
    101 CZ         23.0614  -35.4716   54.2868 C.ar      5 PHE5        0.0000 
    102 CZ         20.9979  -37.6358   55.8061 C.ar      5 PHE5        0.0000 
    103 DU         21.7346  -37.0935   54.6174 H         7 CUB7        0.0000 
    104 CZ         22.4713  -36.5511   53.4286 C.ar      5 PHE5        0.0000 
    105 CA         20.4079  -38.7153   54.9479 C.3       6 GLY6        0.0000 
    106 DU         21.1445  -38.1730   53.7592 H         7 CUB7        0.0000 
    107 DU         21.8812  -37.6306   52.5704 H         7 CUB7        0.0000 
    108 OD1        22.6179  -37.0883   51.3816 O.3       3 ASP3        0.0000 
    109 N          19.0811  -40.3372   55.2785 N.2       2 ALA2        0.0000 
    110 O          19.8178  -39.7948   54.0898 O.2       2 ALA2        0.0000 
    111 O          20.5544  -39.2525   52.9010 O.2       2 ALA2        0.0000 
    112 OD1        21.2911  -38.7101   51.7122 O.3       3 ASP3        0.0000 
    113 OD1        22.0278  -38.1678   50.5235 O.3       3 ASP3        0.0000 
    114 O          20.7010  -39.7896   50.8540 O.2       2 ALA2        0.0000 
    115 OD1        21.4377  -39.2473   49.6653 O.3       3 ASP3        0.0000 
    116 O          20.1109  -40.8691   49.9959 O.2       2 ALA2        0.0000 
    117 O          20.8476  -40.3268   48.8071 O.2       2 ALA2        0.0000 
    118 CA         21.5843  -39.7844   47.6183 C.3       6 GLY6        0.0000 
    119 NZ         19.5209  -41.9486   49.1377 N.2       4 LYS4        0.0000 
    120 N          22.4856  -33.5030   54.8282 N.2       2 ALA2        0.0000 
    121 CZ         21.1589  -35.1249   55.1587 C.ar      5 PHE5        0.0000 
    122 O          21.8956  -34.5825   53.9700 O.2       2 ALA2        0.0000 
    123 CZ         19.8321  -36.7467   55.4893 C.ar      5 PHE5        0.0000 
    124 CZ         20.5688  -36.2044   54.3006 C.ar      5 PHE5        0.0000 
    125 O          21.3055  -35.6620   53.1118 O.2       2 ALA2        0.0000 
    126 CA         18.5054  -38.3686   55.8199 C.3       6 GLY6        0.0000 
    127 CA         19.2420  -37.8262   54.6311 C.3       6 GLY6        0.0000 
    128 DU         19.9787  -37.2839   53.4424 H         7 CUB7        0.0000 
    129 N          20.7154  -36.7415   52.2536 N.2       2 ALA2        0.0000 
    130 CA         18.6520  -38.9057   53.7730 C.3       6 GLY6        0.0000 
    131 DU         19.3886  -38.3634   52.5842 H         7 CUB7        0.0000 
    132 OD1        20.1253  -37.8210   51.3954 O.3       3 ASP3        0.0000 
    133 O          18.0619  -39.9852   52.9148 O.2       2 ALA2        0.0000 
    134 O          18.7985  -39.4429   51.7260 O.2       2 ALA2        0.0000 
    135 OD1        19.5352  -38.9005   50.5372 O.3       3 ASP3        0.0000 
    136 OD1        20.2719  -38.3581   49.3485 O.3       3 ASP3        0.0000 
    137 O          18.2085  -40.5224   50.8678 O.2       2 ALA2        0.0000 
    138 OG         18.9451  -39.9800   49.6791 O.2       1 SER1        0.0000 
    139 O          19.6818  -39.4376   48.4903 O.2       2 ALA2        0.0000 
    140 O          18.3550  -41.0595   48.8209 O.2       2 ALA2        0.0000 
    141 CZ         19.9931  -34.2357   54.8419 C.ar      5 PHE5        0.0000 
    142 CA         18.6663  -35.8576   55.1725 C.3       6 GLY6        0.0000 
    143 CZ         19.4030  -35.3152   53.9838 C.ar      5 PHE5        0.0000 
    144 O          20.1397  -34.7729   52.7950 O.2       2 ALA2        0.0000 
    145 CA         18.0762  -36.9371   54.3143 C.3       6 GLY6        0.0000 
    146 OG         18.8129  -36.3947   53.1256 O.2       1 SER1        0.0000 
    147 N          19.5496  -35.8524   51.9368 N.2       2 ALA2        0.0000 
    148 OG         18.2228  -37.4742   52.2674 O.2       1 SER1        0.0000 
    149 OG         17.6327  -38.5537   51.4092 O.2       1 SER1        0.0000 
    150 OD1        19.1061  -37.4690   49.0317 O.3       3 ASP3        0.0000 
    151 OG         18.5160  -38.5485   48.1735 O.2       1 SER1        0.0000 
    152 N          18.2372  -34.4261   53.6670 N.2       2 ALA2        0.0000 
    153 O          17.6471  -35.5056   52.8088 O.2       2 ALA2        0.0000 
    154 CA         25.9400  -45.3147   51.5798 C.3       6 GLY6        0.0000 
    155 CA         26.0866  -45.8518   49.5329 C.3       6 GLY6        0.0000 
@<TRIPOS>BOND
@<TRIPOS>SUBSTRUCTURE
     1 SER1      138 GROUP   
     2 ALA2        1 GROUP   
     3 ASP3       84 GROUP   
     4 LYS4      119 GROUP   
     5 PHE5       27 GROUP   
     6 GLY6        3 GROUP   
     7 CUB7        4 GROUP   
@<TRIPOS>SET

