#    Name: 1idt_CB1_2_INTS_M
#    Modification time : Tue Mar 25 06:56:27 2014

@<TRIPOS>MOLECULE
1idt_CB1_2_INTS_M
   25     0     6     0     0
SMALL
NO_CHARGES


@<TRIPOS>ATOM
      1 CA         17.7900  -35.7930   50.6115 C.3       2 GLC5        0.0000 
      2 CA         19.3310  -36.6380   51.6690 C.3       6 GLL5        0.0000 
      3 CA         16.2490  -34.9480   49.5540 C.3       4 GLP5        0.0000 
      4 N          20.5220  -36.9615   48.8825 N.am      1 SEC2        0.0000 
      5 N          19.4600  -37.6930   49.0430 N.am      5 SEL2        0.0000 
      6 N          21.5840  -36.2300   48.7220 N.am      3 SEP2        0.0000 
      7 N          22.2180  -37.3555   49.3330 N.am      1 SEC2        0.0000 
      8 N          22.8520  -38.4810   49.9440 N.am      5 SEL2        0.0000 
      9 CA         21.3655  -35.1065   56.5085 C.3       2 GLC5        0.0000 
     10 CA         22.5080  -35.3950   55.2650 C.3       6 GLL5        0.0000 
     11 CA         20.2230  -34.8180   57.7520 C.3       4 GLP5        0.0000 
     12 CA         21.3535  -33.7900   56.1045 C.3       2 GLC5        0.0000 
     13 CA         22.3380  -34.1490   54.4210 C.3       6 GLL5        0.0000 
     14 CA         20.3690  -33.4310   57.7880 C.3       4 GLP5        0.0000 
     15 N          16.3195  -35.4060   53.0660 N.am      1 SEC2        0.0000 
     16 N          17.5520  -35.0310   52.7480 N.am      5 SEL2        0.0000 
     17 N          15.0870  -35.7810   53.3840 N.am      3 SEP2        0.0000 
     18 CA         17.4700  -36.7212   52.9170 C.3       2 GLC5        0.0000 
     19 CA         19.5910  -35.8730   52.8270 C.3       6 GLL5        0.0000 
     20 CA         15.4790  -37.1870   53.5860 C.3       4 GLP5        0.0000 
     21 CA         21.5423  -37.1545   49.4357 C.3       2 GLC5        0.0000 
     22 CA         20.2740  -37.5230   51.1180 C.3       6 GLL5        0.0000 
     23 CA         22.1670  -36.7440   47.4510 C.3       4 GLP5        0.0000 
     24 CA         23.9630  -34.4680   53.9950 C.3       2 GLC5        0.0000 
     25 CA         25.5030  -34.1640   53.1470 C.3       4 GLP5        0.0000 
@<TRIPOS>BOND
@<TRIPOS>SUBSTRUCTURE
     1 SEC2        4 GROUP        1 X    SEC  0     ROOT SEC X 2
     2 GLC5        1 GROUP        1 X    GLC  0     **** GLC X 6
     3 SEP2        6 GROUP        1 Y    SEP  0     ROOT SEP Y 9
     4 GLP5        3 GROUP        1 Y    GLP  0     **** GLP Y 13
     5 SEL2        5 GROUP        1 Z    SEL  0     ROOT SEL Z 16
     6 GLL5        2 GROUP        1 Z    GLL  0     **** GLL Z 20
@<TRIPOS>SET

