#    Name: 1idt_CB1_2_ligand
#    Modification time : Tue Mar 25 06:56:27 2014

@<TRIPOS>MOLECULE
1idt_CB1_2_ligand
   27    28     1     0     0
SMALL
NO_CHARGES


@<TRIPOS>ATOM
      1 C          19.3310  -36.6380   51.6690 C.ar      1 CB12219     0.0000 
      2 C1         20.2740  -37.5230   51.1180 C.ar      1 CB12219     0.0000 
      3 C2         21.5610  -37.6070   51.7230 C.ar      1 CB12219     0.0000 
      4 C4         21.8270  -36.8520   52.8820 C.ar      1 CB12219     0.0000 
      5 C5         20.8800  -35.9550   53.4140 C.ar      1 CB12219     0.0000 
      6 C8         19.5910  -35.8730   52.8270 C.ar      1 CB12219     0.0000 
      7 N          19.9110  -38.2810   50.0200 N.pl3     1 CB12219     0.0000 
      8 O1         19.4600  -37.6930   49.0430 O.2       1 CB12219     0.0000 
      9 O2         20.0080  -39.4980   50.0920 O.2       1 CB12219     0.0000 
     10 C3         22.6770  -38.4700   51.1560 C.2       1 CB12219     0.0000 
     11 N1         23.4590  -39.1980   51.9830 N.am      1 CB12219     0.0000 
     12 O          22.8520  -38.4810   49.9440 O.2       1 CB12219     0.0000 
     13 N6         21.2340  -35.1410   54.5380 N.4       1 CB12219     0.0000 
     14 C7         22.5080  -35.3950   55.2650 C.3       1 CB12219     0.0000 
     15 C9         22.3380  -34.1490   54.4210 C.3       1 CB12219     0.0000 
     16 N3         18.6030  -35.0790   53.3430 N.pl3     1 CB12219     0.0000 
     17 O3         17.5520  -35.0310   52.7480 O.2       1 CB12219     0.0000 
     18 O4         18.8110  -34.4830   54.3790 O.2       1 CB12219     0.0000 
     19 H          18.4034  -36.5409   51.2069 H         1 CB12219     0.0000 
     20 H          22.7407  -36.9589   53.3545 H         1 CB12219     0.0000 
     21 H          24.2128  -39.6942   51.5523 H         1 CB12219     0.0000 
     22 H          23.2145  -39.1760   52.9524 H         1 CB12219     0.0000 
     23 H          20.6133  -34.7615   55.2242 H         1 CB12219     0.0000 
     24 H          23.0257  -36.0142   54.7646 H         1 CB12219     0.0000 
     25 H          22.3945  -35.1455   56.1742 H         1 CB12219     0.0000 
     26 H          22.1596  -33.4245   55.0084 H         1 CB12219     0.0000 
     27 H          22.7908  -34.2932   53.5988 H         1 CB12219     0.0000 
@<TRIPOS>BOND
     1    2    1 ar   
     2    6    1 ar   
     3   19    1 1    
     4    3    2 ar   
     5    7    2 1    
     6    4    3 ar   
     7   10    3 1    
     8    5    4 ar   
     9   20    4 1    
    10    6    5 ar   
    11   13    5 1    
    12   16    6 1    
    13    8    7 2    
    14    9    7 2    
    15   11   10 am   
    16   12   10 2    
    17   21   11 1    
    18   22   11 1    
    19   14   13 1    
    20   15   13 1    
    21   23   13 1    
    22   15   14 1    
    23   24   14 1    
    24   25   14 1    
    25   26   15 1    
    26   27   15 1    
    27   17   16 2    
    28   18   16 2    
@<TRIPOS>SUBSTRUCTURE
     1 CB12219     1 GROUP   
@<TRIPOS>SET

