#    Name: 2yiq_YIQ_1_INTS_M
#    Modification time : Tue Mar 25 09:21:09 2014

@<TRIPOS>MOLECULE
2yiq_YIQ_1_INTS_M
   68     0     9     0     0
SMALL
NO_CHARGES


@<TRIPOS>ATOM
      1 CA        -40.6020   33.0925    4.4880 C.3       3 GLC5        0.0000 
      2 CA        -39.0910   31.6650    4.1130 C.3       9 GLL5        0.0000 
      3 CA        -42.1130   34.5200    4.8630 C.3       6 GLP5        0.0000 
      4 O         -38.0510   32.6780    2.3925 O.2       1 ALC1        0.0000 
      5 O         -39.2320   32.1070    2.8640 O.2       7 ALL1        0.0000 
      6 O         -36.8700   33.2490    1.9210 O.2       4 ALP1        0.0000 
      7 CA        -41.9785   32.2130    2.9625 C.3       3 GLC5        0.0000 
      8 CA        -40.1290   31.3200    2.2450 C.3       9 GLL5        0.0000 
      9 CA        -43.8280   33.1060    3.6800 C.3       6 GLP5        0.0000 
     10 CA        -37.6525   28.9210    7.0395 C.3       3 GLC5        0.0000 
     11 CA        -39.2140   30.3010    6.5580 C.3       9 GLL5        0.0000 
     12 CA        -36.0910   27.5410    7.5210 C.3       6 GLP5        0.0000 
     13 CA        -36.2590   32.9290   14.2295 C.3       3 GLC5        0.0000 
     14 CA        -34.6000   32.5840   13.1680 C.3       9 GLL5        0.0000 
     15 CA        -37.9180   33.2740   15.2910 C.3       6 GLP5        0.0000 
     16 CA        -34.2450   37.5640   15.2090 C.3       3 GLC5        0.0000 
     17 CA        -33.3120   36.1060   13.9680 C.3       9 GLL5        0.0000 
     18 CA        -35.1780   39.0220   16.4500 C.3       6 GLP5        0.0000 
     19 CA        -34.2325   37.0470   12.2770 C.3       3 GLC5        0.0000 
     20 CA        -35.1530   37.9880   10.5860 C.3       6 GLP5        0.0000 
     21 CA        -31.9490   34.7790   14.2960 C.3       3 GLC5        0.0000 
     22 CA        -30.5860   33.4520   14.6240 C.3       6 GLP5        0.0000 
     23 O         -32.9790   35.8410   17.5650 O.2       1 ALC1        0.0000 
     24 O         -33.7610   34.7660   16.4790 O.2       7 ALL1        0.0000 
     25 O         -32.1970   36.9160   18.6510 O.2       4 ALP1        0.0000 
     26 O         -32.6340   35.5730   16.5420 O.2       1 ALC1        0.0000 
     27 O         -31.5070   36.3800   16.6050 O.2       4 ALP1        0.0000 
     28 OD1       -32.9100   35.8325   18.7195 O.co2     2 ASC3        0.0000 
     29 OD1       -34.0000   34.1770   17.6550 O.co2     8 ASL3        0.0000 
     30 OD1       -32.1970   36.9160   18.6510 O.co2     5 ASP3        0.0000 
     31 OD1       -32.5650   35.5645   17.6965 O.co2     2 ASC3        0.0000 
     32 OD1       -31.5070   36.3800   16.6050 O.co2     5 ASP3        0.0000 
     33 OD1       -32.7270   33.3455   17.3620 O.co2     2 ASC3        0.0000 
     34 OD1       -31.4540   32.5140   17.0690 O.co2     5 ASP3        0.0000 
     35 O         -32.9100   35.8325   18.7195 O.2       1 ALC1        0.0000 
     36 O         -33.6230   34.7490   18.7880 O.2       7 ALL1        0.0000 
     37 O         -32.5650   35.5645   17.6965 O.2       1 ALC1        0.0000 
     38 CA        -37.8175   30.5968    3.7600 C.3       3 GLC5        0.0000 
     39 CA        -38.2950   32.1040    5.1890 C.3       9 GLL5        0.0000 
     40 CA        -36.9420   29.3090    2.8690 C.3       6 GLP5        0.0000 
     41 CA        -38.6430   30.0785    2.7675 C.3       3 GLC5        0.0000 
     42 CA        -40.5590   30.3760    3.0870 C.3       9 GLL5        0.0000 
     43 CA        -41.5523   31.4217    4.7985 C.3       3 GLC5        0.0000 
     44 CA        -42.8590   32.3770    5.9240 C.3       6 GLP5        0.0000 
     45 CA        -38.4537   29.7630    3.8685 C.3       3 GLC5        0.0000 
     46 CA        -39.9320   30.5570    4.2590 C.3       9 GLL5        0.0000 
     47 CA        -41.2328   31.2330    5.9707 C.3       3 GLC5        0.0000 
     48 CA        -39.9990   29.8770    5.4770 C.3       9 GLL5        0.0000 
     49 CA        -37.8660   30.0847    4.6765 C.3       3 GLC5        0.0000 
     50 CA        -34.5579   33.6159    8.5538 C.3       3 GLC5        0.0000 
     51 CA        -35.5040   33.8540   10.8590 C.3       9 GLL5        0.0000 
     52 CA        -33.2710   33.4860    7.0010 C.3       6 GLP5        0.0000 
     53 CA        -33.5485   33.2938   10.9055 C.3       3 GLC5        0.0000 
     54 CA        -31.8490   32.3540   10.4240 C.3       6 GLP5        0.0000 
     55 CA        -35.2638   36.1550   10.8371 C.3       3 GLC5        0.0000 
     56 CA        -34.9920   34.6130   11.9150 C.3       9 GLL5        0.0000 
     57 CA        -36.7792   33.1633   12.8115 C.3       3 GLC5        0.0000 
     58 CA        -35.5850   32.4650   10.9610 C.3       9 GLL5        0.0000 
     59 CA        -38.2060   34.1820   14.0830 C.3       6 GLP5        0.0000 
     60 CA        -33.6007   32.2493   10.9820 C.3       3 GLC5        0.0000 
     61 CA        -35.1200   31.8240   12.1190 C.3       9 GLL5        0.0000 
     62 CA        -33.2070   32.8205   11.7760 C.3       3 GLC5        0.0000 
     63 CA        -32.9015   32.6820   13.9235 C.3       3 GLC5        0.0000 
     64 CA        -31.2380   32.0770   14.7190 C.3       6 GLP5        0.0000 
     65 CA        -36.5475   34.1469   13.1602 C.3       3 GLC5        0.0000 
     66 CA        -34.5300   33.9900   13.0880 C.3       9 GLL5        0.0000 
     67 CA        -37.8125   33.1388   10.4575 C.3       3 GLC5        0.0000 
     68 CA        -39.7600   32.8790   10.7830 C.3       6 GLP5        0.0000 
@<TRIPOS>BOND
@<TRIPOS>SUBSTRUCTURE
     1 ALC1        4 GROUP        1 X    ALC  0     ROOT ALC X 1
     2 ASC3       28 GROUP        1 X    ASC  0     **** ASC X 3
     3 GLC5        1 GROUP        1 X    GLC  0     **** GLC X 6
     4 ALP1        6 GROUP        1 Y    ALP  0     ROOT ALP Y 8
     5 ASP3       30 GROUP        1 Y    ASP  0     **** ASP Y 10
     6 GLP5        3 GROUP        1 Y    GLP  0     **** GLP Y 13
     7 ALL1        5 GROUP        1 Z    ALL  0     ROOT ALL Z 15
     8 ASL3       29 GROUP        1 Z    ASL  0     **** ASL Z 17
     9 GLL5        2 GROUP        1 Z    GLL  0     **** GLL Z 20
@<TRIPOS>SET

