#    Name: 2yiq_YIQ_1_ligand
#    Modification time : Tue Mar 25 09:21:09 2014

@<TRIPOS>MOLECULE
2yiq_YIQ_1_ligand
   48    51     1     0     0
SMALL
NO_CHARGES


@<TRIPOS>ATOM
      1 CAU       -38.2950   32.1040    5.1890 C.ar      1 YIQ600      0.0000 
      2 CAV       -39.0910   31.6650    4.1130 C.ar      1 YIQ600      0.0000 
      3 NAG       -39.2320   32.1070    2.8640 N.pl3     1 YIQ600      0.0000 
      4 CAZ       -40.1290   31.3200    2.2450 C.2       1 YIQ600      0.0000 
      5 CBA       -40.5590   30.3760    3.0870 C.2       1 YIQ600      0.0000 
      6 CAW       -39.9320   30.5570    4.2590 C.ar      1 YIQ600      0.0000 
      7 CAX       -39.9990   29.8770    5.4770 C.ar      1 YIQ600      0.0000 
      8 CAY       -39.2140   30.3010    6.5580 C.ar      1 YIQ600      0.0000 
      9 CAT       -38.3660   31.4200    6.4100 C.ar      1 YIQ600      0.0000 
     10 NAF       -37.6420   31.7930    7.4840 N.am      1 YIQ600      0.0000 
     11 CAS       -37.0360   32.9740    7.6730 C.2       1 YIQ600      0.0000 
     12 OBB       -37.1350   33.9520    6.9390 O.2       1 YIQ600      0.0000 
     13 CAQ       -36.3610   33.0670    9.0440 C.2       1 YIQ600      0.0000 
     14 NAE       -36.1300   31.9970    9.8170 N.pl3     1 YIQ600      0.0000 
     15 CAR       -36.0100   34.2080    9.6640 C.2       1 YIQ600      0.0000 
     16 CAO       -35.5040   33.8540   10.8590 C.ar      1 YIQ600      0.0000 
     17 CAP       -34.9920   34.6130   11.9150 C.ar      1 YIQ600      0.0000 
     18 CAN       -35.5850   32.4650   10.9610 C.ar      1 YIQ600      0.0000 
     19 CAM       -35.1200   31.8240   12.1190 C.ar      1 YIQ600      0.0000 
     20 CAL       -34.6000   32.5840   13.1680 C.ar      1 YIQ600      0.0000 
     21 CAK       -34.5300   33.9900   13.0880 C.ar      1 YIQ600      0.0000 
     22 CAI       -34.0040   34.7420   14.1750 C.2       1 YIQ600      0.0000 
     23 CAJ       -33.3120   36.1060   13.9680 C.3       1 YIQ600      0.0000 
     24 NAD       -34.1700   34.2370   15.4180 N.2       1 YIQ600      0.0000 
     25 NAC       -33.7610   34.7660   16.4790 N.pl3     1 YIQ600      0.0000 
     26 CAH       -34.0000   34.1770   17.6550 C.cat     1 YIQ600      0.0000 
     27 NAB       -33.6230   34.7490   18.7880 N.pl3     1 YIQ600      0.0000 
     28 NAA       -34.6910   33.0320   17.7090 N.pl3     1 YIQ600      0.0000 
     29 H         -37.6794   32.9052    5.0782 H         1 YIQ600      0.0000 
     30 H         -38.7735   32.8599    2.4665 H         1 YIQ600      0.0000 
     31 H         -40.4200   31.4264    1.3175 H         1 YIQ600      0.0000 
     32 H         -41.2051   29.6858    2.8903 H         1 YIQ600      0.0000 
     33 H         -40.6204   29.0691    5.5825 H         1 YIQ600      0.0000 
     34 H         -39.2520   29.8061    7.4499 H         1 YIQ600      0.0000 
     35 H         -37.5401   31.0555    8.2807 H         1 YIQ600      0.0000 
     36 H         -36.3119   31.0841    9.6072 H         1 YIQ600      0.0000 
     37 H         -36.1020   35.0956    9.3226 H         1 YIQ600      0.0000 
     38 H         -34.9511   35.6384   11.8370 H         1 YIQ600      0.0000 
     39 H         -35.1632   30.8044   12.1912 H         1 YIQ600      0.0000 
     40 H         -34.2584   32.1132   14.0217 H         1 YIQ600      0.0000 
     41 H         -33.2224   35.6797   16.4835 H         1 YIQ600      0.0000 
     42 H         -33.1692   35.6361   18.7034 H         1 YIQ600      0.0000 
     43 H         -33.8263   34.2421   19.6257 H         1 YIQ600      0.0000 
     44 H         -34.8096   32.6321   18.6179 H         1 YIQ600      0.0000 
     45 H         -35.0267   32.6791   16.8357 H         1 YIQ600      0.0000 
     46 H         -33.0051   36.5019   14.8335 H         1 YIQ600      0.0000 
     47 H         -32.5073   36.0287   13.3794 H         1 YIQ600      0.0000 
     48 H         -33.9241   36.7721   13.5417 H         1 YIQ600      0.0000 
@<TRIPOS>BOND
     1    2    1 ar   
     2    9    1 ar   
     3   29    1 1    
     4    3    2 1    
     5    6    2 ar   
     6    4    3 1    
     7   30    3 1    
     8    5    4 2    
     9   31    4 1    
    10    6    5 1    
    11   32    5 1    
    12    7    6 ar   
    13    8    7 ar   
    14   33    7 1    
    15    9    8 ar   
    16   34    8 1    
    17   10    9 1    
    18   11   10 am   
    19   35   10 1    
    20   12   11 2    
    21   13   11 1    
    22   14   13 1    
    23   15   13 2    
    24   18   14 1    
    25   36   14 1    
    26   16   15 1    
    27   37   15 1    
    28   17   16 ar   
    29   18   16 ar   
    30   21   17 ar   
    31   38   17 1    
    32   19   18 ar   
    33   20   19 ar   
    34   39   19 1    
    35   21   20 ar   
    36   40   20 1    
    37   22   21 1    
    38   23   22 1    
    39   24   22 2    
    40   46   23 1    
    41   47   23 1    
    42   48   23 1    
    43   25   24 1    
    44   26   25 ar   
    45   41   25 1    
    46   27   26 ar   
    47   28   26 ar   
    48   42   27 1    
    49   43   27 1    
    50   44   28 1    
    51   45   28 1    
@<TRIPOS>SUBSTRUCTURE
     1 YIQ600      1 GROUP   
@<TRIPOS>SET

