#    Name: 3OYS_1_CAVITY_N1_ALL.mol2
#    Modification time : Mon Mar 10 12:49:30 2014

@<TRIPOS>MOLECULE
3OYS_1_CAVITY_N1_ALL.mol2
   82     0     6     0     0
SMALL
NO_CHARGES


@<TRIPOS>ATOM
      1 CA         -0.6706    6.6699   14.6311 C.3       5 GLY6        0.0000 
      2 CA         -1.7856    7.5033   14.0723 C.3       5 GLY6        0.0000 
      3 CA         -0.3799    6.1388   13.2587 C.3       5 GLY6        0.0000 
      4 DU         -1.4949    6.9722   12.7000 H         6 CUB7        0.0000 
      5 N           1.3166    4.2432   11.0726 N.2       2 ALA2        0.0000 
      6 CA         -3.0367    6.9059   15.6780 C.3       5 GLY6        0.0000 
      7 CA         -1.6309    5.5414   14.8643 C.3       5 GLY6        0.0000 
      8 CA         -2.7459    6.3748   14.3056 C.3       5 GLY6        0.0000 
      9 CZ         -3.8610    7.2082   13.7469 C.ar      4 PHE5        0.0000 
     10 N          -1.3402    5.0103   13.4919 N.2       2 ALA2        0.0000 
     11 DU         -2.4552    5.8438   12.9332 H         6 CUB7        0.0000 
     12 DU         -3.5702    6.6772   12.3745 H         6 CUB7        0.0000 
     13 N          -1.0495    4.4793   12.1196 N.2       2 ALA2        0.0000 
     14 DU         -3.2795    6.1461   11.0021 H         6 CUB7        0.0000 
     15 CZ          0.3563    3.1148   11.3059 C.ar      4 PHE5        0.0000 
     16 DU         -0.7587    3.9482   10.7472 H         6 CUB7        0.0000 
     17 DU         -1.8738    4.7816   10.1885 H         6 CUB7        0.0000 
     18 CA          0.6470    2.5837    9.9335 C.3       5 GLY6        0.0000 
     19 CA         -3.9970    5.7775   15.9112 C.3       5 GLY6        0.0000 
     20 CZ         -5.1120    6.6109   15.3525 C.ar      4 PHE5        0.0000 
     21 CA         -2.5912    4.4130   15.0976 C.3       5 GLY6        0.0000 
     22 CA         -3.7063    5.2464   14.5389 C.3       5 GLY6        0.0000 
     23 CZ         -4.8213    6.0798   13.9801 C.ar      4 PHE5        0.0000 
     24 OG         -2.3005    3.8819   13.7252 O.2       1 SER1        0.0000 
     25 DU         -3.4155    4.7153   13.1665 H         6 CUB7        0.0000 
     26 O          -4.5305    5.5487   12.6078 O.2       2 ALA2        0.0000 
     27 O          -5.6456    6.3821   12.0490 O.2       2 ALA2        0.0000 
     28 OG         -2.0098    3.3508   12.3528 O.2       1 SER1        0.0000 
     29 DU         -3.1248    4.1842   11.7941 H         6 CUB7        0.0000 
     30 O          -4.2398    5.0176   11.2354 O.2       2 ALA2        0.0000 
     31 O          -5.3548    5.8510   10.6767 O.2       2 ALA2        0.0000 
     32 OG         -0.6040    1.9863   11.5391 O.2       1 SER1        0.0000 
     33 OG         -1.7191    2.8197   10.9804 O.2       1 SER1        0.0000 
     34 O          -2.8341    3.6531   10.4217 O.2       2 ALA2        0.0000 
     35 O          -5.0641    5.3200    9.3043 O.2       2 ALA2        0.0000 
     36 O          -1.4283    2.2886    9.6080 O.2       2 ALA2        0.0000 
     37 CA         -6.0723    5.4825   15.5858 C.3       5 GLY6        0.0000 
     38 CA         -7.1873    6.3159   15.0271 C.3       5 GLY6        0.0000 
     39 OG         -2.4365    2.4511   15.8895 O.2       1 SER1        0.0000 
     40 CA         -3.5515    3.2846   15.3308 C.3       5 GLY6        0.0000 
     41 CA         -4.6666    4.1180   14.7721 C.3       5 GLY6        0.0000 
     42 O          -5.7816    4.9514   14.2134 O.2       2 ALA2        0.0000 
     43 O          -6.8966    5.7848   13.6547 O.2       2 ALA2        0.0000 
     44 OG         -3.2608    2.7535   13.9584 O.2       1 SER1        0.0000 
     45 O          -4.3758    3.5869   13.3997 O.2       2 ALA2        0.0000 
     46 O          -5.4909    4.4203   12.8410 O.2       2 ALA2        0.0000 
     47 OG         -2.9701    2.2224   12.5861 O.2       1 SER1        0.0000 
     48 O          -4.0851    3.0558   12.0273 O.2       2 ALA2        0.0000 
     49 O          -5.2001    3.8892   11.4686 O.2       2 ALA2        0.0000 
     50 OG         -1.5644    0.8579   11.7724 O.2       1 SER1        0.0000 
     51 O          -2.6794    1.6913   11.2137 O.2       2 ALA2        0.0000 
     52 O          -3.7944    2.5247   10.6550 O.2       2 ALA2        0.0000 
     53 CA         -1.2736    0.3268   10.4000 C.3       5 GLY6        0.0000 
     54 O          -2.3887    1.1602    9.8413 O.2       2 ALA2        0.0000 
     55 CA         -4.8026    2.6872   16.9365 C.3       5 GLY6        0.0000 
     56 CA         -5.9176    3.5206   16.3777 C.3       5 GLY6        0.0000 
     57 CA         -7.0326    4.3540   15.8190 C.3       5 GLY6        0.0000 
     58 O          -3.3968    1.3227   16.1228 O.2       2 ALA2        0.0000 
     59 CA         -4.5119    2.1561   15.5641 C.3       5 GLY6        0.0000 
     60 DU         -5.6269    2.9895   15.0054 H         6 CUB7        0.0000 
     61 O          -6.7419    3.8229   14.4466 O.2       2 ALA2        0.0000 
     62 CA         -3.1061    0.7916   14.7504 C.3       5 GLY6        0.0000 
     63 OG         -4.2211    1.6250   14.1917 O.2       1 SER1        0.0000 
     64 O          -5.3362    2.4584   13.6330 O.2       2 ALA2        0.0000 
     65 CA         -3.9304    1.0939   12.8193 C.3       5 GLY6        0.0000 
     66 O          -5.0454    1.9273   12.2606 O.2       2 ALA2        0.0000 
     67 CA         -2.5247   -0.2706   12.0057 C.3       5 GLY6        0.0000 
     68 DU         -3.6397    0.5628   11.4469 H         6 CUB7        0.0000 
     69 N          -4.7547    1.3963   10.8882 N.2       2 ALA2        0.0000 
     70 CA         -2.2340   -0.8016   10.6333 C.3       5 GLY6        0.0000 
     71 O          -3.3490    0.0318   10.0746 O.2       2 ALA2        0.0000 
     72 OD1        -5.7629    1.5588   17.1697 O.3       3 ASP3        0.0000 
     73 CA         -6.8779    2.3922   16.6110 C.3       5 GLY6        0.0000 
     74 OG         -4.3572    0.1943   16.3561 O.2       1 SER1        0.0000 
     75 OD1        -5.4722    1.0277   15.7973 O.3       3 ASP3        0.0000 
     76 N          -6.5872    1.8611   15.2386 N.2       2 ALA2        0.0000 
     77 OD1        -4.0664   -0.3368   14.9837 O.3       3 ASP3        0.0000 
     78 OD1        -5.1815    0.4966   14.4250 O.3       3 ASP3        0.0000 
     79 CA         -3.7757   -0.8679   13.6113 C.3       5 GLY6        0.0000 
     80 N          -4.8907   -0.0345   13.0526 N.2       2 ALA2        0.0000 
     81 CA         -3.4850   -1.3990   12.2389 C.3       5 GLY6        0.0000 
     82 CA         -4.6000   -0.5656   11.6802 C.3       5 GLY6        0.0000 
@<TRIPOS>BOND
@<TRIPOS>SUBSTRUCTURE
     1 SER1       24 GROUP   
     2 ALA2        5 GROUP   
     3 ASP3       72 GROUP   
     4 PHE5        9 GROUP   
     5 GLY6        1 GROUP   
     6 CUB7        4 GROUP   
@<TRIPOS>SET

