#    Name: 3oys_OYS_1_INTS_M
#    Modification time : Tue Mar 25 05:40:34 2014

@<TRIPOS>MOLECULE
3oys_OYS_1_INTS_M
   39     0    12     0     0
SMALL
NO_CHARGES


@<TRIPOS>ATOM
      1 O          -4.4485   -1.2225   16.8510 O.2       1 ALC1        0.0000 
      2 O          -5.3280   -0.4210   16.1140 O.2       9 ALL1        0.0000 
      3 O          -3.5690   -2.0240   17.5880 O.2       5 ALP1        0.0000 
      4 Zn         -6.0165   -0.9725   15.6815 Zn        3 ZIC7        0.0000 
      5 Zn         -5.3280   -0.4210   16.1140 Zn       11 ZIL7        0.0000 
      6 Zn         -6.7050   -1.5240   15.2490 Zn        7 ZIP7        0.0000 
      7 N          -3.9645    0.7450   18.5570 N.am      2 SEC2        0.0000 
      8 N          -5.3090    1.1810   18.0700 N.am     10 SEL2        0.0000 
      9 N          -2.6200    0.3090   19.0440 N.am      6 SEP2        0.0000 
     10 CA          0.4070    8.2070   15.7410 C.3       4 GLC5        0.0000 
     11 CA         -1.0770    9.3270   14.9110 C.3      12 GLL5        0.0000 
     12 CA          1.8910    7.0870   16.5710 C.3       8 GLP5        0.0000 
     13 CA         -0.3610    9.4025   16.9965 C.3       4 GLC5        0.0000 
     14 CA          0.3550    9.4780   19.0820 C.3       8 GLP5        0.0000 
     15 CA         -1.6825    6.9930   15.9900 C.3       4 GLC5        0.0000 
     16 CA         -1.4820    8.2050   14.1740 C.3      12 GLL5        0.0000 
     17 CA         -1.8830    5.7810   17.8060 C.3       8 GLP5        0.0000 
     18 CA          0.0215    7.0775   14.9190 C.3       4 GLC5        0.0000 
     19 CA          1.5250    5.9500   15.6640 C.3       8 GLP5        0.0000 
     20 CA         -1.5430    1.5970   14.7375 C.3       4 GLC5        0.0000 
     21 CA         -3.0610    3.1890   14.7390 C.3      12 GLL5        0.0000 
     22 CA         -0.0250    0.0050   14.7360 C.3       8 GLP5        0.0000 
     23 CA         -2.4230    0.6355   14.9755 C.3       4 GLC5        0.0000 
     24 CA         -3.6880    2.1960   15.4730 C.3      12 GLL5        0.0000 
     25 CA         -1.1580   -0.9250   14.4780 C.3       8 GLP5        0.0000 
     26 CA         -7.8140    3.3475   15.0605 C.3       4 GLC5        0.0000 
     27 CA         -5.7890    3.3400   15.2160 C.3      12 GLL5        0.0000 
     28 CA         -9.8390    3.3550   14.9050 C.3       8 GLP5        0.0000 
     29 CA         -3.9820    8.4540   13.1970 C.3       4 GLC5        0.0000 
     30 CA         -2.4880    7.1780   12.1710 C.3      12 GLL5        0.0000 
     31 CA         -5.4760    9.7300   14.2230 C.3       8 GLP5        0.0000 
     32 CA         -4.6355    3.6285   17.0495 C.3       4 GLC5        0.0000 
     33 CA         -5.0580    2.2690   15.7380 C.3      12 GLL5        0.0000 
     34 CA         -4.2130    4.9880   18.3610 C.3       8 GLP5        0.0000 
     35 CA         -1.7843   10.8975   16.2043 C.3       4 GLC5        0.0000 
     36 CA         -2.3750   11.8280   17.7690 C.3       8 GLP5        0.0000 
     37 CA         -2.7868    3.1118   16.9610 C.3       4 GLC5        0.0000 
     38 CA         -2.1990    3.5310   18.8160 C.3       8 GLP5        0.0000 
     39 CA         -4.4216    4.5199   16.4524 C.3       4 GLC5        0.0000 
@<TRIPOS>BOND
@<TRIPOS>SUBSTRUCTURE
     1 ALC1        1 GROUP        1 X    ALC  0     ROOT ALC X 1
     2 SEC2        7 GROUP        1 X    SEC  0     **** SEC X 2
     3 ZIC7        4 GROUP        1 X    ZIC  0     **** ZIC X 5
     4 GLC5       10 GROUP        1 X    GLC  0     **** GLC X 6
     5 ALP1        3 GROUP        1 Y    ALP  0     ROOT ALP Y 8
     6 SEP2        9 GROUP        1 Y    SEP  0     **** SEP Y 9
     7 ZIP7        6 GROUP        1 Y    ZIP  0     **** ZIP Y 12
     8 GLP5       12 GROUP        1 Y    GLP  0     **** GLP Y 13
     9 ALL1        2 GROUP        1 Z    ALL  0     ROOT ALL Z 15
    10 SEL2        8 GROUP        1 Z    SEL  0     **** SEL Z 16
    11 ZIL7        5 GROUP        1 Z    ZIL  0     **** ZIL Z 19
    12 GLL5       11 GROUP        1 Z    GLL  0     **** GLL Z 20
@<TRIPOS>SET

