#    Name: 3oys_OYS_1_ligand
#    Modification time : Tue Mar 25 05:40:34 2014

@<TRIPOS>MOLECULE
3oys_OYS_1_ligand
   33    34     1     0     0
SMALL
NO_CHARGES


@<TRIPOS>ATOM
      1 NAA        -5.3280   -0.4210   16.1140 N.pl3     1 OYS263      0.0000 
      2 OAB        -4.6990    6.6580   12.9200 O.2       1 OYS263      0.0000 
      3 OAC        -7.2340    1.2280   16.5590 O.2       1 OYS263      0.0000 
      4 OAD        -5.3090    1.1810   18.0700 O.2       1 OYS263      0.0000 
      5 CAE        -1.3100   10.6070   14.3680 C.ar      1 OYS263      0.0000 
      6 CAF        -1.9380   10.7840   13.1400 C.ar      1 OYS263      0.0000 
      7 CAG        -1.0770    9.3270   14.9110 C.ar      1 OYS263      0.0000 
      8 CAH        -2.3170    9.6520   12.4220 C.ar      1 OYS263      0.0000 
      9 CAI        -1.4820    8.2050   14.1740 C.ar      1 OYS263      0.0000 
     10 CAJ        -3.0610    3.1890   14.7390 C.ar      1 OYS263      0.0000 
     11 CAK        -5.1640    4.3450   14.4710 C.ar      1 OYS263      0.0000 
     12 CAL        -3.6880    2.1960   15.4730 C.ar      1 OYS263      0.0000 
     13 CAM        -5.7890    3.3400   15.2160 C.ar      1 OYS263      0.0000 
     14 CAN        -2.4880    7.1780   12.1710 C.3       1 OYS263      0.0000 
     15 NAO        -3.0180    5.2010   13.5170 N.am      1 OYS263      0.0000 
     16 CAP        -3.5140    6.3590   12.8850 C.2       1 OYS263      0.0000 
     17 CAQ        -2.0550    8.3730   12.9390 C.ar      1 OYS263      0.0000 
     18 CAR        -3.7840    4.2610   14.2440 C.ar      1 OYS263      0.0000 
     19 CAS        -5.0580    2.2690   15.7380 C.ar      1 OYS263      0.0000 
     20 SAT        -5.8120    0.9960   16.7060 S.o2      1 OYS263      0.0000 
     21 H          -4.5422   -0.8420   16.5672 H         1 OYS263      0.0000 
     22 H          -0.9997   11.4389   14.9085 H         1 OYS263      0.0000 
     23 H          -2.1165   11.7153   12.7745 H         1 OYS263      0.0000 
     24 H          -0.6276    9.2240   15.8121 H         1 OYS263      0.0000 
     25 H          -2.7874    9.7474   11.5158 H         1 OYS263      0.0000 
     26 H          -1.3442    7.2665   14.5693 H         1 OYS263      0.0000 
     27 H          -2.0445    3.1292   14.5592 H         1 OYS263      0.0000 
     28 H          -5.7016    5.1249   14.0994 H         1 OYS263      0.0000 
     29 H          -3.1448    1.3948   15.8289 H         1 OYS263      0.0000 
     30 H          -6.8074    3.3902   15.3831 H         1 OYS263      0.0000 
     31 H          -2.8959    7.4964   11.1920 H         1 OYS263      0.0000 
     32 H          -1.6081    6.5433   11.9491 H         1 OYS263      0.0000 
     33 H          -1.9732    5.0160   13.4412 H         1 OYS263      0.0000 
@<TRIPOS>BOND
     1   20    1 1    
     2   21    1 1    
     3   16    2 2    
     4   20    3 2    
     5   20    4 2    
     6    6    5 ar   
     7    7    5 ar   
     8   22    5 1    
     9    8    6 ar   
    10   23    6 1    
    11    9    7 ar   
    12   24    7 1    
    13   17    8 ar   
    14   25    8 1    
    15   17    9 ar   
    16   26    9 1    
    17   12   10 ar   
    18   18   10 ar   
    19   27   10 1    
    20   13   11 ar   
    21   18   11 ar   
    22   28   11 1    
    23   19   12 ar   
    24   29   12 1    
    25   19   13 ar   
    26   30   13 1    
    27   16   14 1    
    28   17   14 1    
    29   31   14 1    
    30   32   14 1    
    31   16   15 am   
    32   18   15 1    
    33   33   15 1    
    34   20   19 1    
@<TRIPOS>SUBSTRUCTURE
     1 OYS263      1 GROUP   
@<TRIPOS>SET

