#    Name: 1pzg_A3D_2_INTS_M
#    Modification time : Mon Mar 24 22:32:02 2014

@<TRIPOS>MOLECULE
1pzg_A3D_2_INTS_M
   90     0     9     0     0
SMALL
NO_CHARGES


@<TRIPOS>ATOM
      1 N         -17.6055  -13.8900   46.5330 N.am      2 SEC2        0.0000 
      2 N         -17.7920  -15.0660   45.7160 N.am      8 SEL2        0.0000 
      3 N         -17.4190  -12.7140   47.3500 N.am      5 SEP2        0.0000 
      4 N         -11.9260  -16.5880   42.6990 N.am      2 SEC2        0.0000 
      5 N         -12.7400  -15.0970   42.5460 N.am      8 SEL2        0.0000 
      6 N         -11.1120  -18.0790   42.8520 N.am      5 SEP2        0.0000 
      7 CA        -15.5600  -13.2320   43.7065 C.3       3 GLC5        0.0000 
      8 CA        -14.9930  -14.4190   42.0160 C.3       9 GLL5        0.0000 
      9 CA        -16.1270  -12.0450   45.3970 C.3       6 GLP5        0.0000 
     10 O         -14.2365  -12.2705   41.8965 O.2       1 ALC1        0.0000 
     11 O         -15.3000  -13.0250   42.0190 O.2       7 ALL1        0.0000 
     12 O         -13.1730  -11.5160   41.7740 O.2       4 ALP1        0.0000 
     13 O         -13.8635  -12.9315   39.5930 O.2       1 ALC1        0.0000 
     14 O         -14.4950  -14.1490   39.5880 O.2       7 ALL1        0.0000 
     15 O         -13.2320  -11.7140   39.5980 O.2       4 ALP1        0.0000 
     16 CA        -12.3660  -14.2495   39.0400 C.3       3 GLC5        0.0000 
     17 CA        -12.7890  -14.7130   41.1940 C.3       9 GLL5        0.0000 
     18 CA        -11.9430  -13.7860   36.8860 C.3       6 GLP5        0.0000 
     19 CA        -11.2660  -15.5135   42.5005 C.3       3 GLC5        0.0000 
     20 CA         -9.7430  -16.3140   43.8070 C.3       6 GLP5        0.0000 
     21 CA         -9.6730  -11.8785   40.0490 C.3       3 GLC5        0.0000 
     22 CA         -8.6780  -13.7550   40.0310 C.3       9 GLL5        0.0000 
     23 CA        -10.6680  -10.0020   40.0670 C.3       6 GLP5        0.0000 
     24 CA         -9.0760  -13.6530   38.2690 C.3       3 GLC5        0.0000 
     25 CA         -9.4740  -13.5510   36.5070 C.3       6 GLP5        0.0000 
     26 CA         -8.6335  -14.8190   41.4690 C.3       3 GLC5        0.0000 
     27 CA         -8.5890  -15.8830   42.9070 C.3       6 GLP5        0.0000 
     28 CA        -11.2945  -14.4065   38.4880 C.3       3 GLC5        0.0000 
     29 CA        -10.6460  -15.0270   40.0900 C.3       9 GLL5        0.0000 
     30 N         -15.6685  -14.2790   48.9390 N.am      2 SEC2        0.0000 
     31 N         -15.3650  -15.3800   48.0160 N.am      8 SEL2        0.0000 
     32 N         -15.9720  -13.1780   49.8620 N.am      5 SEP2        0.0000 
     33 CA        -14.0825  -17.2995   49.6715 C.3       3 GLC5        0.0000 
     34 CA        -13.7080  -17.7930   47.6780 C.3       9 GLL5        0.0000 
     35 CA        -14.4570  -16.8060   51.6650 C.3       6 GLP5        0.0000 
     36 CA        -12.3005  -16.4595   47.9520 C.3       3 GLC5        0.0000 
     37 CA        -10.8930  -15.1260   48.2260 C.3       6 GLP5        0.0000 
     38 CA        -15.4380  -18.8525   47.0560 C.3       3 GLC5        0.0000 
     39 CA        -17.1680  -19.9120   46.4340 C.3       6 GLP5        0.0000 
     40 CA        -11.3605  -17.5305   47.7815 C.3       3 GLC5        0.0000 
     41 CA        -12.9410  -19.0630   47.9470 C.3       9 GLL5        0.0000 
     42 CA         -9.7800  -15.9980   47.6160 C.3       6 GLP5        0.0000 
     43 N         -11.4175  -22.0390   47.6530 N.am      2 SEC2        0.0000 
     44 N         -12.5620  -21.2260   46.8580 N.am      8 SEL2        0.0000 
     45 N         -10.2730  -22.8520   48.4480 N.am      5 SEP2        0.0000 
     46 O         -13.3865  -21.8260   45.8025 O.2       1 ALC1        0.0000 
     47 O         -12.5620  -21.2260   46.8580 O.2       7 ALL1        0.0000 
     48 O         -14.2110  -22.4260   44.7470 O.2       4 ALP1        0.0000 
     49 N         -13.7780  -23.2270   49.8305 N.am      2 SEC2        0.0000 
     50 N         -14.3470  -22.3960   48.6610 N.am      8 SEL2        0.0000 
     51 N         -13.2090  -24.0580   51.0000 N.am      5 SEP2        0.0000 
     52 CA        -11.8810  -19.3170   50.8960 C.3       3 GLC5        0.0000 
     53 CA        -13.1090  -20.6490   49.6750 C.3       9 GLL5        0.0000 
     54 CA        -10.6530  -17.9850   52.1170 C.3       6 GLP5        0.0000 
     55 CA        -11.1650  -20.6490   48.9715 C.3       3 GLC5        0.0000 
     56 CA         -9.2210  -20.6490   48.2680 C.3       6 GLP5        0.0000 
     57 CA         -8.8630  -22.8315   53.7335 C.3       3 GLC5        0.0000 
     58 CA        -10.5540  -22.3290   53.9040 C.3       9 GLL5        0.0000 
     59 CA         -7.1720  -23.3340   53.5630 C.3       6 GLP5        0.0000 
     60 CA        -10.6705  -20.4920   54.9200 C.3       3 GLC5        0.0000 
     61 CA        -10.7870  -18.6550   55.9360 C.3       6 GLP5        0.0000 
     62 CA         -9.6335  -22.9800   55.4555 C.3       3 GLC5        0.0000 
     63 CA         -8.7130  -23.6310   57.0070 C.3       6 GLP5        0.0000 
     64 CA        -11.2275  -23.9020   54.3810 C.3       3 GLC5        0.0000 
     65 CA        -11.9010  -25.4750   54.8580 C.3       6 GLP5        0.0000 
     66 CA        -14.3240  -20.7970   55.7620 C.3       3 GLC5        0.0000 
     67 CA        -14.1860  -20.6700   53.8190 C.3       9 GLL5        0.0000 
     68 CA        -14.4620  -20.9240   57.7050 C.3       6 GLP5        0.0000 
     69 CA        -15.1880  -13.7045   44.5452 C.3       3 GLC5        0.0000 
     70 CA        -14.4690  -15.9320   44.1660 C.3       9 GLL5        0.0000 
     71 CA         -9.4600  -14.7398   37.7503 C.3       3 GLC5        0.0000 
     72 CA        -10.0960  -16.0060   39.2310 C.3       9 GLL5        0.0000 
     73 CA         -8.3845  -17.2892   39.7627 C.3       3 GLC5        0.0000 
     74 CA         -7.3230  -18.6500   40.5320 C.3       6 GLP5        0.0000 
     75 CA         -9.3175  -15.6804   41.2244 C.3       3 GLC5        0.0000 
     76 CA         -8.7960  -15.8510   38.7560 C.3       9 GLL5        0.0000 
     77 CA        -11.2402  -20.1908   47.9818 C.3       3 GLC5        0.0000 
     78 CA        -15.5150  -20.3068   47.2560 C.3       3 GLC5        0.0000 
     79 CA        -13.5780  -20.4020   47.4440 C.3       9 GLL5        0.0000 
     80 CA        -12.7078  -22.7410   49.1692 C.3       3 GLC5        0.0000 
     81 CA        -14.1460  -21.0010   48.7120 C.3       9 GLL5        0.0000 
     82 CA        -11.7880  -24.6570   49.1450 C.3       6 GLP5        0.0000 
     83 CA        -11.6855  -19.5875   52.4093 C.3       3 GLC5        0.0000 
     84 CA        -12.5450  -21.1860   52.0350 C.3       9 GLL5        0.0000 
     85 CA        -12.1627  -19.7935   54.7647 C.3       3 GLC5        0.0000 
     86 CA        -12.8910  -21.1940   53.3680 C.3       9 GLL5        0.0000 
     87 CA        -15.1780  -19.2152   54.5998 C.3       3 GLC5        0.0000 
     88 CA        -15.0900  -20.1530   52.8420 C.3       9 GLL5        0.0000 
     89 CA        -15.7180  -18.0190   55.8690 C.3       6 GLP5        0.0000 
     90 CA        -14.5750  -18.5411   52.0314 C.3       3 GLC5        0.0000 
@<TRIPOS>BOND
@<TRIPOS>SUBSTRUCTURE
     1 ALC1       10 GROUP        1 X    ALC  0     ROOT ALC X 1
     2 SEC2        1 GROUP        1 X    SEC  0     **** SEC X 2
     3 GLC5        7 GROUP        1 X    GLC  0     **** GLC X 6
     4 ALP1       12 GROUP        1 Y    ALP  0     ROOT ALP Y 8
     5 SEP2        3 GROUP        1 Y    SEP  0     **** SEP Y 9
     6 GLP5        9 GROUP        1 Y    GLP  0     **** GLP Y 13
     7 ALL1       11 GROUP        1 Z    ALL  0     ROOT ALL Z 15
     8 SEL2        2 GROUP        1 Z    SEL  0     **** SEL Z 16
     9 GLL5        8 GROUP        1 Z    GLL  0     **** GLL Z 20
@<TRIPOS>SET

