#    Name: 1pzg_A3D_2_ligand
#    Modification time : Mon Mar 24 22:32:02 2014

@<TRIPOS>MOLECULE
1pzg_A3D_2_ligand
   70    74     1     0     0
SMALL
NO_CHARGES


@<TRIPOS>ATOM
      1 PA        -16.8930  -16.0430   45.2160 P.3       1 A3D603      0.0000 
      2 O1A       -17.7920  -15.0660   45.7160 O.co2     1 A3D603      0.0000 
      3 O2A       -17.3990  -16.9870   44.1390 O.co2     1 A3D603      0.0000 
      4 O5B       -15.6450  -15.2560   44.6860 O.3       1 A3D603      0.0000 
      5 C5B       -14.4690  -15.9320   44.1660 C.3       1 A3D603      0.0000 
      6 C4B       -14.0290  -14.7960   43.2210 C.3       1 A3D603      0.0000 
      7 O4B       -12.7400  -15.0970   42.5460 O.3       1 A3D603      0.0000 
      8 C3B       -14.9930  -14.4190   42.0160 C.3       1 A3D603      0.0000 
      9 O3B       -15.3000  -13.0250   42.0190 O.3       1 A3D603      0.0000 
     10 C2B       -14.2330  -14.8840   40.7750 C.3       1 A3D603      0.0000 
     11 O2B       -14.4950  -14.1490   39.5880 O.3       1 A3D603      0.0000 
     12 C1B       -12.7890  -14.7130   41.1940 C.3       1 A3D603      0.0000 
     13 N9A       -11.8920  -15.4580   40.3620 N.pl3     1 A3D603      0.0000 
     14 C8A       -12.0540  -16.6510   39.6860 C.2       1 A3D603      0.0000 
     15 N7A       -11.0010  -17.0160   38.9920 N.2       1 A3D603      0.0000 
     16 C5A       -10.0960  -16.0060   39.2310 C.ar      1 A3D603      0.0000 
     17 C6A        -8.7960  -15.8510   38.7560 C.ar      1 A3D603      0.0000 
     18 N6A        -8.1400  -16.6950   37.9290 N.pl3     1 A3D603      0.0000 
     19 N1A        -8.0930  -14.7090   39.1710 N.ar      1 A3D603      0.0000 
     20 C2A        -8.6780  -13.7550   40.0310 C.ar      1 A3D603      0.0000 
     21 N3A        -9.9810  -13.8850   40.5170 N.ar      1 A3D603      0.0000 
     22 C4A       -10.6460  -15.0270   40.0900 C.ar      1 A3D603      0.0000 
     23 O3        -16.3430  -16.9480   46.3710 O.3       1 A3D603      0.0000 
     24 PN        -16.0270  -16.6930   47.9300 P.3       1 A3D603      0.0000 
     25 O1N       -17.2580  -16.8730   48.7270 O.co2     1 A3D603      0.0000 
     26 O2N       -15.3650  -15.3800   48.0160 O.co2     1 A3D603      0.0000 
     27 O5D       -15.0450  -17.8870   48.2510 O.3       1 A3D603      0.0000 
     28 C5D       -13.7080  -17.7930   47.6780 C.3       1 A3D603      0.0000 
     29 C4D       -12.9410  -19.0630   47.9470 C.3       1 A3D603      0.0000 
     30 O4D       -12.7250  -19.2820   49.3740 O.3       1 A3D603      0.0000 
     31 C3D       -13.5780  -20.4020   47.4440 C.3       1 A3D603      0.0000 
     32 O3D       -12.5620  -21.2260   46.8580 O.3       1 A3D603      0.0000 
     33 C2D       -14.1460  -21.0010   48.7120 C.3       1 A3D603      0.0000 
     34 O2D       -14.3470  -22.3960   48.6610 O.3       1 A3D603      0.0000 
     35 C1D       -13.1090  -20.6490   49.6750 C.3       1 A3D603      0.0000 
     36 N1N       -13.4590  -20.6660   51.1100 N.pl3     1 A3D603      0.0000 
     37 C2N       -12.5450  -21.1860   52.0350 C.ar      1 A3D603      0.0000 
     38 C3N       -12.8910  -21.1940   53.3680 C.ar      1 A3D603      0.0000 
     39 C7N       -11.8870  -21.7760   54.3660 C.2       1 A3D603      0.0000 
     40 O7N       -12.2160  -21.7740   55.5420 O.2       1 A3D603      0.0000 
     41 C8N       -10.5540  -22.3290   53.9040 C.3       1 A3D603      0.0000 
     42 C4N       -14.1860  -20.6700   53.8190 C.ar      1 A3D603      0.0000 
     43 C5N       -15.0900  -20.1530   52.8420 C.ar      1 A3D603      0.0000 
     44 C6N       -14.7480  -20.1410   51.4650 C.ar      1 A3D603      0.0000 
     45 H         -14.7136  -16.7649   43.5922 H         1 A3D603      0.0000 
     46 H         -13.7351  -16.0626   44.8920 H         1 A3D603      0.0000 
     47 H         -13.8891  -13.8718   43.7931 H         1 A3D603      0.0000 
     48 H         -15.8578  -15.0495   42.1318 H         1 A3D603      0.0000 
     49 H         -14.4017  -15.9437   40.6694 H         1 A3D603      0.0000 
     50 H         -12.5780  -13.6350   41.1137 H         1 A3D603      0.0000 
     51 H         -12.9124  -17.1659   39.7426 H         1 A3D603      0.0000 
     52 H          -8.1128  -12.9266   40.3097 H         1 A3D603      0.0000 
     53 H         -13.1580  -16.9517   48.1136 H         1 A3D603      0.0000 
     54 H         -13.7606  -17.6373   46.5949 H         1 A3D603      0.0000 
     55 H         -11.9492  -19.0049   47.4672 H         1 A3D603      0.0000 
     56 H         -14.3632  -20.1469   46.7917 H         1 A3D603      0.0000 
     57 H         -15.0344  -20.4457   48.9576 H         1 A3D603      0.0000 
     58 H         -12.2245  -21.2721   49.5132 H         1 A3D603      0.0000 
     59 H         -11.6471  -21.5477   51.7181 H         1 A3D603      0.0000 
     60 H         -14.4126  -20.6829   54.7914 H         1 A3D603      0.0000 
     61 H         -15.9976  -19.7864   53.1436 H         1 A3D603      0.0000 
     62 H         -15.3663  -19.7873   50.7715 H         1 A3D603      0.0000 
     63 H         -10.0041  -21.6340   53.4407 H         1 A3D603      0.0000 
     64 H         -10.0090  -22.6720   54.6690 H         1 A3D603      0.0000 
     65 H         -10.6688  -23.0875   53.2626 H         1 A3D603      0.0000 
     66 H         -14.4847  -12.5814   42.3911 H         1 A3D603      0.0000 
     67 H         -14.0066  -13.2844   39.7060 H         1 A3D603      0.0000 
     68 H          -7.2007  -16.3530   37.9023 H         1 A3D603      0.0000 
     69 H         -13.0538  -22.0035   46.4658 H         1 A3D603      0.0000 
     70 H         -14.0017  -22.6745   47.7648 H         1 A3D603      0.0000 
@<TRIPOS>BOND
     1    2    1 ar   
     2    3    1 ar   
     3    4    1 1    
     4   23    1 1    
     5    5    4 1    
     6    6    5 1    
     7   45    5 1    
     8   46    5 1    
     9    7    6 1    
    10    8    6 1    
    11   47    6 1    
    12   12    7 1    
    13    9    8 1    
    14   10    8 1    
    15   48    8 1    
    16   66    9 1    
    17   11   10 1    
    18   12   10 1    
    19   49   10 1    
    20   67   11 1    
    21   13   12 1    
    22   50   12 1    
    23   14   13 1    
    24   22   13 1    
    25   15   14 2    
    26   51   14 1    
    27   16   15 1    
    28   17   16 ar   
    29   22   16 ar   
    30   18   17 1    
    31   19   17 ar   
    32   68   18 1    
    33   20   19 ar   
    34   21   20 ar   
    35   52   20 1    
    36   22   21 ar   
    37   24   23 1    
    38   25   24 ar   
    39   26   24 ar   
    40   27   24 1    
    41   28   27 1    
    42   29   28 1    
    43   53   28 1    
    44   54   28 1    
    45   30   29 1    
    46   31   29 1    
    47   55   29 1    
    48   35   30 1    
    49   32   31 1    
    50   33   31 1    
    51   56   31 1    
    52   69   32 1    
    53   34   33 1    
    54   35   33 1    
    55   57   33 1    
    56   70   34 1    
    57   36   35 1    
    58   58   35 1    
    59   37   36 ar   
    60   44   36 ar   
    61   38   37 ar   
    62   59   37 1    
    63   39   38 1    
    64   42   38 ar   
    65   40   39 2    
    66   41   39 1    
    67   63   41 1    
    68   64   41 1    
    69   65   41 1    
    70   43   42 ar   
    71   60   42 1    
    72   44   43 ar   
    73   61   43 1    
    74   62   44 1    
@<TRIPOS>SUBSTRUCTURE
     1 A3D603      1 GROUP   
@<TRIPOS>SET

