#    Name: 2r8q_IBM_1_INTS_M
#    Modification time : Mon Mar 24 23:26:58 2014

@<TRIPOS>MOLECULE
2r8q_IBM_1_INTS_M
   28     0     6     0     0
SMALL
NO_CHARGES


@<TRIPOS>ATOM
      1 CA         34.2505    1.3800   11.5390 C.3       2 GLC5        0.0000 
      2 CA         33.5670    0.0220   13.1370 C.3       6 GLL5        0.0000 
      3 CA         34.9340    2.7380    9.9410 C.3       4 GLP5        0.0000 
      4 N          35.7000    2.5335   14.4835 N.am      1 SEC2        0.0000 
      5 N          34.7180    1.6830   14.1510 N.am      5 SEL2        0.0000 
      6 N          36.6820    3.3840   14.8160 N.am      3 SEP2        0.0000 
      7 N          29.3840    2.3205   15.6290 N.am      1 SEC2        0.0000 
      8 N          30.3570    1.1630   15.2090 N.am      5 SEL2        0.0000 
      9 N          28.4110    3.4780   16.0490 N.am      3 SEP2        0.0000 
     10 CA         31.6385    3.9235   16.5000 C.3       2 GLC5        0.0000 
     11 CA         32.6300    2.6010   15.6430 C.3       6 GLL5        0.0000 
     12 CA         30.6470    5.2460   17.3570 C.3       4 GLP5        0.0000 
     13 CA         32.7700    1.2475   16.9625 C.3       2 GLC5        0.0000 
     14 CA         32.9100   -0.1060   18.2820 C.3       4 GLP5        0.0000 
     15 CA         32.0315    2.8135   13.5125 C.3       2 GLC5        0.0000 
     16 CA         31.4330    3.0260   11.3820 C.3       4 GLP5        0.0000 
     17 CA         30.3795    0.4705   12.1710 C.3       2 GLC5        0.0000 
     18 CA         29.9610   -0.9930   13.5420 C.3       6 GLL5        0.0000 
     19 CA         30.7980    1.9340   10.8000 C.3       4 GLP5        0.0000 
     20 CA         29.3635   -1.8595   17.2910 C.3       2 GLC5        0.0000 
     21 CA         29.7710   -2.5140   15.5360 C.3       6 GLL5        0.0000 
     22 CA         28.9560   -1.2050   19.0460 C.3       4 GLP5        0.0000 
     23 CA         33.5282   -1.0128   14.9633 C.3       2 GLC5        0.0000 
     24 CA         32.3360   -0.5890   13.0460 C.3       6 GLL5        0.0000 
     25 CA         34.1050   -1.7420   16.8350 C.3       4 GLP5        0.0000 
     26 CA         31.8015   -3.4377   14.6233 C.3       2 GLC5        0.0000 
     27 CA         30.1370   -2.4230   14.0610 C.3       6 GLL5        0.0000 
     28 CA         33.6490   -4.4070   14.4480 C.3       4 GLP5        0.0000 
@<TRIPOS>BOND
@<TRIPOS>SUBSTRUCTURE
     1 SEC2        4 GROUP        1 X    SEC  0     ROOT SEC X 2
     2 GLC5        1 GROUP        1 X    GLC  0     **** GLC X 6
     3 SEP2        6 GROUP        1 Y    SEP  0     ROOT SEP Y 9
     4 GLP5        3 GROUP        1 Y    GLP  0     **** GLP Y 13
     5 SEL2        5 GROUP        1 Z    SEL  0     ROOT SEL Z 16
     6 GLL5        2 GROUP        1 Z    GLL  0     **** GLL Z 20
@<TRIPOS>SET

