#    Name: 2r8q_IBM_1_ligand
#    Modification time : Mon Mar 24 23:26:58 2014

@<TRIPOS>MOLECULE
2r8q_IBM_1_ligand
   30    31     1     0     0
SMALL
NO_CHARGES


@<TRIPOS>ATOM
      1 N9         32.4900   -1.6050   12.1320 N.pl3     1 IBM3        0.0000 
      2 C8         33.8010   -1.5470   11.7270 C.2       1 IBM3        0.0000 
      3 N7         34.4880   -0.5900   12.2990 N.2       1 IBM3        0.0000 
      4 C5         33.5670    0.0220   13.1370 C.2       1 IBM3        0.0000 
      5 C4         32.3360   -0.5890   13.0460 C.2       1 IBM3        0.0000 
      6 N3         31.2070   -0.2650   13.7140 N.am      1 IBM3        0.0000 
      7 C2         31.3340    0.7960   14.5650 C.2       1 IBM3        0.0000 
      8 N1         32.5460    1.4770   14.7220 N.am      1 IBM3        0.0000 
      9 C6         33.6580    1.0920   14.0130 C.2       1 IBM3        0.0000 
     10 O6         34.7180    1.6830   14.1510 O.2       1 IBM3        0.0000 
     11 O2         30.3570    1.1630   15.2090 O.2       1 IBM3        0.0000 
     12 C10        32.6300    2.6010   15.6430 C.3       1 IBM3        0.0000 
     13 C11        29.9610   -0.9930   13.5420 C.3       1 IBM3        0.0000 
     14 C12        30.1370   -2.4230   14.0610 C.3       1 IBM3        0.0000 
     15 C13        29.7710   -2.5140   15.5360 C.3       1 IBM3        0.0000 
     16 C14        29.3140   -3.4020   13.2360 C.3       1 IBM3        0.0000 
     17 H          31.8338   -2.2121   11.8450 H         1 IBM3        0.0000 
     18 H          34.1672   -2.1939   11.0527 H         1 IBM3        0.0000 
     19 H          29.6755   -1.0462   12.4910 H         1 IBM3        0.0000 
     20 H          29.1496   -0.5265   14.1014 H         1 IBM3        0.0000 
     21 H          31.1904   -2.6904   13.9547 H         1 IBM3        0.0000 
     22 H          33.5474    2.9986   15.6611 H         1 IBM3        0.0000 
     23 H          31.9977    3.3342   15.3928 H         1 IBM3        0.0000 
     24 H          32.4092    2.3306   16.5801 H         1 IBM3        0.0000 
     25 H          29.8784   -3.4436   15.8886 H         1 IBM3        0.0000 
     26 H          30.3451   -1.9190   16.0985 H         1 IBM3        0.0000 
     27 H          28.8217   -2.2460   15.7003 H         1 IBM3        0.0000 
     28 H          29.5858   -3.3969   12.2737 H         1 IBM3        0.0000 
     29 H          29.4153   -4.3411   13.5643 H         1 IBM3        0.0000 
     30 H          28.3384   -3.1846   13.2661 H         1 IBM3        0.0000 
@<TRIPOS>BOND
     1    2    1 1    
     2    5    1 1    
     3   17    1 1    
     4    3    2 2    
     5   18    2 1    
     6    4    3 1    
     7    5    4 2    
     8    9    4 1    
     9    6    5 1    
    10    7    6 am   
    11   13    6 1    
    12    8    7 am   
    13   11    7 2    
    14    9    8 am   
    15   12    8 1    
    16   10    9 2    
    17   22   12 1    
    18   23   12 1    
    19   24   12 1    
    20   14   13 1    
    21   19   13 1    
    22   20   13 1    
    23   15   14 1    
    24   16   14 1    
    25   21   14 1    
    26   25   15 1    
    27   26   15 1    
    28   27   15 1    
    29   28   16 1    
    30   29   16 1    
    31   30   16 1    
@<TRIPOS>SUBSTRUCTURE
     1 IBM3        1 GROUP   
@<TRIPOS>SET

