#    Name: 2ptf_FMN_1_INTS_M
#    Modification time : Mon Mar 24 19:21:04 2014

@<TRIPOS>MOLECULE
2ptf_FMN_1_INTS_M
   62     0    12     0     0
SMALL
NO_CHARGES


@<TRIPOS>ATOM
      1 N          14.9030   41.0465   21.9995 N.am      2 SEC2        0.0000 
      2 N          15.3910   39.7310   21.8160 N.am     10 SEL2        0.0000 
      3 N          14.4150   42.3620   22.1830 N.am      6 SEP2        0.0000 
      4 O          14.5275   38.6895   24.0885 O.2       1 ALC1        0.0000 
      5 O          15.4530   38.0900   23.3230 O.2       9 ALL1        0.0000 
      6 O          13.6020   39.2890   24.8540 O.2       5 ALP1        0.0000 
      7 N          15.1645   34.8435   24.6450 N.am      2 SEC2        0.0000 
      8 N          15.4090   36.3260   24.7010 N.am     10 SEL2        0.0000 
      9 N          14.9200   33.3610   24.5890 N.am      6 SEP2        0.0000 
     10 CA         16.8630   34.0610   22.5820 C.3       4 GLC5        0.0000 
     11 CA         18.8460   34.6930   23.0010 C.3      12 GLL5        0.0000 
     12 CA         14.8800   33.4290   22.1630 C.3       8 GLP5        0.0000 
     13 CA         22.1670   30.3110   24.1915 C.3       4 GLC5        0.0000 
     14 CA         20.9420   31.5430   23.1580 C.3      12 GLL5        0.0000 
     15 CA         23.3920   29.0790   25.2250 C.3       8 GLP5        0.0000 
     16 CA         22.8280   33.5500   18.8715 C.3       4 GLC5        0.0000 
     17 CA         22.1940   33.1000   20.8060 C.3      12 GLL5        0.0000 
     18 CA         23.4620   34.0000   16.9370 C.3       8 GLP5        0.0000 
     19 CA         23.7335   32.3300   20.3620 C.3       4 GLC5        0.0000 
     20 CA         25.2730   31.5600   19.9180 C.3       8 GLP5        0.0000 
     21 CA         22.9765   34.9440   20.1310 C.3       4 GLC5        0.0000 
     22 CA         23.7590   36.7880   19.4560 C.3       8 GLP5        0.0000 
     23 CA         22.1065   35.7900   20.3145 C.3       4 GLC5        0.0000 
     24 CA         20.4540   34.7920   21.1730 C.3      12 GLL5        0.0000 
     25 CA         21.6070   37.0105   19.8815 C.3       4 GLC5        0.0000 
     26 CA         19.4550   37.2330   20.3070 C.3      12 GLL5        0.0000 
     27 O          17.7350   34.8050   19.4775 O.2       1 ALC1        0.0000 
     28 O          18.5540   35.5730   18.6610 O.2       9 ALL1        0.0000 
     29 O          16.9160   34.0370   20.2940 O.2       5 ALP1        0.0000 
     30 CA         16.8960   39.9465   16.7510 C.3       4 GLC5        0.0000 
     31 CA         17.7080   37.9700   16.2320 C.3      12 GLL5        0.0000 
     32 CA         16.0840   41.9230   17.2700 C.3       8 GLP5        0.0000 
     33 N          15.1840   40.3685   13.4855 N.am      2 SEC2        0.0000 
     34 N          16.5310   39.6020   13.5600 N.am     10 SEL2        0.0000 
     35 N          13.8370   41.1350   13.4110 N.am      6 SEP2        0.0000 
     36 N          14.2275   37.0495   13.7845 N.am      2 SEC2        0.0000 
     37 N          14.9700   38.1360   14.9070 N.am     10 SEL2        0.0000 
     38 N          13.4850   35.9630   12.6620 N.am      6 SEP2        0.0000 
     39 N          13.5940   38.6810   14.7520 N.am      2 SEC2        0.0000 
     40 N          12.2180   39.2260   14.5970 N.am      6 SEP2        0.0000 
     41 N          14.0400   37.5250   15.4890 N.am      2 SEC2        0.0000 
     42 N          13.1100   36.9140   16.0710 N.am      6 SEP2        0.0000 
     43 NZ         16.6500   37.5210   11.6820 N.4       3 LYC4        0.0000 
     44 NZ         15.9600   37.1750   13.0380 N.4      11 LYL4        0.0000 
     45 NZ         16.3630   38.3310    9.5450 N.4       7 LYP4        0.0000 
     46 N          14.7225   36.5690   12.8500 N.am      2 SEC2        0.0000 
     47 N          15.9600   37.1750   13.0380 N.am     10 SEL2        0.0000 
     48 N          16.6500   37.5210   11.6820 N.am      2 SEC2        0.0000 
     49 N          17.3400   37.8670   10.3260 N.am      6 SEP2        0.0000 
     50 CA         18.8332   32.8470   21.5415 C.3       4 GLC5        0.0000 
     51 CA         18.5260   31.5980   19.8550 C.3       8 GLP5        0.0000 
     52 CA         19.6307   31.9240   21.4145 C.3       4 GLC5        0.0000 
     53 CA         20.5290   32.9570   22.7900 C.3      12 GLL5        0.0000 
     54 CA         22.3337   32.9320   23.8475 C.3       4 GLC5        0.0000 
     55 CA         23.9320   33.6140   24.7210 C.3       8 GLP5        0.0000 
     56 CA         20.0745   32.4805   20.5378 C.3       4 GLC5        0.0000 
     57 CA         21.0520   33.6260   21.6350 C.3      12 GLL5        0.0000 
     58 CA         22.7775   33.4885   22.9708 C.3       4 GLC5        0.0000 
     59 CA         19.2155   33.3260   20.6835 C.3       4 GLC5        0.0000 
     60 CA         17.1185   36.1043   16.2535 C.3       4 GLC5        0.0000 
     61 CA         19.0380   37.3030   16.5260 C.3      12 GLL5        0.0000 
     62 CA         15.8640   34.5720   16.1280 C.3       8 GLP5        0.0000 
@<TRIPOS>BOND
@<TRIPOS>SUBSTRUCTURE
     1 ALC1        4 GROUP        1 X    ALC  0     ROOT ALC X 1
     2 SEC2        1 GROUP        1 X    SEC  0     **** SEC X 2
     3 LYC4       43 GROUP        1 X    LYC  0     **** LYC X 4
     4 GLC5       10 GROUP        1 X    GLC  0     **** GLC X 6
     5 ALP1        6 GROUP        1 Y    ALP  0     ROOT ALP Y 8
     6 SEP2        3 GROUP        1 Y    SEP  0     **** SEP Y 9
     7 LYP4       45 GROUP        1 Y    LYP  0     **** LYP Y 11
     8 GLP5       12 GROUP        1 Y    GLP  0     **** GLP Y 13
     9 ALL1        5 GROUP        1 Z    ALL  0     ROOT ALL Z 15
    10 SEL2        2 GROUP        1 Z    SEL  0     **** SEL Z 16
    11 LYL4       44 GROUP        1 Z    LYL  0     **** LYL Z 18
    12 GLL5       11 GROUP        1 Z    GLL  0     **** GLL Z 20
@<TRIPOS>SET

