#    Name: 2ptf_FMN_1_ligand
#    Modification time : Mon Mar 24 19:21:05 2014

@<TRIPOS>MOLECULE
2ptf_FMN_1_ligand
   50    52     1     0     0
SMALL
NO_CHARGES


@<TRIPOS>ATOM
      1 N1         17.0730   38.1760   21.5310 N.2       1 FMN301      0.0000 
      2 C2         15.9600   38.7030   22.2070 C.2       1 FMN301      0.0000 
      3 O2         15.3910   39.7310   21.8160 O.2       1 FMN301      0.0000 
      4 N3         15.4530   38.0900   23.3230 N.am      1 FMN301      0.0000 
      5 C4         16.0300   36.9510   23.8150 C.2       1 FMN301      0.0000 
      6 O4         15.4090   36.3260   24.7010 O.2       1 FMN301      0.0000 
      7 C4A        17.1400   36.4070   23.1750 C.2       1 FMN301      0.0000 
      8 N5         17.7280   35.2430   23.6510 N.2       1 FMN301      0.0000 
      9 C5A        18.8460   34.6930   23.0010 C.ar      1 FMN301      0.0000 
     10 C6         19.4350   33.4990   23.4550 C.ar      1 FMN301      0.0000 
     11 C7         20.5290   32.9570   22.7900 C.ar      1 FMN301      0.0000 
     12 C7M        20.9420   31.5430   23.1580 C.3       1 FMN301      0.0000 
     13 C8         21.0520   33.6260   21.6350 C.ar      1 FMN301      0.0000 
     14 C8M        22.1940   33.1000   20.8060 C.3       1 FMN301      0.0000 
     15 C9         20.4540   34.7920   21.1730 C.ar      1 FMN301      0.0000 
     16 C9A        19.3560   35.3160   21.8510 C.ar      1 FMN301      0.0000 
     17 N10        18.7700   36.4750   21.3880 N.pl3     1 FMN301      0.0000 
     18 C10        17.6590   37.0270   22.0330 C.2       1 FMN301      0.0000 
     19 C1'        19.4550   37.2330   20.3070 C.3       1 FMN301      0.0000 
     20 C2'        18.6950   36.9510   19.0010 C.3       1 FMN301      0.0000 
     21 O2'        18.5540   35.5730   18.6610 O.3       1 FMN301      0.0000 
     22 C3'        19.4910   37.6570   17.9130 C.3       1 FMN301      0.0000 
     23 O3'        19.2870   39.0290   18.0390 O.3       1 FMN301      0.0000 
     24 C4'        19.0380   37.3030   16.5260 C.3       1 FMN301      0.0000 
     25 O4'        20.0460   37.7270   15.6240 O.3       1 FMN301      0.0000 
     26 C5'        17.7080   37.9700   16.2320 C.3       1 FMN301      0.0000 
     27 O5'        17.5310   37.7950   14.8490 O.3       1 FMN301      0.0000 
     28 P          16.1990   38.2190   14.0710 P.3       1 FMN301      0.0000 
     29 O1P        16.5310   39.6020   13.5600 O.co2     1 FMN301      0.0000 
     30 O2P        14.9700   38.1360   14.9070 O.co2     1 FMN301      0.0000 
     31 O3P        15.9600   37.1750   13.0380 O.co2     1 FMN301      0.0000 
     32 H          14.6225   38.4948   23.7994 H         1 FMN301      0.0000 
     33 H          19.0487   33.0296   24.2846 H         1 FMN301      0.0000 
     34 H          20.8173   35.2644   20.3391 H         1 FMN301      0.0000 
     35 H          20.4732   36.8992   20.1934 H         1 FMN301      0.0000 
     36 H          19.4225   38.2919   20.5041 H         1 FMN301      0.0000 
     37 H          17.7390   37.4603   19.0624 H         1 FMN301      0.0000 
     38 H          20.5284   37.4058   18.0179 H         1 FMN301      0.0000 
     39 H          18.9018   36.2306   16.4828 H         1 FMN301      0.0000 
     40 H          17.7834   39.0082   16.5143 H         1 FMN301      0.0000 
     41 H          16.9478   37.4748   16.8153 H         1 FMN301      0.0000 
     42 H          21.7373   31.2399   22.6330 H         1 FMN301      0.0000 
     43 H          21.1829   31.4664   24.1255 H         1 FMN301      0.0000 
     44 H          20.2089   30.8852   22.9855 H         1 FMN301      0.0000 
     45 H          23.0285   32.9957   21.3470 H         1 FMN301      0.0000 
     46 H          21.9858   32.2044   20.4128 H         1 FMN301      0.0000 
     47 H          22.4125   33.7107   20.0449 H         1 FMN301      0.0000 
     48 H          17.9403   35.1968   19.3551 H         1 FMN301      0.0000 
     49 H          20.1698   39.3959   18.3322 H         1 FMN301      0.0000 
     50 H          19.6015   37.7434   14.7284 H         1 FMN301      0.0000 
@<TRIPOS>BOND
     1    2    1 1    
     2   18    1 2    
     3    3    2 2    
     4    4    2 am   
     5    5    4 am   
     6   32    4 1    
     7    6    5 2    
     8    7    5 1    
     9    8    7 2    
    10   18    7 1    
    11    9    8 1    
    12   10    9 ar   
    13   16    9 ar   
    14   11   10 ar   
    15   33   10 1    
    16   12   11 1    
    17   13   11 ar   
    18   42   12 1    
    19   43   12 1    
    20   44   12 1    
    21   14   13 1    
    22   15   13 ar   
    23   45   14 1    
    24   46   14 1    
    25   47   14 1    
    26   16   15 ar   
    27   34   15 1    
    28   17   16 1    
    29   18   17 1    
    30   19   17 1    
    31   20   19 1    
    32   35   19 1    
    33   36   19 1    
    34   21   20 1    
    35   22   20 1    
    36   37   20 1    
    37   48   21 1    
    38   23   22 1    
    39   24   22 1    
    40   38   22 1    
    41   49   23 1    
    42   25   24 1    
    43   26   24 1    
    44   39   24 1    
    45   50   25 1    
    46   27   26 1    
    47   40   26 1    
    48   41   26 1    
    49   28   27 1    
    50   29   28 ar   
    51   30   28 ar   
    52   31   28 ar   
@<TRIPOS>SUBSTRUCTURE
     1 FMN301      1 GROUP   
@<TRIPOS>SET

