#    Name: 3n3a_FMN_1_INTS_M
#    Modification time : Tue Mar 25 00:35:37 2014

@<TRIPOS>MOLECULE
3n3a_FMN_1_INTS_M
   73     0     9     0     0
SMALL
NO_CHARGES


@<TRIPOS>ATOM
      1 N          13.9600   18.7085   20.0405 N.am      2 SEC2        0.0000 
      2 N          14.9600   19.3190   21.2720 N.am      8 SEL2        0.0000 
      3 N          12.9600   18.0980   18.8090 N.am      5 SEP2        0.0000 
      4 N          14.2835   17.8495   19.3860 N.am      2 SEC2        0.0000 
      5 N          15.6070   17.6010   19.9630 N.am      8 SEL2        0.0000 
      6 N          16.3155   16.3375   19.8340 N.am      2 SEC2        0.0000 
      7 N          17.0240   15.0740   19.7050 N.am      5 SEP2        0.0000 
      8 O          18.2765   17.9410   20.4125 O.2       1 ALC1        0.0000 
      9 O          17.2610   18.8100   20.9490 O.2       7 ALL1        0.0000 
     10 O          19.2920   17.0720   19.8760 O.2       4 ALP1        0.0000 
     11 CA         14.9835   26.5325   27.8420 C.3       3 GLC5        0.0000 
     12 CA         15.6000   25.5200   26.0620 C.3       9 GLL5        0.0000 
     13 CA         14.3670   27.5450   29.6220 C.3       6 GLP5        0.0000 
     14 CA         16.4300   26.9885   25.1370 C.3       3 GLC5        0.0000 
     15 CA         17.2600   28.4570   24.2120 C.3       6 GLP5        0.0000 
     16 CA         15.0065   23.7295   26.9060 C.3       3 GLC5        0.0000 
     17 CA         14.4130   21.9390   27.7500 C.3       6 GLP5        0.0000 
     18 CA         17.1070   26.1985   27.3365 C.3       3 GLC5        0.0000 
     19 CA         18.6140   26.8770   28.6110 C.3       6 GLP5        0.0000 
     20 CA         11.1505   25.2855   25.3810 C.3       3 GLC5        0.0000 
     21 CA         12.8060   24.8710   25.4930 C.3       9 GLL5        0.0000 
     22 CA          9.4950   25.7000   25.2690 C.3       6 GLP5        0.0000 
     23 CA         12.9225   23.5040   26.5755 C.3       3 GLC5        0.0000 
     24 CA         13.0390   22.1370   27.6580 C.3       6 GLP5        0.0000 
     25 CA         13.6725   21.6645   20.9260 C.3       3 GLC5        0.0000 
     26 CA         12.8620   20.7610   22.3380 C.3       9 GLL5        0.0000 
     27 CA         14.4830   22.5680   19.5140 C.3       6 GLP5        0.0000 
     28 O          14.0575   19.0220   24.4335 O.2       1 ALC1        0.0000 
     29 O          12.8970   18.7940   23.7860 O.2       7 ALL1        0.0000 
     30 O          15.2180   19.2500   25.0810 O.2       4 ALP1        0.0000 
     31 CA          9.3610   19.8945   21.5045 C.3       3 GLC5        0.0000 
     32 CA         10.7550   19.5970   23.0110 C.3       9 GLL5        0.0000 
     33 CA          7.9670   20.1920   19.9980 C.3       6 GLP5        0.0000 
     34 CA         10.9760   20.1845   26.6270 C.3       3 GLC5        0.0000 
     35 CA          9.7790   19.2940   25.3550 C.3       9 GLL5        0.0000 
     36 CA         12.1730   21.0750   27.8990 C.3       6 GLP5        0.0000 
     37 N           8.7960   16.6510   26.4850 N.am      2 SEC2        0.0000 
     38 N           9.1650   18.3110   26.1520 N.am      8 SEL2        0.0000 
     39 N           8.4270   14.9910   26.8180 N.am      5 SEP2        0.0000 
     40 N           7.3650   20.8515   27.5440 N.am      2 SEC2        0.0000 
     41 N           7.2970   19.6250   27.2540 N.am      8 SEL2        0.0000 
     42 N           7.4330   22.0780   27.8340 N.am      5 SEP2        0.0000 
     43 N           5.9970   19.0330   27.0650 N.am      2 SEC2        0.0000 
     44 N           4.6970   18.4410   26.8760 N.am      5 SEP2        0.0000 
     45 N           6.5675   20.1785   26.0530 N.am      2 SEC2        0.0000 
     46 N           5.8380   20.7320   24.8520 N.am      5 SEP2        0.0000 
     47 N           9.0265   18.8535   29.9245 N.am      2 SEC2        0.0000 
     48 N           9.3600   19.2120   28.5440 N.am      8 SEL2        0.0000 
     49 N           8.6930   18.4950   31.3050 N.am      5 SEP2        0.0000 
     50 N           9.2190   20.2315   29.3035 N.am      2 SEC2        0.0000 
     51 N           9.0780   21.2510   30.0630 N.am      5 SEP2        0.0000 
     52 N          10.0840   20.2465   28.1755 N.am      2 SEC2        0.0000 
     53 N          10.8080   21.2810   27.8070 N.am      5 SEP2        0.0000 
     54 N           6.9560   17.0070   28.9865 N.am      2 SEC2        0.0000 
     55 N           7.8470   17.3430   28.0330 N.am      8 SEL2        0.0000 
     56 N           6.0650   16.6710   29.9400 N.am      5 SEP2        0.0000 
     57 N           6.8120   16.5955   27.3275 N.am      2 SEC2        0.0000 
     58 N           5.7770   15.8480   26.6220 N.am      5 SEP2        0.0000 
     59 N           8.1370   16.1670   27.4255 N.am      2 SEC2        0.0000 
     60 CA         17.0207   25.2800   23.8493 C.3       3 GLC5        0.0000 
     61 CA         16.2770   23.5830   24.5910 C.3       9 GLL5        0.0000 
     62 CA         18.2730   26.5900   22.8200 C.3       6 GLP5        0.0000 
     63 CA         16.2191   21.4951   25.3016 C.3       3 GLC5        0.0000 
     64 CA         15.9540   22.5060   23.7560 C.3       9 GLL5        0.0000 
     65 CA         17.0760   20.3670   26.7690 C.3       6 GLP5        0.0000 
     66 CA         12.5860   18.6767   21.9090 C.3       3 GLC5        0.0000 
     67 CA         12.6530   16.9890   20.9230 C.3       6 GLP5        0.0000 
     68 CA         11.5240   18.0613   22.2122 C.3       3 GLC5        0.0000 
     69 CA          7.7820   18.6500   24.6448 C.3       3 GLC5        0.0000 
     70 CA         10.0350   18.6700   23.9920 C.3       9 GLL5        0.0000 
     71 CA          5.6570   18.3180   24.6160 C.3       6 GLP5        0.0000 
     72 CA         10.8775   17.7025   25.6883 C.3       3 GLC5        0.0000 
     73 CA         11.8480   16.4230   26.7030 C.3       6 GLP5        0.0000 
@<TRIPOS>BOND
@<TRIPOS>SUBSTRUCTURE
     1 ALC1        8 GROUP        1 X    ALC  0     ROOT ALC X 1
     2 SEC2        1 GROUP        1 X    SEC  0     **** SEC X 2
     3 GLC5       11 GROUP        1 X    GLC  0     **** GLC X 6
     4 ALP1       10 GROUP        1 Y    ALP  0     ROOT ALP Y 8
     5 SEP2        3 GROUP        1 Y    SEP  0     **** SEP Y 9
     6 GLP5       13 GROUP        1 Y    GLP  0     **** GLP Y 13
     7 ALL1        9 GROUP        1 Z    ALL  0     ROOT ALL Z 15
     8 SEL2        2 GROUP        1 Z    SEL  0     **** SEL Z 16
     9 GLL5       12 GROUP        1 Z    GLL  0     **** GLL Z 20
@<TRIPOS>SET

