#    Name: 3D7F_1_CAVITY_N1_6.mol2
#    Modification time : Tue Mar 11 15:36:16 2014

@<TRIPOS>MOLECULE
3D7F_1_CAVITY_N1_6.mol2
  143     0     7     0     0
SMALL
NO_CHARGES


@<TRIPOS>ATOM
      1 CZ         28.4474   48.3602   41.9633 C.ar      5 PHE5        0.0000 
      2 CZ         28.6206   49.1181   40.6805 C.ar      5 PHE5        0.0000 
      3 CA         26.8794   47.2305   42.8381 C.3       6 GLY6        0.0000 
      4 OD1        27.0526   47.9885   41.5553 O.3       3 ASP3        0.0000 
      5 DU         27.2259   48.7464   40.2725 H         7 CUB7        0.0000 
      6 N          27.3991   49.5043   38.9897 N.2       2 ALA2        0.0000 
      7 CA         25.3114   46.1008   43.7128 C.3       6 GLY6        0.0000 
      8 CA         25.4846   46.8588   42.4301 C.3       6 GLY6        0.0000 
      9 OD1        25.6579   47.6167   41.1473 O.3       3 ASP3        0.0000 
     10 DU         25.8311   48.3746   39.8645 H         7 CUB7        0.0000 
     11 N          26.0044   49.1326   38.5817 N.2       2 ALA2        0.0000 
     12 O          23.7434   44.9712   44.5876 O.2       2 ALA2        0.0000 
     13 DU         23.9166   45.7291   43.3048 H         7 CUB7        0.0000 
     14 DU         24.0899   46.4870   42.0220 H         7 CUB7        0.0000 
     15 CZ         24.2631   47.2450   40.7393 C.ar      5 PHE5        0.0000 
     16 CZ         24.4364   48.0029   39.4565 C.ar      5 PHE5        0.0000 
     17 CZ         24.6096   48.7608   38.1737 C.ar      5 PHE5        0.0000 
     18 O          22.1754   43.8415   45.4624 O.2       2 ALA2        0.0000 
     19 CZ         22.3486   44.5994   44.1796 C.ar      5 PHE5        0.0000 
     20 CZ         22.5219   45.3574   42.8968 C.ar      5 PHE5        0.0000 
     21 CZ         22.6951   46.1153   41.6140 C.ar      5 PHE5        0.0000 
     22 NZ         20.7806   43.4698   45.0543 N.2       4 LYS4        0.0000 
     23 CZ         20.9539   44.2277   43.7716 C.ar      5 PHE5        0.0000 
     24 OG         21.1271   44.9856   42.4888 O.2       1 SER1        0.0000 
     25 CZ         21.3004   45.7435   41.2060 C.ar      5 PHE5        0.0000 
     26 NZ         19.3859   43.0980   44.6463 N.2       4 LYS4        0.0000 
     27 CZ         19.5591   43.8559   43.3635 C.ar      5 PHE5        0.0000 
     28 NZ         16.9429   43.8704   41.2647 N.2       4 LYS4        0.0000 
     29 OG         17.1161   44.6283   39.9819 O.2       1 SER1        0.0000 
     30 O          15.7214   44.2566   39.5739 O.2       2 ALA2        0.0000 
     31 CZ         28.0966   50.3580   41.3423 C.ar      5 PHE5        0.0000 
     32 N          28.2698   51.1160   40.0596 N.2       2 ALA2        0.0000 
     33 CZ         26.3553   48.4704   43.4999 C.ar      5 PHE5        0.0000 
     34 CZ         26.5286   49.2284   42.2171 C.ar      5 PHE5        0.0000 
     35 DU         26.7018   49.9863   40.9343 H         7 CUB7        0.0000 
     36 N          26.8751   50.7442   39.6515 N.2       2 ALA2        0.0000 
     37 O          24.7873   47.3407   44.3746 O.2       2 ALA2        0.0000 
     38 DU         24.9606   48.0987   43.0919 H         7 CUB7        0.0000 
     39 DU         25.1338   48.8566   41.8091 H         7 CUB7        0.0000 
     40 CZ         25.3071   49.6145   40.5263 C.ar      5 PHE5        0.0000 
     41 N          25.4803   50.3725   39.2435 N.2       2 ALA2        0.0000 
     42 O          23.2193   46.2111   45.2494 O.2       2 ALA2        0.0000 
     43 DU         23.3926   46.9690   43.9666 H         7 CUB7        0.0000 
     44 CZ         23.5658   47.7269   42.6838 C.ar      5 PHE5        0.0000 
     45 CZ         23.7391   48.4849   41.4011 C.ar      5 PHE5        0.0000 
     46 O          21.8246   45.8393   44.8414 O.2       2 ALA2        0.0000 
     47 DU         21.9978   46.5973   43.5586 H         7 CUB7        0.0000 
     48 CZ         22.1711   47.3552   42.2758 C.ar      5 PHE5        0.0000 
     49 O          20.2566   44.7096   45.7162 O.2       2 ALA2        0.0000 
     50 DU         20.4298   45.4676   44.4334 H         7 CUB7        0.0000 
     51 CZ         20.6031   46.2255   43.1506 C.ar      5 PHE5        0.0000 
     52 NZ         18.8618   44.3379   45.3081 N.2       4 LYS4        0.0000 
     53 N          19.0351   45.0958   44.0254 N.2       2 ALA2        0.0000 
     54 CZ         19.2083   45.8538   42.7426 C.ar      5 PHE5        0.0000 
     55 N          17.6403   44.7241   43.6173 N.2       2 ALA2        0.0000 
     56 N          17.8136   45.4820   42.3346 N.2       2 ALA2        0.0000 
     57 N          16.4188   45.1103   41.9265 N.2       2 ALA2        0.0000 
     58 N          16.5921   45.8682   40.6438 N.2       2 ALA2        0.0000 
     59 CZ         16.7653   46.6261   39.3610 C.ar      5 PHE5        0.0000 
     60 NZ         15.0241   44.7385   41.5185 N.2       4 LYS4        0.0000 
     61 O          15.1973   45.4965   40.2357 O.2       2 ALA2        0.0000 
     62 CZ         15.3706   46.2544   38.9530 C.ar      5 PHE5        0.0000 
     63 CZ         27.3992   50.8400   43.2869 C.ar      5 PHE5        0.0000 
     64 CZ         27.5725   51.5979   42.0042 C.ar      5 PHE5        0.0000 
     65 CZ         25.8312   49.7103   44.1617 C.ar      5 PHE5        0.0000 
     66 CZ         26.0045   50.4683   42.8789 C.ar      5 PHE5        0.0000 
     67 DU         26.1777   51.2262   41.5961 H         7 CUB7        0.0000 
     68 N          26.3510   51.9841   40.3134 N.2       2 ALA2        0.0000 
     69 O          24.2632   48.5806   45.0365 O.2       2 ALA2        0.0000 
     70 O          24.4365   49.3386   43.7537 O.2       2 ALA2        0.0000 
     71 CA         24.6097   50.0965   42.4709 C.3       6 GLY6        0.0000 
     72 CA         24.7830   50.8544   41.1881 C.3       6 GLY6        0.0000 
     73 O          22.6952   47.4510   45.9112 O.2       2 ALA2        0.0000 
     74 O          22.8685   48.2089   44.6284 O.2       2 ALA2        0.0000 
     75 CZ         23.0417   48.9668   43.3457 C.ar      5 PHE5        0.0000 
     76 CA         23.2150   49.7248   42.0629 C.3       6 GLY6        0.0000 
     77 O          21.3005   47.0792   45.5032 O.2       2 ALA2        0.0000 
     78 DU         21.4737   47.8372   44.2204 H         7 CUB7        0.0000 
     79 CZ         21.6470   48.5951   42.9376 C.ar      5 PHE5        0.0000 
     80 O          19.7325   45.9495   46.3780 O.2       2 ALA2        0.0000 
     81 O          19.9057   46.7075   45.0952 O.2       2 ALA2        0.0000 
     82 CZ         20.0790   47.4654   43.8124 C.ar      5 PHE5        0.0000 
     83 N          18.5110   46.3357   44.6872 N.2       2 ALA2        0.0000 
     84 N          16.0680   47.1081   41.3056 N.2       2 ALA2        0.0000 
     85 CA         16.2412   47.8660   40.0228 C.3       6 GLY6        0.0000 
     86 NZ         14.5000   45.9784   42.1803 N.2       4 LYS4        0.0000 
     87 N          14.6732   46.7364   40.8976 N.2       2 ALA2        0.0000 
     88 CZ         14.8465   47.4943   39.6148 C.ar      5 PHE5        0.0000 
     89 O          13.2785   46.3646   40.4895 O.2       2 ALA2        0.0000 
     90 O          13.4517   47.1226   39.2068 O.2       2 ALA2        0.0000 
     91 CZ         26.8752   52.0799   43.9488 C.ar      5 PHE5        0.0000 
     92 DU         27.0484   52.8378   42.6660 H         7 CUB7        0.0000 
     93 O          25.3072   50.9502   44.8235 O.2       2 ALA2        0.0000 
     94 DU         25.4804   51.7082   43.5407 H         7 CUB7        0.0000 
     95 DU         25.6537   52.4661   42.2580 H         7 CUB7        0.0000 
     96 O          23.9124   50.5785   44.4155 O.2       2 ALA2        0.0000 
     97 CA         24.0857   51.3364   43.1327 C.3       6 GLY6        0.0000 
     98 O          22.3444   49.4488   45.2903 O.2       2 ALA2        0.0000 
     99 CA         22.5177   50.2067   44.0075 C.3       6 GLY6        0.0000 
    100 O          20.9497   49.0771   44.8822 O.2       2 ALA2        0.0000 
    101 CZ         21.1229   49.8350   43.5995 C.ar      5 PHE5        0.0000 
    102 N          19.5549   48.7053   44.4742 N.2       2 ALA2        0.0000 
    103 CA         14.1492   47.9763   41.5594 C.3       6 GLY6        0.0000 
    104 DU         27.5726   52.9336   46.3014 H         7 CUB7        0.0000 
    105 DU         27.7458   53.6915   45.0186 H         7 CUB7        0.0000 
    106 O          26.1778   52.5619   45.8933 O.2       2 ALA2        0.0000 
    107 DU         26.3511   53.3198   44.6106 H         7 CUB7        0.0000 
    108 DU         26.5243   54.0777   43.3278 H         7 CUB7        0.0000 
    109 O          24.7831   52.1901   45.4853 O.2       2 ALA2        0.0000 
    110 N          24.9563   52.9480   44.2025 N.2       2 ALA2        0.0000 
    111 N          25.1296   53.7060   42.9198 N.2       2 ALA2        0.0000 
    112 O          23.3883   51.8184   45.0773 O.2       2 ALA2        0.0000 
    113 N          23.5616   52.5763   43.7945 N.2       2 ALA2        0.0000 
    114 O          21.8203   50.6887   45.9521 O.2       2 ALA2        0.0000 
    115 N          21.9936   51.4466   44.6693 N.2       2 ALA2        0.0000 
    116 N          20.5988   51.0749   44.2613 N.2       2 ALA2        0.0000 
    117 NZ         25.6538   53.8018   46.5552 N.2       4 LYS4        0.0000 
    118 DU         25.8270   54.5597   45.2724 H         7 CUB7        0.0000 
    119 DU         26.0002   55.3176   43.9896 H         7 CUB7        0.0000 
    120 NZ         24.2590   53.4300   46.1471 N.2       4 LYS4        0.0000 
    121 N          24.4322   54.1879   44.8644 N.2       2 ALA2        0.0000 
    122 CA         24.6055   54.9459   43.5816 C.3       6 GLY6        0.0000 
    123 NZ         22.8642   53.0583   45.7391 N.2       4 LYS4        0.0000 
    124 N          21.4695   52.6865   45.3311 N.2       2 ALA2        0.0000 
    125 CA         25.1380   44.0072   40.6984 C.3       6 GLY6        0.0000 
    126 OG         25.3113   44.7652   39.4156 O.2       1 SER1        0.0000 
    127 CZ         23.9165   44.3934   39.0076 C.ar      5 PHE5        0.0000 
    128 N          22.6950   44.7796   37.3168 N.2       2 ALA2        0.0000 
    129 OD1        27.7500   47.5065   39.6107 O.3       3 ASP3        0.0000 
    130 OD1        26.1820   46.3768   40.4855 O.3       3 ASP3        0.0000 
    131 OD1        26.3552   47.1348   39.2027 O.3       3 ASP3        0.0000 
    132 CZ         24.2675   43.7313   43.9258 C.ar      5 PHE5        0.0000 
    133 CA         24.4407   44.4892   42.6430 C.3       6 GLY6        0.0000 
    134 CA         24.6140   45.2471   41.3602 C.3       6 GLY6        0.0000 
    135 CZ         24.7872   46.0051   40.0774 C.ar      5 PHE5        0.0000 
    136 CZ         24.9605   46.7630   38.7947 C.ar      5 PHE5        0.0000 
    137 CZ         22.6995   42.6016   44.8005 C.ar      5 PHE5        0.0000 
    138 CZ         22.8727   43.3595   43.5178 C.ar      5 PHE5        0.0000 
    139 CZ         23.0460   44.1175   42.2350 C.ar      5 PHE5        0.0000 
    140 CZ         23.2192   44.8754   40.9522 C.ar      5 PHE5        0.0000 
    141 CZ         23.3925   45.6333   39.6694 C.ar      5 PHE5        0.0000 
    142 CZ         23.5657   46.3913   38.3866 C.ar      5 PHE5        0.0000 
    143 CZ         21.3047   42.2299   44.3925 C.ar      5 PHE5        0.0000 
@<TRIPOS>BOND
@<TRIPOS>SUBSTRUCTURE
     1 SER1       24 GROUP   
     2 ALA2        6 GROUP   
     3 ASP3        4 GROUP   
     4 LYS4       22 GROUP   
     5 PHE5        1 GROUP   
     6 GLY6        3 GROUP   
     7 CUB7        5 GROUP   
@<TRIPOS>SET

