#    Name: 3D7F_1_CAVITY_N1_ALL.mol2
#    Modification time : Tue Mar 11 15:36:16 2014

@<TRIPOS>MOLECULE
3D7F_1_CAVITY_N1_ALL.mol2
  191     0     7     0     0
SMALL
NO_CHARGES


@<TRIPOS>ATOM
      1 CZ         30.0154   49.4899   41.0885 C.ar      5 PHE5        0.0000 
      2 CZ         28.4474   48.3602   41.9633 C.ar      5 PHE5        0.0000 
      3 CZ         28.6206   49.1181   40.6805 C.ar      5 PHE5        0.0000 
      4 CA         28.7939   49.8761   39.3977 C.3       6 GLY6        0.0000 
      5 CA         28.9671   50.6340   38.1150 C.3       6 GLY6        0.0000 
      6 CA         26.8794   47.2305   42.8381 C.3       6 GLY6        0.0000 
      7 OD1        27.0526   47.9885   41.5553 O.3       3 ASP3        0.0000 
      8 DU         27.2259   48.7464   40.2725 H         7 CUB7        0.0000 
      9 N          27.3991   49.5043   38.9897 N.2       2 ALA2        0.0000 
     10 CA         25.3114   46.1008   43.7128 C.3       6 GLY6        0.0000 
     11 CA         25.4846   46.8588   42.4301 C.3       6 GLY6        0.0000 
     12 OD1        25.6579   47.6167   41.1473 O.3       3 ASP3        0.0000 
     13 DU         25.8311   48.3746   39.8645 H         7 CUB7        0.0000 
     14 N          26.0044   49.1326   38.5817 N.2       2 ALA2        0.0000 
     15 O          23.7434   44.9712   44.5876 O.2       2 ALA2        0.0000 
     16 DU         23.9166   45.7291   43.3048 H         7 CUB7        0.0000 
     17 DU         24.0899   46.4870   42.0220 H         7 CUB7        0.0000 
     18 CZ         24.2631   47.2450   40.7393 C.ar      5 PHE5        0.0000 
     19 CZ         24.4364   48.0029   39.4565 C.ar      5 PHE5        0.0000 
     20 CZ         24.6096   48.7608   38.1737 C.ar      5 PHE5        0.0000 
     21 O          22.1754   43.8415   45.4624 O.2       2 ALA2        0.0000 
     22 CZ         22.3486   44.5994   44.1796 C.ar      5 PHE5        0.0000 
     23 CZ         22.5219   45.3574   42.8968 C.ar      5 PHE5        0.0000 
     24 CZ         22.6951   46.1153   41.6140 C.ar      5 PHE5        0.0000 
     25 NZ         20.7806   43.4698   45.0543 N.2       4 LYS4        0.0000 
     26 CZ         20.9539   44.2277   43.7716 C.ar      5 PHE5        0.0000 
     27 OG         21.1271   44.9856   42.4888 O.2       1 SER1        0.0000 
     28 CZ         21.3004   45.7435   41.2060 C.ar      5 PHE5        0.0000 
     29 NZ         19.3859   43.0980   44.6463 N.2       4 LYS4        0.0000 
     30 CZ         19.5591   43.8559   43.3635 C.ar      5 PHE5        0.0000 
     31 NZ         16.9429   43.8704   41.2647 N.2       4 LYS4        0.0000 
     32 OG         17.1161   44.6283   39.9819 O.2       1 SER1        0.0000 
     33 O          15.7214   44.2566   39.5739 O.2       2 ALA2        0.0000 
     34 CZ         28.0966   50.3580   41.3423 C.ar      5 PHE5        0.0000 
     35 N          28.2698   51.1160   40.0596 N.2       2 ALA2        0.0000 
     36 CZ         26.3553   48.4704   43.4999 C.ar      5 PHE5        0.0000 
     37 CZ         26.5286   49.2284   42.2171 C.ar      5 PHE5        0.0000 
     38 DU         26.7018   49.9863   40.9343 H         7 CUB7        0.0000 
     39 N          26.8751   50.7442   39.6515 N.2       2 ALA2        0.0000 
     40 O          24.7873   47.3407   44.3746 O.2       2 ALA2        0.0000 
     41 DU         24.9606   48.0987   43.0919 H         7 CUB7        0.0000 
     42 DU         25.1338   48.8566   41.8091 H         7 CUB7        0.0000 
     43 CZ         25.3071   49.6145   40.5263 C.ar      5 PHE5        0.0000 
     44 N          25.4803   50.3725   39.2435 N.2       2 ALA2        0.0000 
     45 O          23.2193   46.2111   45.2494 O.2       2 ALA2        0.0000 
     46 DU         23.3926   46.9690   43.9666 H         7 CUB7        0.0000 
     47 CZ         23.5658   47.7269   42.6838 C.ar      5 PHE5        0.0000 
     48 CZ         23.7391   48.4849   41.4011 C.ar      5 PHE5        0.0000 
     49 O          21.8246   45.8393   44.8414 O.2       2 ALA2        0.0000 
     50 DU         21.9978   46.5973   43.5586 H         7 CUB7        0.0000 
     51 CZ         22.1711   47.3552   42.2758 C.ar      5 PHE5        0.0000 
     52 O          20.2566   44.7096   45.7162 O.2       2 ALA2        0.0000 
     53 DU         20.4298   45.4676   44.4334 H         7 CUB7        0.0000 
     54 CZ         20.6031   46.2255   43.1506 C.ar      5 PHE5        0.0000 
     55 NZ         18.8618   44.3379   45.3081 N.2       4 LYS4        0.0000 
     56 N          19.0351   45.0958   44.0254 N.2       2 ALA2        0.0000 
     57 CZ         19.2083   45.8538   42.7426 C.ar      5 PHE5        0.0000 
     58 N          17.6403   44.7241   43.6173 N.2       2 ALA2        0.0000 
     59 N          17.8136   45.4820   42.3346 N.2       2 ALA2        0.0000 
     60 N          16.4188   45.1103   41.9265 N.2       2 ALA2        0.0000 
     61 N          16.5921   45.8682   40.6438 N.2       2 ALA2        0.0000 
     62 CZ         16.7653   46.6261   39.3610 C.ar      5 PHE5        0.0000 
     63 NZ         15.0241   44.7385   41.5185 N.2       4 LYS4        0.0000 
     64 O          15.1973   45.4965   40.2357 O.2       2 ALA2        0.0000 
     65 CZ         15.3706   46.2544   38.9530 C.ar      5 PHE5        0.0000 
     66 CZ         27.3992   50.8400   43.2869 C.ar      5 PHE5        0.0000 
     67 CZ         27.5725   51.5979   42.0042 C.ar      5 PHE5        0.0000 
     68 CZ         25.8312   49.7103   44.1617 C.ar      5 PHE5        0.0000 
     69 CZ         26.0045   50.4683   42.8789 C.ar      5 PHE5        0.0000 
     70 DU         26.1777   51.2262   41.5961 H         7 CUB7        0.0000 
     71 N          26.3510   51.9841   40.3134 N.2       2 ALA2        0.0000 
     72 O          24.2632   48.5806   45.0365 O.2       2 ALA2        0.0000 
     73 O          24.4365   49.3386   43.7537 O.2       2 ALA2        0.0000 
     74 CA         24.6097   50.0965   42.4709 C.3       6 GLY6        0.0000 
     75 CA         24.7830   50.8544   41.1881 C.3       6 GLY6        0.0000 
     76 O          22.6952   47.4510   45.9112 O.2       2 ALA2        0.0000 
     77 O          22.8685   48.2089   44.6284 O.2       2 ALA2        0.0000 
     78 CZ         23.0417   48.9668   43.3457 C.ar      5 PHE5        0.0000 
     79 CA         23.2150   49.7248   42.0629 C.3       6 GLY6        0.0000 
     80 O          21.3005   47.0792   45.5032 O.2       2 ALA2        0.0000 
     81 DU         21.4737   47.8372   44.2204 H         7 CUB7        0.0000 
     82 CZ         21.6470   48.5951   42.9376 C.ar      5 PHE5        0.0000 
     83 O          19.7325   45.9495   46.3780 O.2       2 ALA2        0.0000 
     84 O          19.9057   46.7075   45.0952 O.2       2 ALA2        0.0000 
     85 CZ         20.0790   47.4654   43.8124 C.ar      5 PHE5        0.0000 
     86 N          18.5110   46.3357   44.6872 N.2       2 ALA2        0.0000 
     87 N          16.0680   47.1081   41.3056 N.2       2 ALA2        0.0000 
     88 CA         16.2412   47.8660   40.0228 C.3       6 GLY6        0.0000 
     89 NZ         14.5000   45.9784   42.1803 N.2       4 LYS4        0.0000 
     90 N          14.6732   46.7364   40.8976 N.2       2 ALA2        0.0000 
     91 CZ         14.8465   47.4943   39.6148 C.ar      5 PHE5        0.0000 
     92 O          13.2785   46.3646   40.4895 O.2       2 ALA2        0.0000 
     93 O          13.4517   47.1226   39.2068 O.2       2 ALA2        0.0000 
     94 CZ         26.8752   52.0799   43.9488 C.ar      5 PHE5        0.0000 
     95 DU         27.0484   52.8378   42.6660 H         7 CUB7        0.0000 
     96 O          25.3072   50.9502   44.8235 O.2       2 ALA2        0.0000 
     97 DU         25.4804   51.7082   43.5407 H         7 CUB7        0.0000 
     98 DU         25.6537   52.4661   42.2580 H         7 CUB7        0.0000 
     99 O          23.9124   50.5785   44.4155 O.2       2 ALA2        0.0000 
    100 CA         24.0857   51.3364   43.1327 C.3       6 GLY6        0.0000 
    101 O          22.3444   49.4488   45.2903 O.2       2 ALA2        0.0000 
    102 CA         22.5177   50.2067   44.0075 C.3       6 GLY6        0.0000 
    103 O          20.9497   49.0771   44.8822 O.2       2 ALA2        0.0000 
    104 CZ         21.1229   49.8350   43.5995 C.ar      5 PHE5        0.0000 
    105 N          19.5549   48.7053   44.4742 N.2       2 ALA2        0.0000 
    106 CA         14.1492   47.9763   41.5594 C.3       6 GLY6        0.0000 
    107 DU         27.5726   52.9336   46.3014 H         7 CUB7        0.0000 
    108 DU         27.7458   53.6915   45.0186 H         7 CUB7        0.0000 
    109 O          26.1778   52.5619   45.8933 O.2       2 ALA2        0.0000 
    110 DU         26.3511   53.3198   44.6106 H         7 CUB7        0.0000 
    111 DU         26.5243   54.0777   43.3278 H         7 CUB7        0.0000 
    112 O          24.7831   52.1901   45.4853 O.2       2 ALA2        0.0000 
    113 N          24.9563   52.9480   44.2025 N.2       2 ALA2        0.0000 
    114 N          25.1296   53.7060   42.9198 N.2       2 ALA2        0.0000 
    115 O          23.3883   51.8184   45.0773 O.2       2 ALA2        0.0000 
    116 N          23.5616   52.5763   43.7945 N.2       2 ALA2        0.0000 
    117 O          21.8203   50.6887   45.9521 O.2       2 ALA2        0.0000 
    118 N          21.9936   51.4466   44.6693 N.2       2 ALA2        0.0000 
    119 N          20.5988   51.0749   44.2613 N.2       2 ALA2        0.0000 
    120 OG         27.0485   54.1735   46.9632 O.2       1 SER1        0.0000 
    121 OG         27.2217   54.9314   45.6804 O.2       1 SER1        0.0000 
    122 NZ         25.6538   53.8018   46.5552 N.2       4 LYS4        0.0000 
    123 DU         25.8270   54.5597   45.2724 H         7 CUB7        0.0000 
    124 DU         26.0002   55.3176   43.9896 H         7 CUB7        0.0000 
    125 NZ         24.2590   53.4300   46.1471 N.2       4 LYS4        0.0000 
    126 N          24.4322   54.1879   44.8644 N.2       2 ALA2        0.0000 
    127 CA         24.6055   54.9459   43.5816 C.3       6 GLY6        0.0000 
    128 NZ         22.8642   53.0583   45.7391 N.2       4 LYS4        0.0000 
    129 N          21.4695   52.6865   45.3311 N.2       2 ALA2        0.0000 
    130 OG         26.6977   56.1713   46.3422 O.2       1 SER1        0.0000 
    131 CA         25.1297   55.0417   47.2170 C.3       6 GLY6        0.0000 
    132 CA         25.3029   55.7996   45.9342 C.3       6 GLY6        0.0000 
    133 N          31.5876   45.7702   39.1031 N.2       2 ALA2        0.0000 
    134 NZ         31.7609   46.5281   37.8203 N.2       4 LYS4        0.0000 
    135 NZ         31.9341   47.2861   36.5375 N.2       4 LYS4        0.0000 
    136 OD1        30.1929   45.3984   38.6951 O.3       3 ASP3        0.0000 
    137 CA         30.3661   46.1564   37.4123 C.3       6 GLY6        0.0000 
    138 NZ         30.5394   46.9143   36.1295 N.2       4 LYS4        0.0000 
    139 OD1        28.7981   45.0267   38.2871 O.3       3 ASP3        0.0000 
    140 CA         28.9714   45.7846   37.0043 C.3       6 GLY6        0.0000 
    141 OD1        31.0635   47.0101   39.7649 O.3       3 ASP3        0.0000 
    142 DU         31.2368   47.7680   38.4821 H         7 CUB7        0.0000 
    143 OD1        31.4100   48.5260   37.1994 O.3       3 ASP3        0.0000 
    144 OD1        29.6688   46.6383   39.3569 O.3       3 ASP3        0.0000 
    145 O          29.8420   47.3963   38.0741 O.2       2 ALA2        0.0000 
    146 O          30.0153   48.1542   36.7913 O.2       2 ALA2        0.0000 
    147 OD1        28.2740   46.2666   38.9489 O.3       3 ASP3        0.0000 
    148 O          28.4473   47.0245   37.6661 O.2       2 ALA2        0.0000 
    149 OD1        26.8793   45.8949   38.5409 O.3       3 ASP3        0.0000 
    150 O          27.0525   46.6528   37.2581 O.2       2 ALA2        0.0000 
    151 CA         25.1380   44.0072   40.6984 C.3       6 GLY6        0.0000 
    152 OG         25.3113   44.7652   39.4156 O.2       1 SER1        0.0000 
    153 OG         25.4845   45.5231   38.1328 O.2       1 SER1        0.0000 
    154 CA         25.6578   46.2810   36.8501 C.3       6 GLY6        0.0000 
    155 CZ         23.9165   44.3934   39.0076 C.ar      5 PHE5        0.0000 
    156 OG         24.0898   45.1514   37.7248 O.2       1 SER1        0.0000 
    157 N          24.2630   45.9093   36.4420 N.2       2 ALA2        0.0000 
    158 N          22.6950   44.7796   37.3168 N.2       2 ALA2        0.0000 
    159 CZ         30.5395   48.2500   40.4267 C.ar      5 PHE5        0.0000 
    160 DU         30.7127   49.0079   39.1439 H         7 CUB7        0.0000 
    161 CA         30.8860   49.7659   37.8612 C.3       6 GLY6        0.0000 
    162 OD1        29.1447   47.8782   40.0187 O.3       3 ASP3        0.0000 
    163 O          29.3180   48.6362   38.7359 O.2       2 ALA2        0.0000 
    164 CA         29.4912   49.3941   37.4532 C.3       6 GLY6        0.0000 
    165 OD1        27.7500   47.5065   39.6107 O.3       3 ASP3        0.0000 
    166 O          27.9232   48.2644   38.3279 O.2       2 ALA2        0.0000 
    167 OD1        26.1820   46.3768   40.4855 O.3       3 ASP3        0.0000 
    168 OD1        26.3552   47.1348   39.2027 O.3       3 ASP3        0.0000 
    169 O          26.5285   47.8927   37.9199 O.2       2 ALA2        0.0000 
    170 CZ         24.2675   43.7313   43.9258 C.ar      5 PHE5        0.0000 
    171 CA         24.4407   44.4892   42.6430 C.3       6 GLY6        0.0000 
    172 CA         24.6140   45.2471   41.3602 C.3       6 GLY6        0.0000 
    173 CZ         24.7872   46.0051   40.0774 C.ar      5 PHE5        0.0000 
    174 CZ         24.9605   46.7630   38.7947 C.ar      5 PHE5        0.0000 
    175 O          25.1337   47.5209   37.5119 O.2       2 ALA2        0.0000 
    176 CZ         22.6995   42.6016   44.8005 C.ar      5 PHE5        0.0000 
    177 CZ         22.8727   43.3595   43.5178 C.ar      5 PHE5        0.0000 
    178 CZ         23.0460   44.1175   42.2350 C.ar      5 PHE5        0.0000 
    179 CZ         23.2192   44.8754   40.9522 C.ar      5 PHE5        0.0000 
    180 CZ         23.3925   45.6333   39.6694 C.ar      5 PHE5        0.0000 
    181 CZ         23.5657   46.3913   38.3866 C.ar      5 PHE5        0.0000 
    182 N          23.7390   47.1492   37.1039 N.2       2 ALA2        0.0000 
    183 CZ         21.3047   42.2299   44.3925 C.ar      5 PHE5        0.0000 
    184 CA         30.8902   44.9165   36.7505 C.3       6 GLY6        0.0000 
    185 DU         25.4762   56.5575   44.6514 H         7 CUB7        0.0000 
    186 NZ         23.7349   54.6699   46.8090 N.2       4 LYS4        0.0000 
    187 N          23.9082   55.4278   45.5262 N.2       2 ALA2        0.0000 
    188 O          24.0814   56.1858   44.2434 O.2       2 ALA2        0.0000 
    189 N          22.5134   55.0561   45.1182 N.2       2 ALA2        0.0000 
    190 CA         26.3468   58.1692   45.7213 C.3       6 GLY6        0.0000 
    191 N          24.7788   57.0395   46.5960 N.2       2 ALA2        0.0000 
@<TRIPOS>BOND
@<TRIPOS>SUBSTRUCTURE
     1 SER1       27 GROUP   
     2 ALA2        9 GROUP   
     3 ASP3        7 GROUP   
     4 LYS4       25 GROUP   
     5 PHE5        1 GROUP   
     6 GLY6        4 GROUP   
     7 CUB7        8 GROUP   
@<TRIPOS>SET

