#    Name: 3d7f_YBY_1_INTS_M
#    Modification time : Mon Mar 24 22:48:48 2014

@<TRIPOS>MOLECULE
3d7f_YBY_1_INTS_M
   78     0    15     0     0
SMALL
NO_CHARGES


@<TRIPOS>ATOM
      1 CA         26.7655   49.4195   44.1505 C.3       5 GLC5        0.0000 
      2 CA         24.5760   49.5590   43.6540 C.3      15 GLL5        0.0000 
      3 CA         28.9550   49.2800   44.6470 C.3      10 GLP5        0.0000 
      4 N          25.7280   47.8775   46.1980 N.am      2 SEC2        0.0000 
      5 N          25.8970   46.8270   45.0130 N.am     12 SEL2        0.0000 
      6 N          25.5590   48.9280   47.3830 N.am      7 SEP2        0.0000 
      7 O          25.9930   46.1510   46.1175 O.2       1 ALC1        0.0000 
      8 O          25.8970   46.8270   45.0130 O.2      11 ALL1        0.0000 
      9 O          26.0890   45.4750   47.2220 O.2       6 ALP1        0.0000 
     10 CA         20.1060   46.8635   41.7135 C.3       5 GLC5        0.0000 
     11 CA         20.7040   45.6460   43.0500 C.3      15 GLL5        0.0000 
     12 CA         19.5080   48.0810   40.3770 C.3      10 GLP5        0.0000 
     13 NZ         19.5800   47.4035   46.9395 N.4       3 LYC4        0.0000 
     14 NZ         19.5510   46.7840   45.6430 N.4      13 LYL4        0.0000 
     15 NZ         19.8100   49.3260   48.5210 N.4       8 LYP4        0.0000 
     16 N          18.3100   46.4235   46.3070 N.am      2 SEC2        0.0000 
     17 N          19.5510   46.7840   45.6430 N.am     12 SEL2        0.0000 
     18 N          17.0690   46.0630   46.9710 N.am      7 SEP2        0.0000 
     19 N          19.5800   47.4035   46.9395 N.am      2 SEC2        0.0000 
     20 N          19.6090   48.0230   48.2360 N.am      7 SEP2        0.0000 
     21 NZ         21.8475   45.1690   47.2065 N.4       3 LYC4        0.0000 
     22 NZ         20.5090   44.9200   46.3870 N.4      13 LYL4        0.0000 
     23 NZ         22.4970   45.3950   49.1460 N.4       8 LYP4        0.0000 
     24 N          20.8365   45.0775   47.7380 N.am      2 SEC2        0.0000 
     25 N          20.5090   44.9200   46.3870 N.am     12 SEL2        0.0000 
     26 N          21.1640   45.2350   49.0890 N.am      7 SEP2        0.0000 
     27 N          21.8475   45.1690   47.2065 N.am      2 SEC2        0.0000 
     28 N          23.1860   45.4180   48.0260 N.am      7 SEP2        0.0000 
     29 O          17.4490   46.4360   43.7480 O.2       1 ALC1        0.0000 
     30 O          18.4710   45.3440   43.6440 O.2      11 ALL1        0.0000 
     31 O          16.4270   47.5280   43.8520 O.2       6 ALP1        0.0000 
     32 Zn         17.8445   42.2985   42.7465 Zn        4 ZIC7        0.0000 
     33 Zn         18.2340   43.4600   42.3330 Zn       14 ZIL7        0.0000 
     34 Zn         17.4550   41.1370   43.1600 Zn        9 ZIP7        0.0000 
     35 N          19.1380   43.3535   41.3495 N.am      2 SEC2        0.0000 
     36 N          18.2340   43.4600   42.3330 N.am     12 SEL2        0.0000 
     37 N          20.0420   43.2470   40.3660 N.am      7 SEP2        0.0000 
     38 O          16.5035   46.2390   43.1465 O.2       1 ALC1        0.0000 
     39 O          16.5800   44.9500   42.4410 O.2      11 ALL1        0.0000 
     40 N          18.8750   45.7365   39.5945 N.am      2 SEC2        0.0000 
     41 N          17.7830   45.3780   40.1410 N.am     12 SEL2        0.0000 
     42 N          19.9670   46.0950   39.0480 N.am      7 SEP2        0.0000 
     43 NZ         18.1285   43.2105   38.2530 N.4       3 LYC4        0.0000 
     44 NZ         16.7740   43.7070   39.1590 N.4      13 LYL4        0.0000 
     45 NZ         18.7510   43.1130   36.3070 N.4       8 LYP4        0.0000 
     46 N          17.1755   43.7310   37.8300 N.am      2 SEC2        0.0000 
     47 N          16.7740   43.7070   39.1590 N.am     12 SEL2        0.0000 
     48 N          17.5770   43.7550   36.5010 N.am      7 SEP2        0.0000 
     49 N          18.1285   43.2105   38.2530 N.am      2 SEC2        0.0000 
     50 N          19.4830   42.7140   37.3470 N.am      7 SEP2        0.0000 
     51 N          15.9080   42.7625   38.8875 N.am      2 SEC2        0.0000 
     52 N          15.0420   41.8180   38.6160 N.am      7 SEP2        0.0000 
     53 CA         13.4715   43.1750   41.2085 C.3       5 GLC5        0.0000 
     54 CA         14.6180   45.0170   40.9100 C.3      15 GLL5        0.0000 
     55 CA         12.3250   41.3330   41.5070 C.3      10 GLP5        0.0000 
     56 CA         15.7180   46.9170   38.8175 C.3       5 GLC5        0.0000 
     57 CA         14.8230   46.5510   40.8400 C.3      15 GLL5        0.0000 
     58 CA         16.6130   47.2830   36.7950 C.3      10 GLP5        0.0000 
     59 CA         15.5075   48.0320   41.6690 C.3       5 GLC5        0.0000 
     60 CA         16.1920   49.5130   42.4980 C.3      10 GLP5        0.0000 
     61 NZ         12.7295   48.6325   39.1790 N.4       3 LYC4        0.0000 
     62 NZ         12.9140   46.7320   39.3920 N.4      13 LYL4        0.0000 
     63 NZ         12.5450   50.5330   38.9660 N.4       8 LYP4        0.0000 
     64 N          12.8435   45.5625   38.5720 N.am      2 SEC2        0.0000 
     65 N          12.9140   46.7320   39.3920 N.am     12 SEL2        0.0000 
     66 N          12.7730   44.3930   37.7520 N.am      7 SEP2        0.0000 
     67 NZ         13.0990   49.5545   39.6890 N.4       3 LYC4        0.0000 
     68 NZ         13.6530   48.5760   40.4120 N.4      13 LYL4        0.0000 
     69 N          13.0990   49.5545   39.6890 N.am      2 SEC2        0.0000 
     70 N          13.6530   48.5760   40.4120 N.am     12 SEL2        0.0000 
     71 N          12.5450   50.5330   38.9660 N.am      7 SEP2        0.0000 
     72 CA         26.1535   45.1440   43.5962 C.3       5 GLC5        0.0000 
     73 CA         24.1490   45.2570   44.6440 C.3      15 GLL5        0.0000 
     74 CA         27.9110   44.3850   42.6150 C.3      10 GLP5        0.0000 
     75 CA         20.7500   43.5673   42.7503 C.3       5 GLC5        0.0000 
     76 CA         21.2450   41.8140   41.9090 C.3      10 GLP5        0.0000 
     77 CA         13.4292   46.6460   42.2765 C.3       5 GLC5        0.0000 
     78 CA         12.1380   47.5080   43.6780 C.3      10 GLP5        0.0000 
@<TRIPOS>BOND
@<TRIPOS>SUBSTRUCTURE
     1 ALC1        7 GROUP        1 X    ALC  0     ROOT ALC X 1
     2 SEC2        4 GROUP        1 X    SEC  0     **** SEC X 2
     3 LYC4       13 GROUP        1 X    LYC  0     **** LYC X 4
     4 ZIC7       32 GROUP        1 X    ZIC  0     **** ZIC X 5
     5 GLC5        1 GROUP        1 X    GLC  0     **** GLC X 6
     6 ALP1        9 GROUP        1 Y    ALP  0     ROOT ALP Y 8
     7 SEP2        6 GROUP        1 Y    SEP  0     **** SEP Y 9
     8 LYP4       15 GROUP        1 Y    LYP  0     **** LYP Y 11
     9 ZIP7       34 GROUP        1 Y    ZIP  0     **** ZIP Y 12
    10 GLP5        3 GROUP        1 Y    GLP  0     **** GLP Y 13
    11 ALL1        8 GROUP        1 Z    ALL  0     ROOT ALL Z 15
    12 SEL2        5 GROUP        1 Z    SEL  0     **** SEL Z 16
    13 LYL4       14 GROUP        1 Z    LYL  0     **** LYL Z 18
    14 ZIL7       33 GROUP        1 Z    ZIL  0     **** ZIL Z 19
    15 GLL5        2 GROUP        1 Z    GLL  0     **** GLL Z 20
@<TRIPOS>SET

