#    Name: 3d7f_YBY_1_ligand
#    Modification time : Mon Mar 24 22:48:48 2014

@<TRIPOS>MOLECULE
3d7f_YBY_1_ligand
   40    40     1     0     0
SMALL
NO_CHARGES


@<TRIPOS>ATOM
      1 I18        24.5760   49.5590   43.6540 I         1 YBY1        0.0000 
      2 C17        23.8790   47.5590   43.8950 C.ar      1 YBY1        0.0000 
      3 C16        22.6010   47.2390   43.4270 C.ar      1 YBY1        0.0000 
      4 C19        24.6430   46.5490   44.5110 C.ar      1 YBY1        0.0000 
      5 O20        25.8970   46.8270   45.0130 O.3       1 YBY1        0.0000 
      6 C21        24.1490   45.2570   44.6440 C.ar      1 YBY1        0.0000 
      7 C22        22.8670   44.9620   44.1470 C.ar      1 YBY1        0.0000 
      8 C15        22.0970   45.9470   43.5620 C.ar      1 YBY1        0.0000 
      9 C14        20.7040   45.6460   43.0500 C.3       1 YBY1        0.0000 
     10 C13        19.8060   44.9950   44.1330 C.3       1 YBY1        0.0000 
     11 C23        20.0030   45.6210   45.4870 C.2       1 YBY1        0.0000 
     12 O25        19.5510   46.7840   45.6430 O.co2     1 YBY1        0.0000 
     13 O24        20.5090   44.9200   46.3870 O.co2     1 YBY1        0.0000 
     14 N12        18.4710   45.3440   43.6440 N.am      1 YBY1        0.0000 
     15 C11        17.8270   44.5400   42.7970 C.2       1 YBY1        0.0000 
     16 O26        18.2340   43.4600   42.3330 O.2       1 YBY1        0.0000 
     17 N10        16.5800   44.9500   42.4410 N.am      1 YBY1        0.0000 
     18 C6         15.9050   44.2590   41.3530 C.3       1 YBY1        0.0000 
     19 C7         16.8580   44.4880   40.1630 C.2       1 YBY1        0.0000 
     20 O9         17.7830   45.3780   40.1410 O.co2     1 YBY1        0.0000 
     21 O8         16.7740   43.7070   39.1590 O.co2     1 YBY1        0.0000 
     22 C5         14.6180   45.0170   40.9100 C.3       1 YBY1        0.0000 
     23 C4         14.8230   46.5510   40.8400 C.3       1 YBY1        0.0000 
     24 C2         13.6940   47.3310   40.1690 C.2       1 YBY1        0.0000 
     25 O1         12.9140   46.7320   39.3920 O.co2     1 YBY1        0.0000 
     26 O3         13.6530   48.5760   40.4120 O.co2     1 YBY1        0.0000 
     27 H          22.0268   47.9684   42.9774 H         1 YBY1        0.0000 
     28 H          24.7017   44.5286   45.0939 H         1 YBY1        0.0000 
     29 H          22.5092   43.9978   44.2257 H         1 YBY1        0.0000 
     30 H          20.7626   44.9646   42.1956 H         1 YBY1        0.0000 
     31 H          20.2245   46.5710   42.7151 H         1 YBY1        0.0000 
     32 H          19.9517   43.9708   44.1311 H         1 YBY1        0.0000 
     33 H          18.0747   46.2306   43.9910 H         1 YBY1        0.0000 
     34 H          16.0949   45.7145   42.8959 H         1 YBY1        0.0000 
     35 H          15.7417   43.2788   41.4833 H         1 YBY1        0.0000 
     36 H          13.8200   44.7965   41.6206 H         1 YBY1        0.0000 
     37 H          14.3184   44.6525   39.9262 H         1 YBY1        0.0000 
     38 H          15.7694   46.7500   40.3030 H         1 YBY1        0.0000 
     39 H          14.9620   46.9294   41.8701 H         1 YBY1        0.0000 
     40 H          26.1485   46.0176   45.5438 H         1 YBY1        0.0000 
@<TRIPOS>BOND
     1    2    1 1    
     2    3    2 ar   
     3    4    2 ar   
     4    8    3 ar   
     5   27    3 1    
     6    5    4 1    
     7    6    4 ar   
     8   40    5 1    
     9    7    6 ar   
    10   28    6 1    
    11    8    7 ar   
    12   29    7 1    
    13    9    8 1    
    14   10    9 1    
    15   30    9 1    
    16   31    9 1    
    17   11   10 1    
    18   14   10 1    
    19   32   10 1    
    20   12   11 ar   
    21   13   11 ar   
    22   15   14 am   
    23   33   14 1    
    24   16   15 2    
    25   17   15 am   
    26   18   17 1    
    27   34   17 1    
    28   19   18 1    
    29   22   18 1    
    30   35   18 1    
    31   20   19 ar   
    32   21   19 ar   
    33   23   22 1    
    34   36   22 1    
    35   37   22 1    
    36   24   23 1    
    37   38   23 1    
    38   39   23 1    
    39   25   24 ar   
    40   26   24 ar   
@<TRIPOS>SUBSTRUCTURE
     1 YBY1        1 GROUP   
@<TRIPOS>SET

