#    Name: 2vd1_D28_1_INTS_M
#    Modification time : Tue Mar 25 01:30:52 2014

@<TRIPOS>MOLECULE
2vd1_D28_1_INTS_M
   41     0     3     0     0
SMALL
NO_CHARGES


@<TRIPOS>ATOM
      1 CA         11.8745    7.0435   -3.6075 C.3       1 GLC5        0.0000 
      2 CA         12.6560    5.3960   -2.4900 C.3       3 GLL5        0.0000 
      3 CA         11.0930    8.6910   -4.7250 C.3       2 GLP5        0.0000 
      4 CA         11.1350    6.3775   -1.7400 C.3       1 GLC5        0.0000 
      5 CA          9.6140    7.3590   -0.9900 C.3       2 GLP5        0.0000 
      6 CA         19.5715    5.8175    3.0575 C.3       1 GLC5        0.0000 
      7 CA         17.6610    5.5360    2.4800 C.3       3 GLL5        0.0000 
      8 CA         21.4820    6.0990    3.6350 C.3       2 GLP5        0.0000 
      9 CA         17.5345    7.1185    3.6105 C.3       1 GLC5        0.0000 
     10 CA         17.4080    8.7010    4.7410 C.3       2 GLP5        0.0000 
     11 CA         18.2030    4.6530    4.1005 C.3       1 GLC5        0.0000 
     12 CA         18.7450    3.7700    5.7210 C.3       2 GLP5        0.0000 
     13 CA         20.3895    3.9935    2.5485 C.3       1 GLC5        0.0000 
     14 CA         19.1160    3.2450    1.6680 C.3       3 GLL5        0.0000 
     15 CA         21.6630    4.7420    3.4290 C.3       2 GLP5        0.0000 
     16 CA         18.9305    3.5075    3.6945 C.3       1 GLC5        0.0000 
     17 CA         17.5620    5.0250   -1.3315 C.3       1 GLC5        0.0000 
     18 CA         15.8880    4.3030   -0.6330 C.3       3 GLL5        0.0000 
     19 CA         19.0670    5.3690   -2.5920 C.3       2 GLP5        0.0000 
     20 CA         14.1973    6.7780   -1.5088 C.3       1 GLC5        0.0000 
     21 CA         13.5770    5.1600   -0.9770 C.3       3 GLL5        0.0000 
     22 CA         15.2780    8.2780   -1.2840 C.3       2 GLP5        0.0000 
     23 CA         15.5239    6.5255   -0.7850 C.3       1 GLC5        0.0000 
     24 CA         14.7390    4.6710   -1.4930 C.3       3 GLL5        0.0000 
     25 CA         18.1303    4.1950   -1.5882 C.3       1 GLC5        0.0000 
     26 CA         16.6530    3.1900   -0.9770 C.3       3 GLL5        0.0000 
     27 CA         17.2918    1.8145    0.9317 C.3       1 GLC5        0.0000 
     28 CA         17.3900    0.6080    2.4480 C.3       2 GLP5        0.0000 
     29 CA         18.3750    4.7665   -0.7490 C.3       1 GLC5        0.0000 
     30 CA         18.0590    3.6110    0.9200 C.3       3 GLL5        0.0000 
     31 CA         12.5617    6.3535   -6.3195 C.3       1 GLC5        0.0000 
     32 CA         12.8480    4.6520   -5.9580 C.3       3 GLL5        0.0000 
     33 CA         12.0960    7.9890   -6.0110 C.3       2 GLP5        0.0000 
     34 CA         12.7483    2.9705   -5.6855 C.3       1 GLC5        0.0000 
     35 CA         12.4690    1.2230   -4.7430 C.3       2 GLP5        0.0000 
     36 CA         17.8948    2.1562    1.9145 C.3       1 GLC5        0.0000 
     37 CA         11.5548    6.2372   -6.0578 C.3       1 GLC5        0.0000 
     38 CA         11.4960    4.4950   -5.6150 C.3       3 GLL5        0.0000 
     39 CA         11.7413    2.8542   -5.4238 C.3       1 GLC5        0.0000 
     40 CA         11.8330    6.3382   -7.0687 C.3       1 GLC5        0.0000 
     41 CA         10.8900    4.6090   -7.9560 C.3       3 GLL5        0.0000 
@<TRIPOS>BOND
@<TRIPOS>SUBSTRUCTURE
     1 GLC5        1 GROUP        1 X    GLC  0     ROOT GLC X 6
     2 GLP5        3 GROUP        1 Y    GLP  0     ROOT GLP Y 13
     3 GLL5        2 GROUP        1 Z    GLL  0     ROOT GLL Z 20
@<TRIPOS>SET

