#    Name: 2vd1_D28_1_ligand
#    Modification time : Tue Mar 25 01:30:52 2014

@<TRIPOS>MOLECULE
2vd1_D28_1_ligand
   36    38     1     0     0
SMALL
NO_CHARGES


@<TRIPOS>ATOM
      1 C1         14.7390    4.6710   -1.4930 C.2       1 D281200     0.0000 
      2 C2         15.8880    4.3030   -0.6330 C.ar      1 D281200     0.0000 
      3 N3         14.8590    4.5200   -2.8080 N.2       1 D281200     0.0000 
      4 C4         13.5770    5.1600   -0.9770 C.2       1 D281200     0.0000 
      5 C5         16.2260    5.0590    0.4910 C.ar      1 D281200     0.0000 
      6 C6         16.6530    3.1900   -0.9770 C.ar      1 D281200     0.0000 
      7 C7         13.8870    4.8170   -3.6490 C.2       1 D281200     0.0000 
      8 S8         12.6560    5.3960   -2.4900 S.3       1 D281200     0.0000 
      9 C9         17.3070    4.7170    1.2680 C.ar      1 D281200     0.0000 
     10 C10        17.7340    2.8520   -0.1920 C.ar      1 D281200     0.0000 
     11 N11        13.9100    4.6900   -5.0410 N.pl3     1 D281200     0.0000 
     12 C12        18.0590    3.6110    0.9200 C.ar      1 D281200     0.0000 
     13 C13        17.6610    5.5360    2.4800 C.3       1 D281200     0.0000 
     14 C14        12.8480    4.6520   -5.9580 C.ar      1 D281200     0.0000 
     15 F15        19.1160    3.2450    1.6680 F         1 D281200     0.0000 
     16 C16        13.2070    4.7840   -7.2980 C.ar      1 D281200     0.0000 
     17 C17        11.4960    4.4950   -5.6150 C.ar      1 D281200     0.0000 
     18 C18        12.2500    4.7660   -8.2970 C.ar      1 D281200     0.0000 
     19 C19        10.5310    4.4760   -6.5940 C.ar      1 D281200     0.0000 
     20 C20        10.8900    4.6090   -7.9560 C.ar      1 D281200     0.0000 
     21 O21        12.6260    4.9010   -9.5980 O.3       1 D281200     0.0000 
     22 C22         9.8830    4.5890   -9.0440 C.2       1 D281200     0.0000 
     23 O23         9.5450    5.7440   -9.6630 O.co2     1 D281200     0.0000 
     24 O24         9.3660    3.5390   -9.4000 O.co2     1 D281200     0.0000 
     25 H          13.1674    5.3733   -0.2761 H         1 D281200     0.0000 
     26 H          15.6504    5.8843    0.7339 H         1 D281200     0.0000 
     27 H          16.4095    2.6361   -1.8024 H         1 D281200     0.0000 
     28 H          18.3088    2.0261   -0.4324 H         1 D281200     0.0000 
     29 H          14.9081    4.6074   -5.4858 H         1 D281200     0.0000 
     30 H          14.2066    4.8971   -7.5454 H         1 D281200     0.0000 
     31 H          11.2389    4.3946   -4.6222 H         1 D281200     0.0000 
     32 H           9.5359    4.3652   -6.3526 H         1 D281200     0.0000 
     33 H          18.4663    5.1748    2.9501 H         1 D281200     0.0000 
     34 H          17.8628    6.4857    2.2405 H         1 D281200     0.0000 
     35 H          16.9159    5.5539    3.1467 H         1 D281200     0.0000 
     36 H          11.8072    5.2256  -10.0716 H         1 D281200     0.0000 
@<TRIPOS>BOND
     1    2    1 1    
     2    3    1 1    
     3    4    1 2    
     4    5    2 ar   
     5    6    2 ar   
     6    7    3 2    
     7    8    4 1    
     8   25    4 1    
     9    9    5 ar   
    10   26    5 1    
    11   10    6 ar   
    12   27    6 1    
    13    8    7 1    
    14   11    7 1    
    15   12    9 ar   
    16   13    9 1    
    17   12   10 ar   
    18   28   10 1    
    19   14   11 1    
    20   29   11 1    
    21   15   12 1    
    22   33   13 1    
    23   34   13 1    
    24   35   13 1    
    25   16   14 ar   
    26   17   14 ar   
    27   18   16 ar   
    28   30   16 1    
    29   19   17 ar   
    30   31   17 1    
    31   20   18 ar   
    32   21   18 1    
    33   20   19 ar   
    34   32   19 1    
    35   22   20 1    
    36   36   21 1    
    37   23   22 ar   
    38   24   22 ar   
@<TRIPOS>SUBSTRUCTURE
     1 D281200     1 GROUP   
@<TRIPOS>SET

