#    Name: 1x8j_AE2_1_INTS_M
#    Modification time : Mon Apr  7 15:07:32 2014

@<TRIPOS>MOLECULE
1x8j_AE2_1_INTS_M
   34     0     3     0     0
SMALL
NO_CHARGES


@<TRIPOS>ATOM
      1 CA         25.0420   -7.9445   39.0675 C.3       1 GLC5        0.0000 
      2 CA         24.3850   -8.1060   40.7770 C.3       3 GLL5        0.0000 
      3 CA         25.6990   -7.7830   37.3580 C.3       2 GLP5        0.0000 
      4 CA         26.2140   -7.0985   40.3385 C.3       1 GLC5        0.0000 
      5 CA         28.0430   -6.0910   39.9000 C.3       2 GLP5        0.0000 
      6 CA         22.5125   -7.7920   44.4785 C.3       1 GLC5        0.0000 
      7 CA         22.6790   -9.2060   42.9830 C.3       3 GLL5        0.0000 
      8 CA         22.3460   -6.3780   45.9740 C.3       2 GLP5        0.0000 
      9 CA         21.3645   -8.0295   44.9605 C.3       1 GLC5        0.0000 
     10 CA         20.3830   -9.6810   43.9470 C.3       3 GLL5        0.0000 
     11 CA         19.6690   -8.9045   39.4180 C.3       1 GLC5        0.0000 
     12 CA         19.8580   -7.4110   40.7930 C.3       3 GLL5        0.0000 
     13 CA         19.4800  -10.3980   38.0430 C.3       2 GLP5        0.0000 
     14 CA         15.1280   -7.0130   44.7925 C.3       1 GLC5        0.0000 
     15 CA         16.0410   -8.3040   43.7020 C.3       3 GLL5        0.0000 
     16 CA         14.2150   -5.7220   45.8830 C.3       2 GLP5        0.0000 
     17 CA         15.1335   -8.6235   40.2245 C.3       1 GLC5        0.0000 
     18 CA         17.0970   -8.9470   40.7530 C.3       3 GLL5        0.0000 
     19 CA         13.1700   -8.3000   39.6960 C.3       2 GLP5        0.0000 
     20 CA         18.2885   -9.6725   39.3980 C.3       1 GLC5        0.0000 
     21 CA         20.6555  -10.0665   39.3060 C.3       1 GLC5        0.0000 
     22 CA         21.8310   -9.7350   40.5690 C.3       3 GLL5        0.0000 
     23 CA         25.7350   -9.8425   40.2080 C.3       1 GLC5        0.0000 
     24 CA         26.7730  -11.2440   39.0160 C.3       2 GLP5        0.0000 
     25 CA         21.0023   -9.5928   45.7673 C.3       1 GLC5        0.0000 
     26 CA         21.7460  -10.2660   43.6460 C.3       3 GLL5        0.0000 
     27 CA         20.9400   -9.2120   47.7380 C.3       2 GLP5        0.0000 
     28 CA         23.4215  -11.5672   43.6313 C.3       1 GLC5        0.0000 
     29 CA         24.2780  -13.2550   44.0260 C.3       2 GLP5        0.0000 
     30 CA         19.4455   -5.3020   40.5805 C.3       1 GLC5        0.0000 
     31 CA         19.7380   -3.4930   40.1970 C.3       2 GLP5        0.0000 
     32 CA         17.2744   -7.3749   45.0135 C.3       1 GLC5        0.0000 
     33 CA         18.3140   -8.4700   43.0420 C.3       3 GLL5        0.0000 
     34 CA         17.6500   -6.1540   46.4870 C.3       2 GLP5        0.0000 
@<TRIPOS>BOND
@<TRIPOS>SUBSTRUCTURE
     1 GLC5        1 GROUP        1 X    GLC  0     ROOT GLC X 6
     2 GLP5        3 GROUP        1 Y    GLP  0     ROOT GLP Y 13
     3 GLL5        2 GROUP        1 Z    GLL  0     ROOT GLL Z 20
@<TRIPOS>SET

