#    Name: 1x8j_AE2_1_ligand
#    Modification time : Mon Apr  7 15:07:32 2014

@<TRIPOS>MOLECULE
1x8j_AE2_1_ligand
   51    54     1     0     0
SMALL
NO_CHARGES


@<TRIPOS>ATOM
      1 C1         22.9800   -7.5390   41.0900 C.3       1 AE2400      0.0000 
      2 C2         24.3850   -8.1060   40.7770 C.3       1 AE2400      0.0000 
      3 C3         25.0090   -8.7760   42.0230 C.3       1 AE2400      0.0000 
      4 O3         25.3520   -7.7130   42.9430 O.3       1 AE2400      0.0000 
      5 C4         24.0890   -9.7800   42.6710 C.3       1 AE2400      0.0000 
      6 C5         22.6790   -9.2060   42.9830 C.3       1 AE2400      0.0000 
      7 C6         21.7460  -10.2660   43.6460 C.3       1 AE2400      0.0000 
      8 C7         20.3830   -9.6810   43.9470 C.3       1 AE2400      0.0000 
      9 C8         19.6740   -9.0990   42.6990 C.3       1 AE2400      0.0000 
     10 C9         20.5900   -8.0130   42.0410 C.3       1 AE2400      0.0000 
     11 C10        22.0060   -8.6220   41.6670 C.3       1 AE2400      0.0000 
     12 C11        19.8580   -7.4110   40.7930 C.3       1 AE2400      0.0000 
     13 C12        18.4480   -6.8110   41.1350 C.3       1 AE2400      0.0000 
     14 C13        17.5610   -7.8710   41.8020 C.3       1 AE2400      0.0000 
     15 C14        18.3140   -8.4700   43.0420 C.3       1 AE2400      0.0000 
     16 C15        17.1990   -9.3050   43.7140 C.3       1 AE2400      0.0000 
     17 C16        16.0410   -8.3040   43.7020 C.3       1 AE2400      0.0000 
     18 C17        16.2940   -7.3780   42.5030 C.2       1 AE2400      0.0000 
     19 O17        15.6040   -6.4500   42.2020 O.2       1 AE2400      0.0000 
     20 C18        17.0970   -8.9470   40.7530 C.3       1 AE2400      0.0000 
     21 C19        21.8310   -9.7350   40.5690 C.3       1 AE2400      0.0000 
     22 H          22.5440   -7.1344   40.1760 H         1 AE2400      0.0000 
     23 H          23.0719   -6.7335   41.8194 H         1 AE2400      0.0000 
     24 H          25.0297   -7.2954   40.4491 H         1 AE2400      0.0000 
     25 H          24.3015   -8.8419   39.9822 H         1 AE2400      0.0000 
     26 H          25.9149   -9.2786   41.6934 H         1 AE2400      0.0000 
     27 H          24.5281  -10.1359   43.6128 H         1 AE2400      0.0000 
     28 H          23.9645  -10.6514   42.0139 H         1 AE2400      0.0000 
     29 H          22.7920   -8.3751   43.6746 H         1 AE2400      0.0000 
     30 H          22.2177  -10.6072   44.5655 H         1 AE2400      0.0000 
     31 H          21.6489  -11.1083   42.9638 H         1 AE2400      0.0000 
     32 H          20.4811   -8.8792   44.6926 H         1 AE2400      0.0000 
     33 H          19.7355  -10.4562   44.3808 H         1 AE2400      0.0000 
     34 H          19.5315   -9.8837   41.9794 H         1 AE2400      0.0000 
     35 H          20.7407   -7.2242   42.7594 H         1 AE2400      0.0000 
     36 H          19.7313   -8.1963   40.0480 H         1 AE2400      0.0000 
     37 H          20.4790   -6.6222   40.3688 H         1 AE2400      0.0000 
     38 H          17.9881   -6.4741   40.2154 H         1 AE2400      0.0000 
     39 H          18.5869   -5.9740   41.8064 H         1 AE2400      0.0000 
     40 H          18.4696   -7.5821   43.7048 H         1 AE2400      0.0000 
     41 H          17.4741   -9.5266   44.6995 H         1 AE2400      0.0000 
     42 H          16.9690  -10.1299   43.1118 H         1 AE2400      0.0000 
     43 H          16.0503   -7.7314   44.6031 H         1 AE2400      0.0000 
     44 H          15.1179   -8.8224   43.5637 H         1 AE2400      0.0000 
     45 H          17.8739   -9.4225   40.3403 H         1 AE2400      0.0000 
     46 H          16.5141   -9.6446   41.1696 H         1 AE2400      0.0000 
     47 H          16.5743   -8.5362   40.0060 H         1 AE2400      0.0000 
     48 H          22.7022  -10.1674   40.3363 H         1 AE2400      0.0000 
     49 H          21.2147  -10.4619   40.8719 H         1 AE2400      0.0000 
     50 H          21.4522   -9.3640   39.7211 H         1 AE2400      0.0000 
     51 H          26.2880   -7.9134   43.2325 H         1 AE2400      0.0000 
@<TRIPOS>BOND
     1    2    1 1    
     2   11    1 1    
     3   22    1 1    
     4   23    1 1    
     5    3    2 1    
     6   24    2 1    
     7   25    2 1    
     8    4    3 1    
     9    5    3 1    
    10   26    3 1    
    11   51    4 1    
    12    6    5 1    
    13   27    5 1    
    14   28    5 1    
    15    7    6 1    
    16   11    6 1    
    17   29    6 1    
    18    8    7 1    
    19   30    7 1    
    20   31    7 1    
    21    9    8 1    
    22   32    8 1    
    23   33    8 1    
    24   10    9 1    
    25   15    9 1    
    26   34    9 1    
    27   11   10 1    
    28   12   10 1    
    29   35   10 1    
    30   21   11 1    
    31   13   12 1    
    32   36   12 1    
    33   37   12 1    
    34   14   13 1    
    35   38   13 1    
    36   39   13 1    
    37   15   14 1    
    38   18   14 1    
    39   20   14 1    
    40   16   15 1    
    41   40   15 1    
    42   17   16 1    
    43   41   16 1    
    44   42   16 1    
    45   18   17 1    
    46   43   17 1    
    47   44   17 1    
    48   19   18 2    
    49   45   20 1    
    50   46   20 1    
    51   47   20 1    
    52   48   21 1    
    53   49   21 1    
    54   50   21 1    
@<TRIPOS>SUBSTRUCTURE
     1 AE2400      1 GROUP   
@<TRIPOS>SET

