#    Name: 3ps3_L53_1_INTS_M
#    Modification time : Tue Mar 25 08:26:00 2014

@<TRIPOS>MOLECULE
3ps3_L53_1_INTS_M
   77     0    12     0     0
SMALL
NO_CHARGES


@<TRIPOS>ATOM
      1 Zn         27.2395  -19.2860    2.9555 Zn        3 ZIC7        0.0000 
      2 Zn         26.4540  -19.9170    3.0460 Zn       11 ZIL7        0.0000 
      3 Zn         28.0250  -18.6550    2.8650 Zn        7 ZIP7        0.0000 
      4 N          25.5515  -19.7610    4.0205 N.am      2 SEC2        0.0000 
      5 N          26.4540  -19.9170    3.0460 N.am     10 SEL2        0.0000 
      6 N          24.6490  -19.6050    4.9950 N.am      6 SEP2        0.0000 
      7 N          28.1725  -21.7270    0.8310 N.am      2 SEC2        0.0000 
      8 N          27.7410  -21.4760    2.0390 N.am     10 SEL2        0.0000 
      9 N          28.6040  -21.9780   -0.3770 N.am      6 SEP2        0.0000 
     10 Zn         28.3890  -19.6545    2.4855 Zn        3 ZIC7        0.0000 
     11 Zn         28.7530  -20.6540    2.1060 Zn       11 ZIL7        0.0000 
     12 O          24.6690  -20.8345    4.3255 O.2       1 ALC1        0.0000 
     13 O          24.6890  -22.0640    3.6560 O.2       9 ALL1        0.0000 
     14 O          24.6490  -19.6050    4.9950 O.2       5 ALP1        0.0000 
     15 N          26.4235  -24.9200    3.5015 N.am      2 SEC2        0.0000 
     16 N          25.0890  -24.3520    3.7630 N.am     10 SEL2        0.0000 
     17 N          27.7580  -25.4880    3.2400 N.am      6 SEP2        0.0000 
     18 CA         26.2770  -23.3350    5.5345 C.3       4 GLC5        0.0000 
     19 CA         24.0410  -23.4000    5.6580 C.3      12 GLL5        0.0000 
     20 CA         28.5130  -23.2700    5.4110 C.3       8 GLP5        0.0000 
     21 CA         16.3565  -23.0760   13.3690 C.3       4 GLC5        0.0000 
     22 CA         18.2140  -22.4170   14.3270 C.3      12 GLL5        0.0000 
     23 CA         14.4990  -23.7350   12.4110 C.3       8 GLP5        0.0000 
     24 CA         18.9730  -20.5130   14.8610 C.3       4 GLC5        0.0000 
     25 CA         19.7320  -18.6090   15.3950 C.3       8 GLP5        0.0000 
     26 CA         20.6310  -22.1285    6.4280 C.3       4 GLC5        0.0000 
     27 CA         22.5790  -22.3150    7.2510 C.3      12 GLL5        0.0000 
     28 CA         18.6830  -21.9420    5.6050 C.3       8 GLP5        0.0000 
     29 CA         22.2655  -18.9045    1.1960 C.3       4 GLC5        0.0000 
     30 CA         23.6850  -20.1320    1.7600 C.3      12 GLL5        0.0000 
     31 CA         20.8460  -17.6770    0.6320 C.3       8 GLP5        0.0000 
     32 CA         24.7035  -18.3045    2.1815 C.3       4 GLC5        0.0000 
     33 CA         25.7220  -16.4770    2.6030 C.3       8 GLP5        0.0000 
     34 CA         25.4610  -24.6337    7.9285 C.3       4 GLC5        0.0000 
     35 CA         24.1910  -24.4990    6.5270 C.3      12 GLL5        0.0000 
     36 CA         27.0650  -24.7740    8.7130 C.3       8 GLP5        0.0000 
     37 CA         24.0200  -26.2172    6.5035 C.3       4 GLC5        0.0000 
     38 CA         24.1830  -27.9410    5.8630 C.3       8 GLP5        0.0000 
     39 CA         23.1620  -25.6095    9.1555 C.3       4 GLC5        0.0000 
     40 CA         23.5230  -24.4880    7.7610 C.3      12 GLL5        0.0000 
     41 CA         23.1970  -27.2730   10.3690 C.3       8 GLP5        0.0000 
     42 CA         24.1632  -24.0187    9.8630 C.3       4 GLC5        0.0000 
     43 CA         22.7310  -23.4040    8.1230 C.3      12 GLL5        0.0000 
     44 CA         25.9530  -24.6420   10.9460 C.3       8 GLP5        0.0000 
     45 CA         20.4817  -23.8008    8.9935 C.3       4 GLC5        0.0000 
     46 CA         22.0160  -23.3870    9.4370 C.3      12 GLL5        0.0000 
     47 CA         18.5900  -24.2060    9.2070 C.3       8 GLP5        0.0000 
     48 CA         22.4490  -25.3300   10.1662 C.3       4 GLC5        0.0000 
     49 CA         19.7845  -23.8027   10.1608 C.3       4 GLC5        0.0000 
     50 CA         21.3860  -23.3870   10.4900 C.3      12 GLL5        0.0000 
     51 CA         22.1385  -24.0273   12.4633 C.3       4 GLC5        0.0000 
     52 CA         23.2980  -24.6550   13.8120 C.3       8 GLP5        0.0000 
     53 CA         21.4905  -21.5018   10.5813 C.3       4 GLC5        0.0000 
     54 CA         20.5720  -23.4120   11.7390 C.3      12 GLL5        0.0000 
     55 CA         22.0020  -19.6040   10.0480 C.3       8 GLP5        0.0000 
     56 CA         19.3560  -22.1247   10.9597 C.3       4 GLC5        0.0000 
     57 CA         17.7330  -20.8500   10.8050 C.3       8 GLP5        0.0000 
     58 CA         20.8280  -22.7212   14.0312 C.3       4 GLC5        0.0000 
     59 CA         21.4270  -22.0150   15.8160 C.3       8 GLP5        0.0000 
     60 CA         20.0245  -22.4842   14.9830 C.3       4 GLC5        0.0000 
     61 CA         18.2845  -21.8959   12.3251 C.3       4 GLC5        0.0000 
     62 CA         15.6030  -23.4280   14.9590 C.3       4 GLC5        0.0000 
     63 CA         17.3980  -22.5110   15.4690 C.3      12 GLL5        0.0000 
     64 CA         13.8110  -23.7550   14.0660 C.3       8 GLP5        0.0000 
     65 CA         19.4110  -22.5580   15.8340 C.3       4 GLC5        0.0000 
     66 CA         20.0158  -23.3702   15.5565 C.3       4 GLC5        0.0000 
     67 CA         19.0110  -24.6800   14.7290 C.3      12 GLL5        0.0000 
     68 CA         18.9997  -25.3071   12.7016 C.3       4 GLC5        0.0000 
     69 CA         18.7650  -26.5410   11.3570 C.3       8 GLP5        0.0000 
     70 CA         21.2662  -24.3641   13.9291 C.3       4 GLC5        0.0000 
     71 CA         19.8860  -23.4430   12.7540 C.3      12 GLL5        0.0000 
     72 CA         23.9390  -20.7200    6.9832 C.3       4 GLC5        0.0000 
     73 CA         24.9660  -19.1220    7.3320 C.3       8 GLP5        0.0000 
     74 CA         21.7800  -20.5105    6.1217 C.3       4 GLC5        0.0000 
     75 CA         23.2450  -22.3210    6.0180 C.3      12 GLL5        0.0000 
     76 CA         20.6480  -18.7030    5.6090 C.3       8 GLP5        0.0000 
     77 CA         22.2391  -21.2296    9.0317 C.3       4 GLC5        0.0000 
@<TRIPOS>BOND
@<TRIPOS>SUBSTRUCTURE
     1 ALC1       12 GROUP        1 X    ALC  0     ROOT ALC X 1
     2 SEC2        4 GROUP        1 X    SEC  0     **** SEC X 2
     3 ZIC7        1 GROUP        1 X    ZIC  0     **** ZIC X 5
     4 GLC5       18 GROUP        1 X    GLC  0     **** GLC X 6
     5 ALP1       14 GROUP        1 Y    ALP  0     ROOT ALP Y 8
     6 SEP2        6 GROUP        1 Y    SEP  0     **** SEP Y 9
     7 ZIP7        3 GROUP        1 Y    ZIP  0     **** ZIP Y 12
     8 GLP5       20 GROUP        1 Y    GLP  0     **** GLP Y 13
     9 ALL1       13 GROUP        1 Z    ALL  0     ROOT ALL Z 15
    10 SEL2        5 GROUP        1 Z    SEL  0     **** SEL Z 16
    11 ZIL7        2 GROUP        1 Z    ZIL  0     **** ZIL Z 19
    12 GLL5       19 GROUP        1 Z    GLL  0     **** GLL Z 20
@<TRIPOS>SET

