#    Name: 3ps3_L53_1_ligand
#    Modification time : Tue Mar 25 08:26:00 2014

@<TRIPOS>MOLECULE
3ps3_L53_1_ligand
   45    46     1     0     0
SMALL
NO_CHARGES


@<TRIPOS>ATOM
      1 O01        26.4540  -19.9170    3.0460 O.2       1 L53401      0.0000 
      2 C02        26.5150  -21.0580    2.6210 C.2       1 L53401      0.0000 
      3 N03        27.7410  -21.4760    2.0390 N.2       1 L53401      0.0000 
      4 O04        28.7530  -20.6540    2.1060 O.2       1 L53401      0.0000 
      5 C05        25.2970  -21.8390    2.4290 C.3       1 L53401      0.0000 
      6 N06        24.6890  -22.0640    3.6560 N.am      1 L53401      0.0000 
      7 C07        24.7210  -23.3390    4.3320 C.2       1 L53401      0.0000 
      8 O08        25.0890  -24.3520    3.7630 O.2       1 L53401      0.0000 
      9 C09        24.0410  -23.4000    5.6580 C.ar      1 L53401      0.0000 
     10 C10        24.1910  -24.4990    6.5270 C.ar      1 L53401      0.0000 
     11 C11        23.5230  -24.4880    7.7610 C.ar      1 L53401      0.0000 
     12 C12        22.7310  -23.4040    8.1230 C.ar      1 L53401      0.0000 
     13 C13        22.0160  -23.3870    9.4370 C.1       1 L53401      0.0000 
     14 C14        21.3860  -23.3870   10.4900 C.1       1 L53401      0.0000 
     15 C15        20.5720  -23.4120   11.7390 C.1       1 L53401      0.0000 
     16 C16        19.8860  -23.4430   12.7540 C.1       1 L53401      0.0000 
     17 C17        19.0300  -23.4900   13.9730 C.ar      1 L53401      0.0000 
     18 C18        18.2140  -22.4170   14.3270 C.ar      1 L53401      0.0000 
     19 C19        17.3980  -22.5110   15.4690 C.ar      1 L53401      0.0000 
     20 C20        17.3920  -23.6910   16.2350 C.ar      1 L53401      0.0000 
     21 N21        16.5520  -23.7980   17.3920 N.pl3     1 L53401      0.0000 
     22 C22        18.1980  -24.7710   15.8650 C.ar      1 L53401      0.0000 
     23 C23        19.0110  -24.6800   14.7290 C.ar      1 L53401      0.0000 
     24 C24        22.5790  -22.3150    7.2510 C.ar      1 L53401      0.0000 
     25 C25        23.2450  -22.3210    6.0180 C.ar      1 L53401      0.0000 
     26 C26        24.4400  -21.3470    1.3980 C.3       1 L53401      0.0000 
     27 O27        23.7160  -22.2940    0.7750 O.3       1 L53401      0.0000 
     28 C28        23.6850  -20.1320    1.7600 C.3       1 L53401      0.0000 
     29 H          25.6814  -22.8730    2.0639 H         1 L53401      0.0000 
     30 H          24.1783  -21.2886    4.1316 H         1 L53401      0.0000 
     31 H          24.7752  -25.2871    6.2614 H         1 L53401      0.0000 
     32 H          23.6235  -25.2899    8.3981 H         1 L53401      0.0000 
     33 H          18.2043  -21.5638   13.7637 H         1 L53401      0.0000 
     34 H          16.8085  -21.7208   15.7427 H         1 L53401      0.0000 
     35 H          16.6431  -24.6388   17.9257 H         1 L53401      0.0000 
     36 H          15.9453  -23.0229   17.5685 H         1 L53401      0.0000 
     37 H          18.1947  -25.6302   16.4246 H         1 L53401      0.0000 
     38 H          19.5914  -25.4722   14.4445 H         1 L53401      0.0000 
     39 H          21.9880  -21.5254    7.5135 H         1 L53401      0.0000 
     40 H          23.1399  -21.5200    5.3812 H         1 L53401      0.0000 
     41 H          25.2039  -20.9352    0.5767 H         1 L53401      0.0000 
     42 H          24.2927  -19.3711    1.9875 H         1 L53401      0.0000 
     43 H          23.0967  -19.8238    1.0124 H         1 L53401      0.0000 
     44 H          23.0956  -20.2836    2.5534 H         1 L53401      0.0000 
     45 H          22.9106  -22.4259    1.3529 H         1 L53401      0.0000 
@<TRIPOS>BOND
     1    2    1 2    
     2    3    2 1    
     3    5    2 1    
     4    4    3 2    
     5    6    5 1    
     6   26    5 1    
     7   29    5 1    
     8    7    6 am   
     9   30    6 1    
    10    8    7 2    
    11    9    7 1    
    12   10    9 ar   
    13   25    9 ar   
    14   11   10 ar   
    15   31   10 1    
    16   12   11 ar   
    17   32   11 1    
    18   13   12 1    
    19   24   12 ar   
    20   14   13 3    
    21   15   14 1    
    22   16   15 3    
    23   17   16 1    
    24   18   17 ar   
    25   23   17 ar   
    26   19   18 ar   
    27   33   18 1    
    28   20   19 ar   
    29   34   19 1    
    30   21   20 1    
    31   22   20 ar   
    32   35   21 1    
    33   36   21 1    
    34   23   22 ar   
    35   37   22 1    
    36   38   23 1    
    37   25   24 ar   
    38   39   24 1    
    39   40   25 1    
    40   27   26 1    
    41   28   26 1    
    42   41   26 1    
    43   45   27 1    
    44   42   28 1    
    45   43   28 1    
    46   44   28 1    
@<TRIPOS>SUBSTRUCTURE
     1 L53401      1 GROUP   
@<TRIPOS>SET

