#    Name: 4b8m_VX6_1_INTS_M
#    Modification time : Tue Mar 25 07:05:47 2014

@<TRIPOS>MOLECULE
4b8m_VX6_1_INTS_M
   66     0     9     0     0
SMALL
NO_CHARGES


@<TRIPOS>ATOM
      1 CA         16.2000   -3.8685    5.7890 C.3       3 GLC5        0.0000 
      2 CA         15.8110   -4.0970    3.7480 C.3       9 GLL5        0.0000 
      3 CA         16.5890   -3.6400    7.8300 C.3       6 GLP5        0.0000 
      4 CA         12.7310    1.7470    2.9635 C.3       3 GLC5        0.0000 
      5 CA         12.4810    0.1700    4.3610 C.3       9 GLL5        0.0000 
      6 CA         12.9810    3.3240    1.5660 C.3       6 GLP5        0.0000 
      7 O          13.8040    0.5775    6.1050 O.2       1 ALC1        0.0000 
      8 O          12.7230    1.1170    5.2740 O.2       7 ALL1        0.0000 
      9 O          14.8850    0.0380    6.9360 O.2       4 ALP1        0.0000 
     10 CA         12.7735    1.7590    7.3130 C.3       3 GLC5        0.0000 
     11 CA         11.9750    2.2160    5.4820 C.3       9 GLL5        0.0000 
     12 CA         13.5720    1.3020    9.1440 C.3       6 GLP5        0.0000 
     13 CA          9.1330    4.9045    3.5870 C.3       3 GLC5        0.0000 
     14 CA          9.1500    4.4160    5.4050 C.3       9 GLL5        0.0000 
     15 CA          9.1160    5.3930    1.7690 C.3       6 GLP5        0.0000 
     16 CA         10.6555    5.5780    4.6755 C.3       3 GLC5        0.0000 
     17 CA         12.1610    6.7400    3.9460 C.3       6 GLP5        0.0000 
     18 CA          9.2115    4.8760    7.4735 C.3       3 GLC5        0.0000 
     19 CA          9.2730    5.3360    9.5420 C.3       6 GLP5        0.0000 
     20 CA          8.5055    6.2300    5.6860 C.3       3 GLC5        0.0000 
     21 CA          7.8610    8.0440    5.9670 C.3       6 GLP5        0.0000 
     22 CA          9.4055    2.8965    6.9125 C.3       3 GLC5        0.0000 
     23 CA          9.6610    1.3770    8.4200 C.3       6 GLP5        0.0000 
     24 CA          8.4175   -0.2945    0.4240 C.3       3 GLC5        0.0000 
     25 CA          9.4010   -1.0510    2.1830 C.3       9 GLL5        0.0000 
     26 CA          7.4340    0.4620   -1.3350 C.3       6 GLP5        0.0000 
     27 CA          8.8950   -2.5335    3.7595 C.3       3 GLC5        0.0000 
     28 CA          8.3890   -4.0160    5.3360 C.3       6 GLP5        0.0000 
     29 CA          8.4280   -2.1260    4.9675 C.3       3 GLC5        0.0000 
     30 CA          8.4670   -0.2360    4.5990 C.3       9 GLL5        0.0000 
     31 CA          8.3365    1.5155    6.7105 C.3       3 GLC5        0.0000 
     32 CA          7.0120    1.6540    5.0010 C.3       9 GLL5        0.0000 
     33 CA          7.5865    0.7875    0.7050 C.3       3 GLC5        0.0000 
     34 CA          7.7390    1.1130    2.7450 C.3       9 GLL5        0.0000 
     35 N           3.9670    4.8405    4.6195 N.am      2 SEC2        0.0000 
     36 N           5.1360    3.8890    4.7850 N.am      8 SEL2        0.0000 
     37 N           2.7980    5.7920    4.4540 N.am      5 SEP2        0.0000 
     38 CA          5.9235    2.9885    8.9070 C.3       3 GLC5        0.0000 
     39 CA          5.1000    3.9400    7.2120 C.3       9 GLL5        0.0000 
     40 CA          6.7470    2.0370   10.6020 C.3       6 GLP5        0.0000 
     41 CA          3.1115    4.0005    9.1820 C.3       3 GLC5        0.0000 
     42 CA          3.6880    4.5170    7.3050 C.3       9 GLL5        0.0000 
     43 CA          2.5350    3.4840   11.0590 C.3       6 GLP5        0.0000 
     44 CA          4.4715    6.5925    5.4170 C.3       3 GLC5        0.0000 
     45 CA          4.9010    5.4560    7.2910 C.3       9 GLL5        0.0000 
     46 CA          4.0420    7.7290    3.5430 C.3       6 GLP5        0.0000 
     47 CA          6.3810    6.7500    6.6290 C.3       3 GLC5        0.0000 
     48 CA         14.3652   -3.2225    5.0328 C.3       3 GLC5        0.0000 
     49 CA         15.5540   -2.6450    3.3190 C.3       9 GLL5        0.0000 
     50 CA         13.0480   -3.0740    6.5320 C.3       6 GLP5        0.0000 
     51 CA         13.6493    0.0567    1.9452 C.3       3 GLC5        0.0000 
     52 CA         13.2320   -1.6850    3.0290 C.3       9 GLL5        0.0000 
     53 CA         13.9320    1.3050    0.3860 C.3       6 GLP5        0.0000 
     54 CA         12.9859   -1.7924    5.2324 C.3       3 GLC5        0.0000 
     55 CA         10.8340    0.4453    1.3417 C.3       3 GLC5        0.0000 
     56 CA         11.0150   -0.9220    2.8860 C.3       9 GLL5        0.0000 
     57 CA         11.4600    1.8770    0.1490 C.3       6 GLP5        0.0000 
     58 CA         12.1635    2.8250    3.4285 C.3       3 GLC5        0.0000 
     59 CA         10.7170    2.4360    5.1000 C.3       9 GLL5        0.0000 
     60 CA         10.5035    1.8515    6.8555 C.3       3 GLC5        0.0000 
     61 CA          8.5883   -0.4313    6.5232 C.3       3 GLC5        0.0000 
     62 CA          7.7480    0.5750    5.4680 C.3       9 GLL5        0.0000 
     63 CA          9.0690   -1.0320    8.0130 C.3       6 GLP5        0.0000 
     64 CA          7.0380    3.2233    2.2992 C.3       3 GLC5        0.0000 
     65 CA          7.0170    1.9320    3.6260 C.3       9 GLL5        0.0000 
     66 CA          6.6980    4.9240    1.4130 C.3       6 GLP5        0.0000 
@<TRIPOS>BOND
@<TRIPOS>SUBSTRUCTURE
     1 ALC1        7 GROUP        1 X    ALC  0     ROOT ALC X 1
     2 SEC2       35 GROUP        1 X    SEC  0     **** SEC X 2
     3 GLC5        1 GROUP        1 X    GLC  0     **** GLC X 6
     4 ALP1        9 GROUP        1 Y    ALP  0     ROOT ALP Y 8
     5 SEP2       37 GROUP        1 Y    SEP  0     **** SEP Y 9
     6 GLP5        3 GROUP        1 Y    GLP  0     **** GLP Y 13
     7 ALL1        8 GROUP        1 Z    ALL  0     ROOT ALL Z 15
     8 SEL2       36 GROUP        1 Z    SEL  0     **** SEL Z 16
     9 GLL5        2 GROUP        1 Z    GLL  0     **** GLL Z 20
@<TRIPOS>SET

