#    Name: 4b8m_VX6_1_ligand
#    Modification time : Tue Mar 25 07:05:47 2014

@<TRIPOS>MOLECULE
4b8m_VX6_1_ligand
   62    66     1     0     0
SMALL
NO_CHARGES


@<TRIPOS>ATOM
      1 N1         15.6890   -5.0030    2.5870 N.4       1 VX61359     0.0000 
      2 C2         15.8110   -4.0970    3.7480 C.3       1 VX61359     0.0000 
      3 C3         15.5540   -2.6450    3.3190 C.3       1 VX61359     0.0000 
      4 N4         14.2450   -2.5890    2.6200 N.3       1 VX61359     0.0000 
      5 C5         14.0240   -3.5300    1.4870 C.3       1 VX61359     0.0000 
      6 C6         14.3470   -4.9560    1.9640 C.3       1 VX61359     0.0000 
      7 C7         15.9590   -6.3770    3.0370 C.3       1 VX61359     0.0000 
      8 C8         13.2320   -1.6850    3.0290 C.ar      1 VX61359     0.0000 
      9 C9         13.5010   -0.6980    3.9800 C.ar      1 VX61359     0.0000 
     10 C10        12.4810    0.1700    4.3610 C.ar      1 VX61359     0.0000 
     11 N11        11.2670    0.0310    3.8010 N.ar      1 VX61359     0.0000 
     12 C12        11.0150   -0.9220    2.8860 C.ar      1 VX61359     0.0000 
     13 N13        11.9890   -1.7700    2.5070 N.ar      1 VX61359     0.0000 
     14 N14        12.7230    1.1170    5.2740 N.pl3     1 VX61359     0.0000 
     15 C15        11.9750    2.2160    5.4820 C.2       1 VX61359     0.0000 
     16 C17        10.7170    2.4360    5.1000 C.2       1 VX61359     0.0000 
     17 C18        10.4630    3.6540    5.5630 C.2       1 VX61359     0.0000 
     18 N19        11.5280    4.1300    6.1980 N.2       1 VX61359     0.0000 
     19 N20        12.4180    3.2780    6.1490 N.pl3     1 VX61359     0.0000 
     20 C21         9.1500    4.4160    5.4050 C.3       1 VX61359     0.0000 
     21 S23         9.4010   -1.0510    2.1830 S.3       1 VX61359     0.0000 
     22 C24         8.4700    0.0230    3.2350 C.ar      1 VX61359     0.0000 
     23 C25         8.4670   -0.2360    4.5990 C.ar      1 VX61359     0.0000 
     24 C26         7.7480    0.5750    5.4680 C.ar      1 VX61359     0.0000 
     25 C27         7.0120    1.6540    5.0010 C.ar      1 VX61359     0.0000 
     26 C28         7.0170    1.9320    3.6260 C.ar      1 VX61359     0.0000 
     27 C29         7.7390    1.1130    2.7450 C.ar      1 VX61359     0.0000 
     28 N30         6.3880    2.3710    5.9490 N.am      1 VX61359     0.0000 
     29 C31         5.5440    3.4000    5.8410 C.2       1 VX61359     0.0000 
     30 O32         5.1360    3.8890    4.7850 O.2       1 VX61359     0.0000 
     31 C33         5.1000    3.9400    7.2120 C.3       1 VX61359     0.0000 
     32 C34         3.6880    4.5170    7.3050 C.3       1 VX61359     0.0000 
     33 C35         4.9010    5.4560    7.2910 C.3       1 VX61359     0.0000 
     34 H          16.4371   -4.7329    1.8442 H         1 VX61359     0.0000 
     35 H          16.8122   -4.1555    4.1783 H         1 VX61359     0.0000 
     36 H          15.0855   -4.3603    4.5195 H         1 VX61359     0.0000 
     37 H          16.3532   -2.3331    2.6589 H         1 VX61359     0.0000 
     38 H          15.5420   -2.0204    4.2030 H         1 VX61359     0.0000 
     39 H          14.6764   -3.2870    0.6578 H         1 VX61359     0.0000 
     40 H          12.9913   -3.4996    1.1631 H         1 VX61359     0.0000 
     41 H          13.5804   -5.2597    2.6797 H         1 VX61359     0.0000 
     42 H          14.3001   -5.6244    1.1020 H         1 VX61359     0.0000 
     43 H          14.4323   -0.6158    4.3886 H         1 VX61359     0.0000 
     44 H          13.5967    0.9912    5.9025 H         1 VX61359     0.0000 
     45 H          10.1471    1.8619    4.6168 H         1 VX61359     0.0000 
     46 H          13.3403    3.3233    6.5301 H         1 VX61359     0.0000 
     47 H           9.0024   -1.0364    4.9702 H         1 VX61359     0.0000 
     48 H           7.7624    0.3691    6.4848 H         1 VX61359     0.0000 
     49 H           6.4923    2.7348    3.2644 H         1 VX61359     0.0000 
     50 H           7.7310    1.3137    1.7389 H         1 VX61359     0.0000 
     51 H           6.6128    2.0535    6.9966 H         1 VX61359     0.0000 
     52 H           5.3503    3.6395    8.0628 H         1 VX61359     0.0000 
     53 H           3.4055    4.4356    8.2025 H         1 VX61359     0.0000 
     54 H           3.3223    4.5168    6.4343 H         1 VX61359     0.0000 
     55 H           4.9817    5.7979    6.4150 H         1 VX61359     0.0000 
     56 H           5.0649    5.7167    8.1832 H         1 VX61359     0.0000 
     57 H          16.8784   -6.4686    3.4196 H         1 VX61359     0.0000 
     58 H          15.3163   -6.6688    3.7454 H         1 VX61359     0.0000 
     59 H          15.8868   -7.0344    2.2869 H         1 VX61359     0.0000 
     60 H           9.1893    5.3171    5.8368 H         1 VX61359     0.0000 
     61 H           8.9186    4.5618    4.4431 H         1 VX61359     0.0000 
     62 H           8.3836    3.9254    5.8197 H         1 VX61359     0.0000 
@<TRIPOS>BOND
     1    2    1 1    
     2    6    1 1    
     3    7    1 1    
     4   34    1 1    
     5    3    2 1    
     6   35    2 1    
     7   36    2 1    
     8    4    3 1    
     9   37    3 1    
    10   38    3 1    
    11    5    4 1    
    12    8    4 1    
    13    6    5 1    
    14   39    5 1    
    15   40    5 1    
    16   41    6 1    
    17   42    6 1    
    18   57    7 1    
    19   58    7 1    
    20   59    7 1    
    21    9    8 ar   
    22   13    8 ar   
    23   10    9 ar   
    24   43    9 1    
    25   11   10 ar   
    26   14   10 1    
    27   12   11 ar   
    28   13   12 ar   
    29   21   12 1    
    30   15   14 1    
    31   44   14 1    
    32   16   15 2    
    33   19   15 1    
    34   17   16 1    
    35   45   16 1    
    36   18   17 2    
    37   20   17 1    
    38   19   18 1    
    39   46   19 1    
    40   60   20 1    
    41   61   20 1    
    42   62   20 1    
    43   22   21 1    
    44   23   22 ar   
    45   27   22 ar   
    46   24   23 ar   
    47   47   23 1    
    48   25   24 ar   
    49   48   24 1    
    50   26   25 ar   
    51   28   25 1    
    52   27   26 ar   
    53   49   26 1    
    54   50   27 1    
    55   29   28 am   
    56   51   28 1    
    57   30   29 2    
    58   31   29 1    
    59   32   31 1    
    60   33   31 1    
    61   52   31 1    
    62   33   32 1    
    63   53   32 1    
    64   54   32 1    
    65   55   33 1    
    66   56   33 1    
@<TRIPOS>SUBSTRUCTURE
     1 VX61359     1 GROUP   
@<TRIPOS>SET

