#    Name: 3dqx_AMP_1_INTS_M
#    Modification time : Mon Mar 24 23:59:09 2014

@<TRIPOS>MOLECULE
3dqx_AMP_1_INTS_M
   45     0    12     0     0
SMALL
NO_CHARGES


@<TRIPOS>ATOM
      1 N          -9.5990   -8.3475  -35.9230 N.am      2 SEC2        0.0000 
      2 N          -8.9430   -8.2670  -37.2640 N.am     10 SEL2        0.0000 
      3 N         -10.2550   -8.4280  -34.5820 N.am      6 SEP2        0.0000 
      4 NZ         -8.7585   -4.9445  -36.5200 N.4       3 LYC4        0.0000 
      5 NZ         -8.4950   -5.8270  -37.9520 N.4      11 LYL4        0.0000 
      6 NZ         -9.0220   -4.0620  -35.0880 N.4       7 LYP4        0.0000 
      7 N          -8.7585   -4.9445  -36.5200 N.am      2 SEC2        0.0000 
      8 N          -8.4950   -5.8270  -37.9520 N.am     10 SEL2        0.0000 
      9 N          -9.0220   -4.0620  -35.0880 N.am      6 SEP2        0.0000 
     10 CA         -7.1075   -5.2675  -40.1895 C.3       4 GLC5        0.0000 
     11 CA         -7.2480   -7.1130  -40.2710 C.3      12 GLL5        0.0000 
     12 CA         -6.9670   -3.4220  -40.1080 C.3       8 GLP5        0.0000 
     13 CA         -4.3540   -9.0630  -36.5285 C.3       4 GLC5        0.0000 
     14 CA         -4.3950   -8.9110  -38.5790 C.3      12 GLL5        0.0000 
     15 CA         -4.3130   -9.2150  -34.4780 C.3       8 GLP5        0.0000 
     16 CA         -2.6435   -6.4045  -40.2130 C.3       4 GLC5        0.0000 
     17 CA         -4.0500   -7.4480  -38.8620 C.3      12 GLL5        0.0000 
     18 CA         -1.2370   -5.3610  -41.5640 C.3       8 GLP5        0.0000 
     19 CA         -4.2755   -5.5275  -39.3350 C.3       4 GLC5        0.0000 
     20 CA         -4.5010   -3.6070  -39.8080 C.3       8 GLP5        0.0000 
     21 O          -3.1015   -3.3335  -32.8030 O.2       1 ALC1        0.0000 
     22 O          -3.9620   -3.9890  -33.9220 O.2       9 ALL1        0.0000 
     23 O          -2.2410   -2.6780  -31.6840 O.2       5 ALP1        0.0000 
     24 N          -0.9220   -5.1070  -33.6875 N.am      2 SEC2        0.0000 
     25 N          -1.9930   -4.9850  -34.7510 N.am     10 SEL2        0.0000 
     26 N           0.1490   -5.2290  -32.6240 N.am      6 SEP2        0.0000 
     27 CA         -0.8410   -5.1040  -37.5370 C.3       4 GLC5        0.0000 
     28 CA         -1.3920   -5.7520  -35.6560 C.3      12 GLL5        0.0000 
     29 CA         -0.2900   -4.4560  -39.4180 C.3       8 GLP5        0.0000 
     30 CA         -1.9280   -3.5830  -35.5105 C.3       4 GLC5        0.0000 
     31 CA         -2.4640   -1.4140  -35.3650 C.3       8 GLP5        0.0000 
     32 CA         -0.4745   -6.1915  -33.9810 C.3       4 GLC5        0.0000 
     33 CA          0.4430   -6.6310  -32.3060 C.3       8 GLP5        0.0000 
     34 CA         -1.8315   -5.2955  -38.1060 C.3       4 GLC5        0.0000 
     35 CA         -3.3730   -6.1350  -36.7940 C.3      12 GLL5        0.0000 
     36 CA         -3.8430   -7.6750  -35.6360 C.3       4 GLC5        0.0000 
     37 CA         -5.7447   -7.0055  -42.0990 C.3       4 GLC5        0.0000 
     38 CA         -5.9910   -8.0210  -40.1530 C.3      12 GLL5        0.0000 
     39 CA         -4.8700   -6.4440  -43.9860 C.3       8 GLP5        0.0000 
     40 CA         -4.1025   -4.6707  -38.0700 C.3       4 GLC5        0.0000 
     41 CA         -3.0705   -3.2290  -35.3563 C.3       4 GLC5        0.0000 
     42 CA         -4.0350   -5.3340  -35.8700 C.3      12 GLL5        0.0000 
     43 CA         -4.3230   -6.1720  -34.1793 C.3       4 GLC5        0.0000 
     44 CA         -3.3190   -4.7540  -34.8250 C.3      12 GLL5        0.0000 
     45 CA         -4.9690   -7.3000  -33.0110 C.3       8 GLP5        0.0000 
@<TRIPOS>BOND
@<TRIPOS>SUBSTRUCTURE
     1 ALC1       21 GROUP        1 X    ALC  0     ROOT ALC X 1
     2 SEC2        1 GROUP        1 X    SEC  0     **** SEC X 2
     3 LYC4        4 GROUP        1 X    LYC  0     **** LYC X 4
     4 GLC5       10 GROUP        1 X    GLC  0     **** GLC X 6
     5 ALP1       23 GROUP        1 Y    ALP  0     ROOT ALP Y 8
     6 SEP2        3 GROUP        1 Y    SEP  0     **** SEP Y 9
     7 LYP4        6 GROUP        1 Y    LYP  0     **** LYP Y 11
     8 GLP5       12 GROUP        1 Y    GLP  0     **** GLP Y 13
     9 ALL1       22 GROUP        1 Z    ALL  0     ROOT ALL Z 15
    10 SEL2        2 GROUP        1 Z    SEL  0     **** SEL Z 16
    11 LYL4        5 GROUP        1 Z    LYL  0     **** LYL Z 18
    12 GLL5       11 GROUP        1 Z    GLL  0     **** GLL Z 20
@<TRIPOS>SET

