#    Name: 3dqx_AMP_1_ligand
#    Modification time : Mon Mar 24 23:59:09 2014

@<TRIPOS>MOLECULE
3dqx_AMP_1_ligand
   35    37     1     0     0
SMALL
NO_CHARGES


@<TRIPOS>ATOM
      1 P          -9.2330   -7.1780  -38.4580 P.3       1 AMP1        0.0000 
      2 O1P        -8.9430   -8.2670  -37.2640 O.co2     1 AMP1        0.0000 
      3 O2P       -10.6870   -6.9560  -38.6810 O.co2     1 AMP1        0.0000 
      4 O3P        -8.4950   -5.8270  -37.9520 O.co2     1 AMP1        0.0000 
      5 O5'        -8.4560   -7.7300  -39.7910 O.3       1 AMP1        0.0000 
      6 C5'        -7.2480   -7.1130  -40.2710 C.3       1 AMP1        0.0000 
      7 C4'        -5.9910   -8.0210  -40.1530 C.3       1 AMP1        0.0000 
      8 O4'        -4.8920   -7.0720  -40.0040 O.3       1 AMP1        0.0000 
      9 C3'        -5.8880   -8.9720  -38.9420 C.3       1 AMP1        0.0000 
     10 O3'        -6.2800  -10.3140  -39.2870 O.3       1 AMP1        0.0000 
     11 C2'        -4.3950   -8.9110  -38.5790 C.3       1 AMP1        0.0000 
     12 O2'        -3.5920   -9.7660  -39.4230 O.3       1 AMP1        0.0000 
     13 C1'        -4.0500   -7.4480  -38.8620 C.3       1 AMP1        0.0000 
     14 N9         -4.2870   -6.5570  -37.6690 N.pl3     1 AMP1        0.0000 
     15 C8         -5.4670   -6.0460  -37.3010 C.2       1 AMP1        0.0000 
     16 N7         -5.3220   -5.3000  -36.2080 N.2       1 AMP1        0.0000 
     17 C5         -4.0350   -5.3340  -35.8700 C.ar      1 AMP1        0.0000 
     18 C6         -3.3190   -4.7540  -34.8250 C.ar      1 AMP1        0.0000 
     19 N6         -3.9620   -3.9890  -33.9220 N.pl3     1 AMP1        0.0000 
     20 N1         -1.9930   -4.9850  -34.7510 N.ar      1 AMP1        0.0000 
     21 C2         -1.3920   -5.7520  -35.6560 C.ar      1 AMP1        0.0000 
     22 N3         -2.0500   -6.3260  -36.6650 N.ar      1 AMP1        0.0000 
     23 C4         -3.3730   -6.1350  -36.7940 C.ar      1 AMP1        0.0000 
     24 H          -7.0225   -6.1782  -39.7180 H         1 AMP1        0.0000 
     25 H          -7.3366   -6.8236  -41.3381 H         1 AMP1        0.0000 
     26 H          -5.8591   -8.5612  -41.0603 H         1 AMP1        0.0000 
     27 H          -6.4389   -8.5524  -38.1451 H         1 AMP1        0.0000 
     28 H          -4.2853   -9.0870  -37.5530 H         1 AMP1        0.0000 
     29 H          -3.0123   -7.4087  -39.1553 H         1 AMP1        0.0000 
     30 H          -6.3154   -6.2008  -37.7713 H         1 AMP1        0.0000 
     31 H          -4.9434   -3.8655  -34.0691 H         1 AMP1        0.0000 
     32 H          -3.4007   -3.6126  -33.1849 H         1 AMP1        0.0000 
     33 H          -0.3421   -5.9161  -35.5737 H         1 AMP1        0.0000 
     34 H          -5.4548  -10.7361  -39.6623 H         1 AMP1        0.0000 
     35 H          -2.8753  -10.1220  -38.8233 H         1 AMP1        0.0000 
@<TRIPOS>BOND
     1    2    1 ar   
     2    3    1 ar   
     3    4    1 ar   
     4    5    1 1    
     5    6    5 1    
     6    7    6 1    
     7   24    6 1    
     8   25    6 1    
     9    8    7 1    
    10    9    7 1    
    11   26    7 1    
    12   13    8 1    
    13   10    9 1    
    14   11    9 1    
    15   27    9 1    
    16   34   10 1    
    17   12   11 1    
    18   13   11 1    
    19   28   11 1    
    20   35   12 1    
    21   14   13 1    
    22   29   13 1    
    23   15   14 1    
    24   23   14 1    
    25   16   15 2    
    26   30   15 1    
    27   17   16 1    
    28   18   17 ar   
    29   23   17 ar   
    30   19   18 1    
    31   20   18 ar   
    32   31   19 1    
    33   32   19 1    
    34   21   20 ar   
    35   22   21 ar   
    36   33   21 1    
    37   23   22 ar   
@<TRIPOS>SUBSTRUCTURE
     1 AMP1        1 GROUP   
@<TRIPOS>SET

