#    Name: 2z52_H23_2_INTS_M
#    Modification time : Tue Mar 25 10:16:10 2014

@<TRIPOS>MOLECULE
2z52_H23_2_INTS_M
   71     0    12     0     0
SMALL
NO_CHARGES


@<TRIPOS>ATOM
      1 CA         26.1775   38.5810   30.0355 C.3       4 GLC5        0.0000 
      2 CA         26.9870   36.7300   29.4810 C.3      12 GLL5        0.0000 
      3 CA         25.3680   40.4320   30.5900 C.3       8 GLP5        0.0000 
      4 CA         26.0050   37.4705   27.8440 C.3       4 GLC5        0.0000 
      5 CA         25.0230   38.2110   26.2070 C.3       8 GLP5        0.0000 
      6 CA         28.1165   36.1025   30.6805 C.3       4 GLC5        0.0000 
      7 CA         29.2460   35.4750   31.8800 C.3       8 GLP5        0.0000 
      8 CA         29.7145   35.9895   27.1400 C.3       4 GLC5        0.0000 
      9 CA         27.7310   35.4260   27.4190 C.3      12 GLL5        0.0000 
     10 CA         31.6980   36.5530   26.8610 C.3       8 GLP5        0.0000 
     11 CA         25.6445   32.4855   28.4415 C.3       4 GLC5        0.0000 
     12 CA         27.0280   31.0970   28.2290 C.3      12 GLL5        0.0000 
     13 CA         24.2610   33.8740   28.6540 C.3       8 GLP5        0.0000 
     14 CA         28.6645   28.8315   29.7180 C.3       4 GLC5        0.0000 
     15 CA         26.9820   29.7340   28.9270 C.3      12 GLL5        0.0000 
     16 CA         30.3470   27.9290   30.5090 C.3       8 GLP5        0.0000 
     17 CA         24.6695   29.0755   27.1125 C.3       4 GLC5        0.0000 
     18 CA         25.5880   29.1010   28.8390 C.3      12 GLL5        0.0000 
     19 CA         23.7510   29.0500   25.3860 C.3       8 GLP5        0.0000 
     20 CA         22.5340   28.4745   29.3085 C.3       4 GLC5        0.0000 
     21 CA         24.1710   27.0310   29.1690 C.3      12 GLL5        0.0000 
     22 CA         20.8970   29.9180   29.4480 C.3       8 GLP5        0.0000 
     23 CA         23.9610   28.0405   27.2775 C.3       4 GLC5        0.0000 
     24 Zn         22.7570   24.7880   26.8070 Zn        3 ZIC7        0.0000 
     25 Zn         22.2410   24.8900   27.6300 Zn       11 ZIL7        0.0000 
     26 Zn         23.2730   24.6860   25.9840 Zn        7 ZIP7        0.0000 
     27 N          21.0040   26.0035   27.3535 N.am      1 SEC2        0.0000 
     28 N          22.2410   24.8900   27.6300 N.am      9 SEL2        0.0000 
     29 N          19.7670   27.1170   27.0770 N.am      5 SEP2        0.0000 
     30 Zn         22.6525   22.8080   30.0175 Zn        3 ZIC7        0.0000 
     31 Zn         22.0340   23.6020   29.8700 Zn       11 ZIL7        0.0000 
     32 Zn         23.2710   22.0140   30.1650 Zn        7 ZIP7        0.0000 
     33 NZ         20.5440   26.5890   28.3950 N.4       2 LYC4        0.0000 
     34 NZ         21.3210   26.0610   29.7130 N.4      10 LYL4        0.0000 
     35 NZ         18.6590   27.2580   27.7980 N.4       6 LYP4        0.0000 
     36 N          19.9870   26.4825   29.3975 N.am      1 SEC2        0.0000 
     37 N          21.3210   26.0610   29.7130 N.am      9 SEL2        0.0000 
     38 N          18.6530   26.9040   29.0820 N.am      5 SEP2        0.0000 
     39 N          20.5440   26.5890   28.3950 N.am      1 SEC2        0.0000 
     40 NZ         25.8250   22.0270   28.8330 N.4       2 LYC4        0.0000 
     41 NZ         24.7710   22.9500   29.0410 N.4      10 LYL4        0.0000 
     42 NZ         26.8790   21.1040   28.6250 N.4       6 LYP4        0.0000 
     43 Zn         24.0210   22.4820   29.6030 Zn        3 ZIC7        0.0000 
     44 Zn         24.7710   22.9500   29.0410 Zn       11 ZIL7        0.0000 
     45 N          25.8250   22.0270   28.8330 N.am      1 SEC2        0.0000 
     46 N          24.7710   22.9500   29.0410 N.am      9 SEL2        0.0000 
     47 N          26.8790   21.1040   28.6250 N.am      5 SEP2        0.0000 
     48 Zn         24.0655   24.7140   26.5775 Zn        3 ZIC7        0.0000 
     49 Zn         24.8580   24.7420   27.1710 Zn       11 ZIL7        0.0000 
     50 Zn         25.5300   25.0390   26.4445 Zn        3 ZIC7        0.0000 
     51 Zn         26.2020   25.3360   25.7180 Zn        7 ZIP7        0.0000 
     52 NZ         27.3615   25.3355   30.1045 N.4       2 LYC4        0.0000 
     53 NZ         26.6320   24.7280   29.0280 N.4      10 LYL4        0.0000 
     54 NZ         28.0910   25.9430   31.1810 N.4       6 LYP4        0.0000 
     55 NZ         26.7555   22.9160   28.8265 N.4       2 LYC4        0.0000 
     56 N          27.3615   25.3355   30.1045 N.am      1 SEC2        0.0000 
     57 N          26.6320   24.7280   29.0280 N.am      9 SEL2        0.0000 
     58 N          28.0910   25.9430   31.1810 N.am      5 SEP2        0.0000 
     59 CA         25.5580   35.2237   28.6990 C.3       4 GLC5        0.0000 
     60 CA         26.7230   36.4170   28.0070 C.3      12 GLL5        0.0000 
     61 CA         28.1880   37.8468   29.0380 C.3       4 GLC5        0.0000 
     62 CA         29.5210   39.1200   29.3320 C.3       8 GLP5        0.0000 
     63 CA         26.6345   36.8008   26.5445 C.3       4 GLC5        0.0000 
     64 CA         26.0420   37.6800   25.3760 C.3       8 GLP5        0.0000 
     65 CA         26.1769   33.8792   28.1391 C.3       4 GLC5        0.0000 
     66 CA         28.5090   33.0170   27.4740 C.3      12 GLL5        0.0000 
     67 CA         29.8062   31.1593   27.0445 C.3       4 GLC5        0.0000 
     68 CA         31.1430   29.9550   26.2180 C.3       8 GLP5        0.0000 
     69 CA         29.6069   33.3534   29.3760 C.3       4 GLC5        0.0000 
     70 CA         28.4300   31.7100   28.2680 C.3      12 GLL5        0.0000 
     71 CA         30.9660   34.0780   30.7170 C.3       8 GLP5        0.0000 
@<TRIPOS>BOND
@<TRIPOS>SUBSTRUCTURE
     1 SEC2       27 GROUP        1 X    SEC  0     ROOT SEC X 2
     2 LYC4       33 GROUP        1 X    LYC  0     **** LYC X 4
     3 ZIC7       24 GROUP        1 X    ZIC  0     **** ZIC X 5
     4 GLC5        1 GROUP        1 X    GLC  0     **** GLC X 6
     5 SEP2       29 GROUP        1 Y    SEP  0     ROOT SEP Y 9
     6 LYP4       35 GROUP        1 Y    LYP  0     **** LYP Y 11
     7 ZIP7       26 GROUP        1 Y    ZIP  0     **** ZIP Y 12
     8 GLP5        3 GROUP        1 Y    GLP  0     **** GLP Y 13
     9 SEL2       28 GROUP        1 Z    SEL  0     ROOT SEL Z 16
    10 LYL4       34 GROUP        1 Z    LYL  0     **** LYL Z 18
    11 ZIL7       25 GROUP        1 Z    ZIL  0     **** ZIL Z 19
    12 GLL5        2 GROUP        1 Z    GLL  0     **** GLL Z 20
@<TRIPOS>SET

