#    Name: 2z52_H23_2_ligand
#    Modification time : Tue Mar 25 10:16:11 2014

@<TRIPOS>MOLECULE
2z52_H23_2_ligand
   45    44     1     0     0
SMALL
NO_CHARGES


@<TRIPOS>ATOM
      1 CAA        26.9870   36.7300   29.4810 C.3       1 H231002     0.0000 
      2 CAI        26.7230   36.4170   28.0070 C.3       1 H231002     0.0000 
      3 CAJ        27.7310   35.4260   27.4190 C.3       1 H231002     0.0000 
      4 CAK        27.6220   34.0780   28.1300 C.3       1 H231002     0.0000 
      5 CAL        28.5090   33.0170   27.4740 C.3       1 H231002     0.0000 
      6 CAM        28.4300   31.7100   28.2680 C.3       1 H231002     0.0000 
      7 CAN        27.0280   31.0970   28.2290 C.3       1 H231002     0.0000 
      8 CAO        26.9820   29.7340   28.9270 C.3       1 H231002     0.0000 
      9 CAP        25.5880   29.1010   28.8390 C.3       1 H231002     0.0000 
     10 CAQ        25.5730   27.6380   29.3000 C.3       1 H231002     0.0000 
     11 CAR        24.1710   27.0310   29.1690 C.3       1 H231002     0.0000 
     12 CAS        24.0290   25.5770   29.6360 C.3       1 H231002     0.0000 
     13 PAT        22.2890   25.0530   29.2270 P.3       1 H231002     0.0000 
     14 OAE        22.2410   24.8900   27.6300 O.co2     1 H231002     0.0000 
     15 OAF        22.0340   23.6020   29.8700 O.co2     1 H231002     0.0000 
     16 OAB        21.3210   26.0610   29.7130 O.co2     1 H231002     0.0000 
     17 PAU        25.2130   24.4680   28.7190 P.3       1 H231002     0.0000 
     18 OAG        24.7710   22.9500   29.0410 O.co2     1 H231002     0.0000 
     19 OAH        24.8580   24.7420   27.1710 O.co2     1 H231002     0.0000 
     20 OAC        26.6320   24.7280   29.0280 O.co2     1 H231002     0.0000 
     21 OAD        24.2430   25.4210   31.0400 O.3       1 H231002     0.0000 
     22 H          26.7611   37.3496   27.4305 H         1 H231002     0.0000 
     23 H          25.7127   36.0020   27.9045 H         1 H231002     0.0000 
     24 H          28.7351   35.8195   27.5451 H         1 H231002     0.0000 
     25 H          27.5265   35.2927   26.3610 H         1 H231002     0.0000 
     26 H          26.5831   33.7411   28.1044 H         1 H231002     0.0000 
     27 H          27.9200   34.1972   29.1742 H         1 H231002     0.0000 
     28 H          29.5351   33.3660   27.4591 H         1 H231002     0.0000 
     29 H          28.1688   32.8416   26.4599 H         1 H231002     0.0000 
     30 H          28.7065   31.9057   29.3076 H         1 H231002     0.0000 
     31 H          29.1452   30.9951   27.8522 H         1 H231002     0.0000 
     32 H          26.7183   30.9764   27.1884 H         1 H231002     0.0000 
     33 H          26.3267   31.7746   28.7212 H         1 H231002     0.0000 
     34 H          27.2517   29.8597   29.9767 H         1 H231002     0.0000 
     35 H          27.7074   29.0670   28.4588 H         1 H231002     0.0000 
     36 H          25.2372   29.1522   27.8026 H         1 H231002     0.0000 
     37 H          24.8939   29.6779   29.4597 H         1 H231002     0.0000 
     38 H          25.8890   27.5878   30.3407 H         1 H231002     0.0000 
     39 H          26.2699   27.0641   28.6913 H         1 H231002     0.0000 
     40 H          23.8540   27.0954   28.1082 H         1 H231002     0.0000 
     41 H          23.4576   27.6585   29.7410 H         1 H231002     0.0000 
     42 H          27.8937   37.1283   29.6195 H         1 H231002     0.0000 
     43 H          26.3219   37.3807   29.8474 H         1 H231002     0.0000 
     44 H          26.9376   35.9089   30.0497 H         1 H231002     0.0000 
     45 H          24.2024   24.4347   31.1998 H         1 H231002     0.0000 
@<TRIPOS>BOND
     1    2    1 1    
     2   42    1 1    
     3   43    1 1    
     4   44    1 1    
     5    3    2 1    
     6   22    2 1    
     7   23    2 1    
     8    4    3 1    
     9   24    3 1    
    10   25    3 1    
    11    5    4 1    
    12   26    4 1    
    13   27    4 1    
    14    6    5 1    
    15   28    5 1    
    16   29    5 1    
    17    7    6 1    
    18   30    6 1    
    19   31    6 1    
    20    8    7 1    
    21   32    7 1    
    22   33    7 1    
    23    9    8 1    
    24   34    8 1    
    25   35    8 1    
    26   10    9 1    
    27   36    9 1    
    28   37    9 1    
    29   11   10 1    
    30   38   10 1    
    31   39   10 1    
    32   12   11 1    
    33   40   11 1    
    34   41   11 1    
    35   13   12 1    
    36   17   12 1    
    37   21   12 1    
    38   14   13 ar   
    39   15   13 ar   
    40   16   13 ar   
    41   18   17 ar   
    42   19   17 ar   
    43   20   17 ar   
    44   45   21 1    
@<TRIPOS>SUBSTRUCTURE
     1 H231002     1 GROUP   
@<TRIPOS>SET

