#    Name: 2cdz_23D_1_INTS_M
#    Modification time : Mon Mar 24 23:35:13 2014

@<TRIPOS>MOLECULE
2cdz_23D_1_INTS_M
   52     0     9     0     0
SMALL
NO_CHARGES


@<TRIPOS>ATOM
      1 CA         41.3775   35.3165   23.1420 C.3       3 GLC5        0.0000 
      2 CA         39.8820   34.5010   21.8760 C.3       9 GLL5        0.0000 
      3 CA         42.8730   36.1320   24.4080 C.3       6 GLP5        0.0000 
      4 CA         42.5230   36.7150   16.3450 C.3       3 GLC5        0.0000 
      5 CA         41.9590   35.8430   18.0990 C.3       9 GLL5        0.0000 
      6 CA         43.0870   37.5870   14.5910 C.3       6 GLP5        0.0000 
      7 O          44.0395   35.0285   17.3625 O.2       1 ALC1        0.0000 
      8 O          43.8790   34.5450   18.6130 O.2       7 ALL1        0.0000 
      9 O          44.2000   35.5120   16.1120 O.2       4 ALP1        0.0000 
     10 CA         44.4170   31.7600   18.5000 C.3       3 GLC5        0.0000 
     11 CA         44.5710   33.6350   19.3020 C.3       9 GLL5        0.0000 
     12 CA         44.2630   29.8850   17.6980 C.3       6 GLP5        0.0000 
     13 N          46.9775   34.9675   17.2570 N.am      2 SEC2        0.0000 
     14 N          46.8890   34.1140   18.5260 N.am      8 SEL2        0.0000 
     15 N          47.0660   35.8210   15.9880 N.am      5 SEP2        0.0000 
     16 CA         49.2695   33.6885   20.6975 C.3       3 GLC5        0.0000 
     17 CA         48.9270   31.7740   20.2810 C.3       9 GLL5        0.0000 
     18 CA         49.6120   35.6030   21.1140 C.3       6 GLP5        0.0000 
     19 CA         50.5830   31.8320   21.1920 C.3       3 GLC5        0.0000 
     20 CA         52.2390   31.8900   22.1030 C.3       6 GLP5        0.0000 
     21 CA         50.3590   30.8800   17.7720 C.3       3 GLC5        0.0000 
     22 CA         49.4470   30.8930   19.1620 C.3       9 GLL5        0.0000 
     23 CA         51.2710   30.8670   16.3820 C.3       6 GLP5        0.0000 
     24 CA         51.2480   30.9345   19.9695 C.3       3 GLC5        0.0000 
     25 CA         53.0490   30.9760   20.7770 C.3       6 GLP5        0.0000 
     26 CA         48.9435   29.0415   18.4885 C.3       3 GLC5        0.0000 
     27 CA         48.4400   27.1900   17.8150 C.3       6 GLP5        0.0000 
     28 CA         44.5685   33.6770   21.7760 C.3       3 GLC5        0.0000 
     29 CA         44.4830   31.8800   20.8520 C.3       9 GLL5        0.0000 
     30 CA         44.6540   35.4740   22.7000 C.3       6 GLP5        0.0000 
     31 CA         44.3730   30.8825   19.2750 C.3       3 GLC5        0.0000 
     32 CA         42.6585   30.5980   26.0490 C.3       3 GLC5        0.0000 
     33 CA         43.2180   28.8700   24.8820 C.3       9 GLL5        0.0000 
     34 CA         42.0990   32.3260   27.2160 C.3       6 GLP5        0.0000 
     35 CA         43.3480   29.0995   26.9825 C.3       3 GLC5        0.0000 
     36 CA         43.4780   29.3290   29.0830 C.3       6 GLP5        0.0000 
     37 CA         43.4763   35.1193   21.1163 C.3       3 GLC5        0.0000 
     38 CA         41.9710   34.5680   20.1180 C.3       9 GLL5        0.0000 
     39 CA         41.1092   33.8322   18.4363 C.3       3 GLC5        0.0000 
     40 CA         40.8900   32.8700   16.6060 C.3       6 GLP5        0.0000 
     41 CA         40.6270   34.4870   17.7873 C.3       3 GLC5        0.0000 
     42 CA         40.6820   36.3050   18.3890 C.3       9 GLL5        0.0000 
     43 CA         41.5913   34.1360   17.5645 C.3       3 GLC5        0.0000 
     44 CA         46.4875   31.6190   18.5050 C.3       3 GLC5        0.0000 
     45 CA         45.9500   33.4830   19.2240 C.3       9 GLL5        0.0000 
     46 CA         46.7230   30.2520   17.4000 C.3       6 GLP5        0.0000 
     47 CA         47.9550   30.7927   18.5607 C.3       3 GLC5        0.0000 
     48 CA         45.2806   34.2490   21.1647 C.3       3 GLC5        0.0000 
     49 CA         46.5540   32.4890   19.9960 C.3       9 GLL5        0.0000 
     50 CA         46.1158   30.4438   24.7180 C.3       3 GLC5        0.0000 
     51 CA         44.8250   30.2360   23.4270 C.3       9 GLL5        0.0000 
     52 CA         47.4880   31.1080   25.3920 C.3       6 GLP5        0.0000 
@<TRIPOS>BOND
@<TRIPOS>SUBSTRUCTURE
     1 ALC1        7 GROUP        1 X    ALC  0     ROOT ALC X 1
     2 SEC2       13 GROUP        1 X    SEC  0     **** SEC X 2
     3 GLC5        1 GROUP        1 X    GLC  0     **** GLC X 6
     4 ALP1        9 GROUP        1 Y    ALP  0     ROOT ALP Y 8
     5 SEP2       15 GROUP        1 Y    SEP  0     **** SEP Y 9
     6 GLP5        3 GROUP        1 Y    GLP  0     **** GLP Y 13
     7 ALL1        8 GROUP        1 Z    ALL  0     ROOT ALL Z 15
     8 SEL2       14 GROUP        1 Z    SEL  0     **** SEL Z 16
     9 GLL5        2 GROUP        1 Z    GLL  0     **** GLL Z 20
@<TRIPOS>SET

