#    Name: 2cdz_23D_1_ligand
#    Modification time : Mon Mar 24 23:35:13 2014

@<TRIPOS>MOLECULE
2cdz_23D_1_ligand
   52    55     1     0     0
SMALL
NO_CHARGES


@<TRIPOS>ATOM
      1 CAS        41.9710   34.5680   20.1180 C.ar      1 23D1591     0.0000 
      2 CAQ        40.6860   35.0210   20.4150 C.ar      1 23D1591     0.0000 
      3 CL1        39.8820   34.5010   21.8760 Cl        1 23D1591     0.0000 
      4 CAP        40.0460   35.9030   19.5480 C.ar      1 23D1591     0.0000 
      5 CAO        40.6820   36.3050   18.3890 C.ar      1 23D1591     0.0000 
      6 CAN        41.9590   35.8430   18.0990 C.ar      1 23D1591     0.0000 
      7 CAM        42.6260   34.9610   18.9470 C.ar      1 23D1591     0.0000 
      8 N6         43.8790   34.5450   18.6130 N.pl3     1 23D1591     0.0000 
      9 C6         44.5710   33.6350   19.3020 C.ar      1 23D1591     0.0000 
     10 N1         43.9120   32.8230   20.1050 N.ar      1 23D1591     0.0000 
     11 C5         45.9500   33.4830   19.2240 C.ar      1 23D1591     0.0000 
     12 N7         46.8890   34.1140   18.5260 N.2       1 23D1591     0.0000 
     13 C8         48.0610   33.5740   18.8240 C.2       1 23D1591     0.0000 
     14 N9         47.8530   32.5980   19.7120 N.pl3     1 23D1591     0.0000 
     15 CAZ        48.9270   31.7740   20.2810 C.3       1 23D1591     0.0000 
     16 CBA        49.4470   30.8930   19.1620 C.3       1 23D1591     0.0000 
     17 C4         46.5540   32.4890   19.9960 C.ar      1 23D1591     0.0000 
     18 N3         45.8120   31.6760   20.8080 N.ar      1 23D1591     0.0000 
     19 C2         44.4830   31.8800   20.8520 C.ar      1 23D1591     0.0000 
     20 N2         43.5270   31.2150   21.5050 N.pl3     1 23D1591     0.0000 
     21 CAG        43.4810   30.4600   22.7580 C.3       1 23D1591     0.0000 
     22 CAF        44.8250   30.2360   23.4270 C.3       1 23D1591     0.0000 
     23 CAE        44.6620   29.3230   24.6610 C.3       1 23D1591     0.0000 
     24 CAD        43.2180   28.8700   24.8820 C.3       1 23D1591     0.0000 
     25 CAC        42.6390   28.2140   23.6150 C.3       1 23D1591     0.0000 
     26 CAA        42.7520   29.1560   22.4060 C.3       1 23D1591     0.0000 
     27 NAB        41.4060   29.5090   21.9380 N.4       1 23D1591     0.0000 
     28 H          42.4503   33.9286   20.7760 H         1 23D1591     0.0000 
     29 H          39.1060   36.2502   19.7732 H         1 23D1591     0.0000 
     30 H          40.2103   36.9488   17.7366 H         1 23D1591     0.0000 
     31 H          42.4304   36.1614   17.2293 H         1 23D1591     0.0000 
     32 H          44.3260   34.9803   17.7443 H         1 23D1591     0.0000 
     33 H          48.9236   33.8365   18.4640 H         1 23D1591     0.0000 
     34 H          48.5510   31.1461   21.0763 H         1 23D1591     0.0000 
     35 H          49.7352   32.3921   20.6456 H         1 23D1591     0.0000 
     36 H          42.5101   31.2111   21.0110 H         1 23D1591     0.0000 
     37 H          42.8167   30.9942   23.4592 H         1 23D1591     0.0000 
     38 H          45.2393   31.1868   23.7480 H         1 23D1591     0.0000 
     39 H          45.5088   29.7621   22.7295 H         1 23D1591     0.0000 
     40 H          45.0103   29.8653   25.5476 H         1 23D1591     0.0000 
     41 H          45.3016   28.4420   24.5330 H         1 23D1591     0.0000 
     42 H          42.6057   29.7310   25.1461 H         1 23D1591     0.0000 
     43 H          43.1861   28.1507   25.6990 H         1 23D1591     0.0000 
     44 H          41.5923   27.9740   23.7851 H         1 23D1591     0.0000 
     45 H          43.1859   27.2977   23.4071 H         1 23D1591     0.0000 
     46 H          43.2940   28.6597   21.6250 H         1 23D1591     0.0000 
     47 H          49.8070   31.4328   18.4011 H         1 23D1591     0.0000 
     48 H          50.1860   30.2953   19.4728 H         1 23D1591     0.0000 
     49 H          48.7301   30.3035   18.7898 H         1 23D1591     0.0000 
     50 H          41.4362   30.0966   21.1294 H         1 23D1591     0.0000 
     51 H          40.8740   28.6988   21.6919 H         1 23D1591     0.0000 
     52 H          40.8863   29.9995   22.6375 H         1 23D1591     0.0000 
@<TRIPOS>BOND
     1    2    1 ar   
     2    7    1 ar   
     3   28    1 1    
     4    3    2 1    
     5    4    2 ar   
     6    5    4 ar   
     7   29    4 1    
     8    6    5 ar   
     9   30    5 1    
    10    7    6 ar   
    11   31    6 1    
    12    8    7 1    
    13    9    8 1    
    14   32    8 1    
    15   10    9 ar   
    16   11    9 ar   
    17   19   10 ar   
    18   12   11 1    
    19   17   11 ar   
    20   13   12 2    
    21   14   13 1    
    22   33   13 1    
    23   15   14 1    
    24   17   14 1    
    25   16   15 1    
    26   34   15 1    
    27   35   15 1    
    28   47   16 1    
    29   48   16 1    
    30   49   16 1    
    31   18   17 ar   
    32   19   18 ar   
    33   20   19 1    
    34   21   20 1    
    35   36   20 1    
    36   22   21 1    
    37   26   21 1    
    38   37   21 1    
    39   23   22 1    
    40   38   22 1    
    41   39   22 1    
    42   24   23 1    
    43   40   23 1    
    44   41   23 1    
    45   25   24 1    
    46   42   24 1    
    47   43   24 1    
    48   26   25 1    
    49   44   25 1    
    50   45   25 1    
    51   27   26 1    
    52   46   26 1    
    53   50   27 1    
    54   51   27 1    
    55   52   27 1    
@<TRIPOS>SUBSTRUCTURE
     1 23D1591     1 GROUP   
@<TRIPOS>SET

