#    Name: 3heg_BAX_1_INTS_M
#    Modification time : Tue Mar 25 14:11:18 2014

@<TRIPOS>MOLECULE
3heg_BAX_1_INTS_M
   95     0     9     0     0
SMALL
NO_CHARGES


@<TRIPOS>ATOM
      1 CA         -1.3370    0.4660   25.4090 C.3       3 GLC5        0.0000 
      2 CA         -1.9780    2.2590   25.9480 C.3       9 GLL5        0.0000 
      3 CA         -0.6960   -1.3270   24.8700 C.3       6 GLP5        0.0000 
      4 CA         -2.6225    1.2355   24.1640 C.3       3 GLC5        0.0000 
      5 CA         -3.2670    0.2120   22.3800 C.3       6 GLP5        0.0000 
      6 CA         -0.1810    1.0555   21.6090 C.3       3 GLC5        0.0000 
      7 CA          1.6560    2.2710   21.6650 C.3       9 GLL5        0.0000 
      8 CA         -2.0180   -0.1600   21.5530 C.3       6 GLP5        0.0000 
      9 CA          0.2185    1.4090   19.9300 C.3       3 GLC5        0.0000 
     10 CA          2.3330    1.8220   20.5270 C.3       9 GLL5        0.0000 
     11 CA         -1.8960    0.9960   19.3330 C.3       6 GLP5        0.0000 
     12 CA          4.9910   -0.5445   22.0765 C.3       3 GLC5        0.0000 
     13 CA          4.3820    1.5940   21.8510 C.3       9 GLL5        0.0000 
     14 CA          5.6000   -2.6830   22.3020 C.3       6 GLP5        0.0000 
     15 CA          5.3855    2.7930   24.1605 C.3       3 GLC5        0.0000 
     16 CA          3.6920    2.0440   22.9670 C.3       9 GLL5        0.0000 
     17 CA          7.0790    3.5420   25.3540 C.3       6 GLP5        0.0000 
     18 CA          2.7105   -1.2655   20.8120 C.3       3 GLC5        0.0000 
     19 CA          3.7130   -1.0290   18.8880 C.3       9 GLL5        0.0000 
     20 CA          1.7080   -1.5020   22.7360 C.3       6 GLP5        0.0000 
     21 CA          4.2270   -3.9010   17.4010 C.3       3 GLC5        0.0000 
     22 CA          3.4170   -1.9280   17.8630 C.3       9 GLL5        0.0000 
     23 CA          5.0370   -5.8740   16.9390 C.3       6 GLP5        0.0000 
     24 CA          2.0935   -2.7075   16.8725 C.3       3 GLC5        0.0000 
     25 CA          0.7700   -3.4870   15.8820 C.3       6 GLP5        0.0000 
     26 CA          5.3660   -0.5655   12.9005 C.3       3 GLC5        0.0000 
     27 CA          3.2530   -1.0040   12.7050 C.3       9 GLL5        0.0000 
     28 CA          7.4790   -0.1270   13.0960 C.3       6 GLP5        0.0000 
     29 CA          1.3555   -0.7705   13.2710 C.3       3 GLC5        0.0000 
     30 CA         -0.5420   -0.5370   13.8370 C.3       6 GLP5        0.0000 
     31 CA         -6.7425    2.5205   25.5155 C.3       3 GLC5        0.0000 
     32 CA         -5.2380    1.1420   26.2110 C.3       9 GLL5        0.0000 
     33 CA         -8.2470    3.8990   24.8200 C.3       6 GLP5        0.0000 
     34 CA         -3.8370   -0.3035   29.4645 C.3       3 GLC5        0.0000 
     35 CA         -4.2250    0.6490   27.9280 C.3       9 GLL5        0.0000 
     36 CA         -3.4490   -1.2560   31.0010 C.3       6 GLP5        0.0000 
     37 CA         -3.9345    3.7550   29.4195 C.3       3 GLC5        0.0000 
     38 CA         -5.2760    3.5990   28.0420 C.3       9 GLL5        0.0000 
     39 CA         -2.5930    3.9110   30.7970 C.3       6 GLP5        0.0000 
     40 CA         -5.7995    3.8725   29.7920 C.3       3 GLC5        0.0000 
     41 CA         -6.3230    4.1460   31.5420 C.3       6 GLP5        0.0000 
     42 CA         -7.0850    4.3835   27.4795 C.3       3 GLC5        0.0000 
     43 CA         -8.8940    5.1680   26.9170 C.3       6 GLP5        0.0000 
     44 O           0.9455    4.4225   25.9080 O.2       1 ALC1        0.0000 
     45 O          -0.0220    3.4870   25.2640 O.2       7 ALL1        0.0000 
     46 O           1.9130    5.3580   26.5520 O.2       4 ALP1        0.0000 
     47 O           2.6145    3.7035   24.6030 O.2       1 ALC1        0.0000 
     48 O           1.7480    2.8090   24.0510 O.2       7 ALL1        0.0000 
     49 O           3.4810    4.5980   25.1550 O.2       4 ALP1        0.0000 
     50 N          -1.5205    2.2650   22.9450 N.am      2 SEC2        0.0000 
     51 N          -0.2620    1.9460   23.6160 N.am      8 SEL2        0.0000 
     52 N          -2.7790    2.5840   22.2740 N.am      5 SEP2        0.0000 
     53 CA          5.7090    1.6265   17.7400 C.3       3 GLC5        0.0000 
     54 CA          4.1550    0.2360   18.5580 C.3       9 GLL5        0.0000 
     55 CA          7.2630    3.0170   16.9220 C.3       6 GLP5        0.0000 
     56 N           3.2370   -3.1955   16.3985 N.am      2 SEC2        0.0000 
     57 N           3.5810   -1.5370   16.5780 N.am      8 SEL2        0.0000 
     58 N           2.8930   -4.8540   16.2190 N.am      5 SEP2        0.0000 
     59 CA         -1.4510    2.5432   27.6493 C.3       3 GLC5        0.0000 
     60 CA         -1.2990    2.2430   29.3960 C.3       6 GLP5        0.0000 
     61 CA         -2.4965    3.8102   24.5312 C.3       3 GLC5        0.0000 
     62 CA         -3.3900    4.7770   23.1600 C.3       6 GLP5        0.0000 
     63 CA         -1.8040    3.4343   28.0860 C.3       3 GLC5        0.0000 
     64 CA         -1.6980    4.5910   26.4520 C.3       9 GLL5        0.0000 
     65 CA         -2.8495    4.7012   24.9680 C.3       3 GLC5        0.0000 
     66 CA         -2.9200    4.6600   27.1000 C.3       9 GLL5        0.0000 
     67 CA          3.6440    1.9410   24.8573 C.3       3 GLC5        0.0000 
     68 CA          2.3380    2.3780   22.9000 C.3       9 GLL5        0.0000 
     69 CA          4.2730    1.6710   26.7810 C.3       6 GLP5        0.0000 
     70 CA          1.8525    0.4113   22.5092 C.3       3 GLC5        0.0000 
     71 CA          2.3640    0.0773   21.6583 C.3       3 GLC5        0.0000 
     72 CA          2.8725    0.1585   22.5725 C.3       3 GLC5        0.0000 
     73 CA          5.2011    3.1186   21.6144 C.3       3 GLC5        0.0000 
     74 CA          6.5340    4.4440   21.1240 C.3       6 GLP5        0.0000 
     75 CA          6.0503    0.4520   16.4477 C.3       3 GLC5        0.0000 
     76 CA          4.3280    0.6230   17.2290 C.3       9 GLL5        0.0000 
     77 CA          7.9160    0.7470   16.1630 C.3       6 GLP5        0.0000 
     78 CA         -2.3818    2.5715   28.1360 C.3       3 GLC5        0.0000 
     79 CA         -3.2190    2.2650   26.5840 C.3       9 GLL5        0.0000 
     80 CA         -3.4272    3.8385   25.0180 C.3       3 GLC5        0.0000 
     81 CA         -2.7182    1.5330   28.3545 C.3       3 GLC5        0.0000 
     82 CA         -4.0500    0.9970   26.6980 C.3       9 GLL5        0.0000 
     83 CA         -2.2305   -0.4140   25.6400 C.3       3 GLC5        0.0000 
     84 CA         -3.4800    0.0010   26.1220 C.3       9 GLL5        0.0000 
     85 CA         -5.5960   -0.0099   25.1371 C.3       3 GLC5        0.0000 
     86 CA         -7.1300   -0.5550   23.9860 C.3       6 GLP5        0.0000 
     87 CA         -3.6645    0.3736   24.3341 C.3       3 GLC5        0.0000 
     88 CA         -3.9010   -1.2505   27.3640 C.3       3 GLC5        0.0000 
     89 CA         -3.8070   -3.0750   27.5590 C.3       6 GLP5        0.0000 
     90 CA         -5.9478   -0.1419   27.5856 C.3       3 GLC5        0.0000 
     91 CA         -7.4610   -1.1430   27.9800 C.3       6 GLP5        0.0000 
     92 CA          4.2355   -1.8161   19.8599 C.3       3 GLC5        0.0000 
     93 CA          4.6110   -3.0110   21.2530 C.3       6 GLP5        0.0000 
     94 CA          5.5066   -1.3781   17.9048 C.3       3 GLC5        0.0000 
     95 CA          6.9910   -2.5240   18.2100 C.3       6 GLP5        0.0000 
@<TRIPOS>BOND
@<TRIPOS>SUBSTRUCTURE
     1 ALC1       44 GROUP        1 X    ALC  0     ROOT ALC X 1
     2 SEC2       50 GROUP        1 X    SEC  0     **** SEC X 2
     3 GLC5        1 GROUP        1 X    GLC  0     **** GLC X 6
     4 ALP1       46 GROUP        1 Y    ALP  0     ROOT ALP Y 8
     5 SEP2       52 GROUP        1 Y    SEP  0     **** SEP Y 9
     6 GLP5        3 GROUP        1 Y    GLP  0     **** GLP Y 13
     7 ALL1       45 GROUP        1 Z    ALL  0     ROOT ALL Z 15
     8 SEL2       51 GROUP        1 Z    SEL  0     **** SEL Z 16
     9 GLL5        2 GROUP        1 Z    GLL  0     **** GLL Z 20
@<TRIPOS>SET

