#    Name: 3heg_BAX_1_ligand
#    Modification time : Tue Mar 25 14:11:18 2014

@<TRIPOS>MOLECULE
3heg_BAX_1_ligand
   48    50     1     0     0
SMALL
NO_CHARGES


@<TRIPOS>ATOM
      1 C1         -1.9780    2.2590   25.9480 C.ar      1 BAX1        0.0000 
      2 C2         -1.2280    3.4280   25.8570 C.ar      1 BAX1        0.0000 
      3 C3         -1.6980    4.5910   26.4520 C.ar      1 BAX1        0.0000 
      4 C4         -2.9200    4.6600   27.1000 C.ar      1 BAX1        0.0000 
      5 C13         0.4480    2.7040   24.2850 C.2       1 BAX1        0.0000 
      6 C16         2.3380    2.3780   22.9000 C.ar      1 BAX1        0.0000 
      7 C17         1.6560    2.2710   21.6650 C.ar      1 BAX1        0.0000 
      8 C18         2.3330    1.8220   20.5270 C.ar      1 BAX1        0.0000 
      9 C19         3.7070    1.4910   20.6340 C.ar      1 BAX1        0.0000 
     10 C20         4.3820    1.5940   21.8510 C.ar      1 BAX1        0.0000 
     11 C21         3.6920    2.0440   22.9670 C.ar      1 BAX1        0.0000 
     12 O22         4.4640    1.0880   19.5620 O.3       1 BAX1        0.0000 
     13 C24         3.7130   -1.0290   18.8880 C.ar      1 BAX1        0.0000 
     14 C25         3.4170   -1.9280   17.8630 C.ar      1 BAX1        0.0000 
     15 C27         4.0410   -0.3090   16.2360 C.ar      1 BAX1        0.0000 
     16 C28         4.3280    0.6230   17.2290 C.ar      1 BAX1        0.0000 
     17 N30         4.1010   -1.0340   13.8920 N.am      1 BAX1        0.0000 
     18 C31         3.2530   -1.0040   12.7050 C.3       1 BAX1        0.0000 
     19 C5         -3.7100    3.5350   27.1680 C.ar      1 BAX1        0.0000 
     20 C6         -3.2190    2.2650   26.5840 C.ar      1 BAX1        0.0000 
     21 C7         -4.0500    0.9970   26.6980 C.3       1 BAX1        0.0000 
     22 F8         -5.2380    1.1420   26.2110 F         1 BAX1        0.0000 
     23 F9         -3.4800    0.0010   26.1220 F         1 BAX1        0.0000 
     24 F10        -4.2250    0.6490   27.9280 F         1 BAX1        0.0000 
     25 CL11       -5.2760    3.5990   28.0420 Cl        1 BAX1        0.0000 
     26 N12        -0.0220    3.4870   25.2640 N.am      1 BAX1        0.0000 
     27 N14         1.7480    2.8090   24.0510 N.am      1 BAX1        0.0000 
     28 O15        -0.2620    1.9460   23.6160 O.2       1 BAX1        0.0000 
     29 C23         4.1550    0.2360   18.5580 C.ar      1 BAX1        0.0000 
     30 N26         3.5810   -1.5370   16.5780 N.ar      1 BAX1        0.0000 
     31 C29         4.1310    0.0000   14.7620 C.2       1 BAX1        0.0000 
     32 O32         4.1550    1.1730   14.3910 O.2       1 BAX1        0.0000 
     33 H          -1.6153    1.3838   25.5436 H         1 BAX1        0.0000 
     34 H          -1.1015    5.4527   26.4081 H         1 BAX1        0.0000 
     35 H          -3.2297    5.5422   27.5237 H         1 BAX1        0.0000 
     36 H           0.6657    2.5244   21.6122 H         1 BAX1        0.0000 
     37 H           1.8566    1.7317   19.6357 H         1 BAX1        0.0000 
     38 H           5.3692    1.3409   21.9151 H         1 BAX1        0.0000 
     39 H           4.1895    2.1358   23.8733 H         1 BAX1        0.0000 
     40 H           3.6022   -1.3090   19.8641 H         1 BAX1        0.0000 
     41 H           3.0804   -2.8693   18.1004 H         1 BAX1        0.0000 
     42 H           4.6525    1.5537   16.9955 H         1 BAX1        0.0000 
     43 H           4.6735   -1.8844   14.0293 H         1 BAX1        0.0000 
     44 H           0.6551    4.2705   25.6274 H         1 BAX1        0.0000 
     45 H           2.3776    3.2502   24.7897 H         1 BAX1        0.0000 
     46 H           3.4823   -0.2383   12.1040 H         1 BAX1        0.0000 
     47 H           3.3433   -1.8394   12.1628 H         1 BAX1        0.0000 
     48 H           2.2859   -0.9113   12.9417 H         1 BAX1        0.0000 
@<TRIPOS>BOND
     1    2    1 ar   
     2   20    1 ar   
     3   33    1 1    
     4    3    2 ar   
     5   26    2 1    
     6    4    3 ar   
     7   34    3 1    
     8   19    4 ar   
     9   35    4 1    
    10   26    5 am   
    11   27    5 am   
    12   28    5 2    
    13    7    6 ar   
    14   11    6 ar   
    15   27    6 1    
    16    8    7 ar   
    17   36    7 1    
    18    9    8 ar   
    19   37    8 1    
    20   10    9 ar   
    21   12    9 1    
    22   11   10 ar   
    23   38   10 1    
    24   39   11 1    
    25   29   12 1    
    26   14   13 ar   
    27   29   13 ar   
    28   40   13 1    
    29   30   14 ar   
    30   41   14 1    
    31   16   15 ar   
    32   30   15 ar   
    33   31   15 1    
    34   29   16 ar   
    35   42   16 1    
    36   18   17 1    
    37   31   17 am   
    38   43   17 1    
    39   46   18 1    
    40   47   18 1    
    41   48   18 1    
    42   20   19 ar   
    43   25   19 1    
    44   21   20 1    
    45   22   21 1    
    46   23   21 1    
    47   24   21 1    
    48   44   26 1    
    49   45   27 1    
    50   32   31 2    
@<TRIPOS>SUBSTRUCTURE
     1 BAX1        1 GROUP   
@<TRIPOS>SET

