#    Name: 3znr_NU9_1_INTS_M
#    Modification time : Tue Mar 25 03:43:29 2014

@<TRIPOS>MOLECULE
3znr_NU9_1_INTS_M
   60     0     6     0     0
SMALL
NO_CHARGES


@<TRIPOS>ATOM
      1 CA         -0.7800   -1.7235  -11.4340 C.3       2 GLC5        0.0000 
      2 CA         -2.3520   -1.2290  -12.7580 C.3       6 GLL5        0.0000 
      3 CA          0.7920   -2.2180  -10.1100 C.3       4 GLP5        0.0000 
      4 CA         -3.7710   -4.3545  -13.3730 C.3       2 GLC5        0.0000 
      5 CA         -3.8520   -2.7950  -12.7110 C.3       6 GLL5        0.0000 
      6 CA         -3.6900   -5.9140  -14.0350 C.3       4 GLP5        0.0000 
      7 CA         -1.8785   -2.0995  -10.0070 C.3       2 GLC5        0.0000 
      8 CA         -3.5080   -1.5610  -10.9480 C.3       6 GLL5        0.0000 
      9 CA         -0.2490   -2.6380   -9.0660 C.3       4 GLP5        0.0000 
     10 Zn         -4.8340    0.7335  -11.2640 Zn        1 ZIC7        0.0000 
     11 Zn         -4.5130    0.7690  -12.5620 Zn        5 ZIL7        0.0000 
     12 Zn         -5.1550    0.6980   -9.9660 Zn        3 ZIP7        0.0000 
     13 CA         -7.5635   -2.3220  -13.6375 C.3       2 GLC5        0.0000 
     14 CA         -8.2790   -0.7610  -14.7530 C.3       6 GLL5        0.0000 
     15 CA         -6.8480   -3.8830  -12.5220 C.3       4 GLP5        0.0000 
     16 CA         -3.9800    6.2690  -18.1835 C.3       2 GLC5        0.0000 
     17 CA         -4.8640    6.5640  -16.7600 C.3       6 GLL5        0.0000 
     18 CA         -3.0960    5.9740  -19.6070 C.3       4 GLP5        0.0000 
     19 CA         -3.1275    7.3310  -16.4240 C.3       2 GLC5        0.0000 
     20 CA         -1.3910    8.0980  -16.0880 C.3       4 GLP5        0.0000 
     21 CA         -5.2515    6.0760  -18.5585 C.3       2 GLC5        0.0000 
     22 CA         -6.2920    7.1180  -17.2710 C.3       6 GLL5        0.0000 
     23 CA         -4.2110    5.0340  -19.8460 C.3       4 GLP5        0.0000 
     24 CA         -2.1940    1.4620  -17.0920 C.3       2 GLC5        0.0000 
     25 CA         -3.3670    2.0370  -15.3820 C.3       6 GLL5        0.0000 
     26 CA         -1.0210    0.8870  -18.8020 C.3       4 GLP5        0.0000 
     27 CA         -2.8480    5.2695  -17.9535 C.3       2 GLC5        0.0000 
     28 CA         -2.6000    4.5650  -16.3000 C.3       6 GLL5        0.0000 
     29 CA         -1.1780    1.2070  -16.5740 C.3       2 GLC5        0.0000 
     30 CA         -2.0080    2.3810  -15.4260 C.3       6 GLL5        0.0000 
     31 CA         -0.3480    0.0330  -17.7220 C.3       4 GLP5        0.0000 
     32 CA         -2.0596   -2.8285  -12.6460 C.3       2 GLC5        0.0000 
     33 CA         -0.6660   -3.8270  -13.5110 C.3       4 GLP5        0.0000 
     34 CA         -3.8442   -3.2963  -10.7524 C.3       2 GLC5        0.0000 
     35 CA         -3.5380   -1.5770  -12.2760 C.3       6 GLL5        0.0000 
     36 CA         -4.0870   -4.7190   -9.7840 C.3       4 GLP5        0.0000 
     37 CA         -5.2248   -2.8782  -12.1214 C.3       2 GLC5        0.0000 
     38 CA         -2.1513   -0.2400  -11.3923 C.3       2 GLC5        0.0000 
     39 CA         -1.0760    1.0020  -11.0520 C.3       4 GLP5        0.0000 
     40 CA         -8.5900    1.1530  -12.4428 C.3       2 GLC5        0.0000 
     41 CA         -7.6150    0.3910  -14.3000 C.3       6 GLL5        0.0000 
     42 CA         -9.2890    1.2840  -10.4510 C.3       4 GLP5        0.0000 
     43 CA         -8.3160   -2.2923  -15.8460 C.3       2 GLC5        0.0000 
     44 CA         -7.7510   -3.8810  -16.5840 C.3       4 GLP5        0.0000 
     45 CA        -11.2015   -0.0582  -14.0685 C.3       2 GLC5        0.0000 
     46 CA         -9.4830   -0.6460  -15.4630 C.3       6 GLL5        0.0000 
     47 CA        -12.6450   -0.1000  -12.5430 C.3       4 GLP5        0.0000 
     48 CA         -4.3320    4.8555  -18.1530 C.3       2 GLC5        0.0000 
     49 CA         -4.9450    5.1260  -16.6630 C.3       6 GLL5        0.0000 
     50 CA         -5.3825    7.3155  -15.3248 C.3       2 GLC5        0.0000 
     51 CA         -5.1870    7.7900  -13.6340 C.3       4 GLP5        0.0000 
     52 CA         -5.3312    4.7153  -14.5755 C.3       2 GLC5        0.0000 
     53 CA         -6.2670    5.6140  -13.0230 C.3       4 GLP5        0.0000 
     54 CA         -1.2145    3.1635  -17.5943 C.3       2 GLC5        0.0000 
     55 CA         -0.3150    2.2210  -19.0960 C.3       4 GLP5        0.0000 
     56 CA          0.2085    3.1625  -16.0068 C.3       2 GLC5        0.0000 
     57 CA         -1.6280    3.6470  -15.8850 C.3       6 GLL5        0.0000 
     58 CA          2.2350    3.3110  -16.3580 C.3       4 GLP5        0.0000 
     59 CA         -1.9831    5.7424  -15.4094 C.3       2 GLC5        0.0000 
     60 CA         -1.5120    7.4630  -14.7370 C.3       4 GLP5        0.0000 
@<TRIPOS>BOND
@<TRIPOS>SUBSTRUCTURE
     1 ZIC7       10 GROUP        1 X    ZIC  0     ROOT ZIC X 5
     2 GLC5        1 GROUP        1 X    GLC  0     **** GLC X 6
     3 ZIP7       12 GROUP        1 Y    ZIP  0     ROOT ZIP Y 12
     4 GLP5        3 GROUP        1 Y    GLP  0     **** GLP Y 13
     5 ZIL7       11 GROUP        1 Z    ZIL  0     ROOT ZIL Z 19
     6 GLL5        2 GROUP        1 Z    GLL  0     **** GLL Z 20
@<TRIPOS>SET

