#    Name: 3znr_NU9_1_ligand
#    Modification time : Tue Mar 25 03:43:29 2014

@<TRIPOS>MOLECULE
3znr_NU9_1_ligand
   57    61     1     0     0
SMALL
NO_CHARGES


@<TRIPOS>ATOM
      1 F01        -2.3520   -1.2290  -12.7580 F         1 NU91000     0.0000 
      2 C02        -3.5380   -1.5770  -12.2760 C.3       1 NU91000     0.0000 
      3 F03        -3.8520   -2.7950  -12.7110 F         1 NU91000     0.0000 
      4 F04        -3.5080   -1.5610  -10.9480 F         1 NU91000     0.0000 
      5 C05        -4.5600   -0.6010  -12.7360 C.2       1 NU91000     0.0000 
      6 N06        -5.7140   -0.9060  -13.3770 N.2       1 NU91000     0.0000 
      7 C07        -6.4170    0.2810  -13.6040 C.2       1 NU91000     0.0000 
      8 N08        -5.6580    1.3040  -13.1290 N.2       1 NU91000     0.0000 
      9 O09        -4.5130    0.7690  -12.5620 O.3       1 NU91000     0.0000 
     10 C10        -7.6150    0.3910  -14.3000 C.ar      1 NU91000     0.0000 
     11 C11        -8.2790   -0.7610  -14.7530 C.ar      1 NU91000     0.0000 
     12 C12        -9.4830   -0.6460  -15.4630 C.ar      1 NU91000     0.0000 
     13 C13       -10.0330    0.6130  -15.7250 C.ar      1 NU91000     0.0000 
     14 C14        -9.3760    1.7610  -15.2680 C.ar      1 NU91000     0.0000 
     15 C15        -8.1670    1.6530  -14.5690 C.ar      1 NU91000     0.0000 
     16 C16        -9.9300    3.1120  -15.5560 C.2       1 NU91000     0.0000 
     17 O17       -11.0670    3.4290  -15.2390 O.2       1 NU91000     0.0000 
     18 N18        -9.0430    3.9960  -16.2380 N.am      1 NU91000     0.0000 
     19 C19        -9.3750    5.3410  -16.6240 C.3       1 NU91000     0.0000 
     20 C20        -8.6790    5.9040  -17.8860 C.3       1 NU91000     0.0000 
     21 C21        -9.3620    7.2260  -18.1040 C.3       1 NU91000     0.0000 
     22 C22        -9.1840    7.7470  -19.5350 C.3       1 NU91000     0.0000 
     23 O23        -8.4900    6.8350  -20.4010 O.3       1 NU91000     0.0000 
     24 C24        -8.9880    5.4860  -20.3600 C.3       1 NU91000     0.0000 
     25 C25        -9.0510    4.9000  -18.9430 C.3       1 NU91000     0.0000 
     26 C26        -7.2350    5.9110  -17.4560 C.2       1 NU91000     0.0000 
     27 N27        -6.4450    4.6980  -17.1390 N.2       1 NU91000     0.0000 
     28 C28        -4.9450    5.1260  -16.6630 C.2       1 NU91000     0.0000 
     29 C29        -4.8640    6.5640  -16.7600 C.2       1 NU91000     0.0000 
     30 S30        -6.2920    7.1180  -17.2710 S.3       1 NU91000     0.0000 
     31 C31        -3.3670    2.0370  -15.3820 C.ar      1 NU91000     0.0000 
     32 C32        -4.3380    2.9560  -15.7960 C.ar      1 NU91000     0.0000 
     33 C33        -3.9610    4.2280  -16.2570 C.ar      1 NU91000     0.0000 
     34 C34        -2.6000    4.5650  -16.3000 C.ar      1 NU91000     0.0000 
     35 C35        -1.6280    3.6470  -15.8850 C.ar      1 NU91000     0.0000 
     36 C36        -2.0080    2.3810  -15.4260 C.ar      1 NU91000     0.0000 
     37 H          -7.8821   -1.6867  -14.5638 H         1 NU91000     0.0000 
     38 H          -9.9629   -1.4932  -15.7922 H         1 NU91000     0.0000 
     39 H         -10.9083    0.6944  -16.2464 H         1 NU91000     0.0000 
     40 H          -7.6816    2.5000  -14.2515 H         1 NU91000     0.0000 
     41 H          -8.0855    3.6474  -16.4757 H         1 NU91000     0.0000 
     42 H          -9.1581    6.0624  -15.7886 H         1 NU91000     0.0000 
     43 H         -10.4820    5.4473  -16.7931 H         1 NU91000     0.0000 
     44 H          -8.9576    7.9717  -17.4075 H         1 NU91000     0.0000 
     45 H         -10.4357    7.1270  -17.8989 H         1 NU91000     0.0000 
     46 H          -8.6521    8.7208  -19.4689 H         1 NU91000     0.0000 
     47 H         -10.1960    7.9833  -19.9295 H         1 NU91000     0.0000 
     48 H          -8.3574    4.8072  -20.9713 H         1 NU91000     0.0000 
     49 H         -10.0092    5.4225  -20.7903 H         1 NU91000     0.0000 
     50 H         -10.0696    4.5316  -18.7625 H         1 NU91000     0.0000 
     51 H          -8.3725    4.0382  -18.8911 H         1 NU91000     0.0000 
     52 H          -4.1900    7.1326  -16.5900 H         1 NU91000     0.0000 
     53 H          -3.6484    1.1098  -15.0456 H         1 NU91000     0.0000 
     54 H          -5.3323    2.7009  -15.7634 H         1 NU91000     0.0000 
     55 H          -2.3156    5.4929  -16.6389 H         1 NU91000     0.0000 
     56 H          -0.6349    3.9033  -15.9176 H         1 NU91000     0.0000 
     57 H          -1.2992    1.7086  -15.1237 H         1 NU91000     0.0000 
@<TRIPOS>BOND
     1    2    1 1    
     2    3    2 1    
     3    4    2 1    
     4    5    2 1    
     5    6    5 2    
     6    9    5 1    
     7    7    6 1    
     8    8    7 2    
     9   10    7 1    
    10    9    8 1    
    11   11   10 ar   
    12   15   10 ar   
    13   12   11 ar   
    14   37   11 1    
    15   13   12 ar   
    16   38   12 1    
    17   14   13 ar   
    18   39   13 1    
    19   15   14 ar   
    20   16   14 1    
    21   40   15 1    
    22   17   16 2    
    23   18   16 am   
    24   19   18 1    
    25   41   18 1    
    26   20   19 1    
    27   42   19 1    
    28   43   19 1    
    29   21   20 1    
    30   25   20 1    
    31   26   20 1    
    32   22   21 1    
    33   44   21 1    
    34   45   21 1    
    35   23   22 1    
    36   46   22 1    
    37   47   22 1    
    38   24   23 1    
    39   25   24 1    
    40   48   24 1    
    41   49   24 1    
    42   50   25 1    
    43   51   25 1    
    44   27   26 2    
    45   30   26 1    
    46   28   27 1    
    47   29   28 2    
    48   33   28 1    
    49   30   29 1    
    50   52   29 1    
    51   32   31 ar   
    52   36   31 ar   
    53   53   31 1    
    54   33   32 ar   
    55   54   32 1    
    56   34   33 ar   
    57   35   34 ar   
    58   55   34 1    
    59   36   35 ar   
    60   56   35 1    
    61   57   36 1    
@<TRIPOS>SUBSTRUCTURE
     1 NU91000     1 GROUP   
@<TRIPOS>SET

