#    Name: 2zat_NAP_4_INTS_M
#    Modification time : Tue Mar 25 10:27:08 2014

@<TRIPOS>MOLECULE
2zat_NAP_4_INTS_M
  121     0    12     0     0
SMALL
NO_CHARGES


@<TRIPOS>ATOM
      1 N          45.1010   41.6115   64.4080 N.am      2 SEC2        0.0000 
      2 N          44.0080   42.6520   65.1230 N.am     10 SEL2        0.0000 
      3 N          46.1940   40.5710   63.6930 N.am      6 SEP2        0.0000 
      4 CA         38.2930   44.1845   67.0005 C.3       4 GLC5        0.0000 
      5 CA         40.3480   44.3350   66.8700 C.3      12 GLL5        0.0000 
      6 CA         36.2380   44.0340   67.1310 C.3       8 GLP5        0.0000 
      7 CA         42.1855   46.4015   66.6120 C.3       4 GLC5        0.0000 
      8 CA         40.9600   45.3390   67.8250 C.3      12 GLL5        0.0000 
      9 CA         43.4110   47.4640   65.3990 C.3       8 GLP5        0.0000 
     10 N          39.5945   47.8795   67.2015 N.am      2 SEC2        0.0000 
     11 N          40.2290   46.5430   67.6580 N.am     10 SEL2        0.0000 
     12 N          38.9600   49.2160   66.7450 N.am      6 SEP2        0.0000 
     13 O          40.3490   47.6555   68.4180 O.2       1 ALC1        0.0000 
     14 O          40.2290   46.5430   67.6580 O.2       9 ALL1        0.0000 
     15 O          40.4690   48.7680   69.1780 O.2       5 ALP1        0.0000 
     16 CA         37.7920   44.0895   68.0485 C.3       4 GLC5        0.0000 
     17 CA         39.3460   44.1450   68.9660 C.3      12 GLL5        0.0000 
     18 CA         38.3040   41.9565   72.8170 C.3       4 GLC5        0.0000 
     19 CA         37.6210   41.8380   71.1570 C.3      12 GLL5        0.0000 
     20 CA         38.9870   42.0750   74.4770 C.3       8 GLP5        0.0000 
     21 CA         37.3005   42.4415   73.2305 C.3       4 GLC5        0.0000 
     22 CA         36.4810   41.5960   71.9230 C.3      12 GLL5        0.0000 
     23 CA         38.1200   43.2870   74.5380 C.3       8 GLP5        0.0000 
     24 CA         35.2485   42.4805   73.5690 C.3       4 GLC5        0.0000 
     25 CA         34.0160   43.3650   75.2150 C.3       8 GLP5        0.0000 
     26 CA         34.5245   40.9200   71.5605 C.3       4 GLC5        0.0000 
     27 CA         32.5680   40.2440   71.1980 C.3       8 GLP5        0.0000 
     28 O          35.4440   40.4155   74.0925 O.2       1 ALC1        0.0000 
     29 O          36.3110   40.4600   72.5850 O.2       9 ALL1        0.0000 
     30 O          34.5770   40.3710   75.6000 O.2       5 ALP1        0.0000 
     31 N          34.0700   42.3670   72.7760 N.am      2 SEC2        0.0000 
     32 N          35.4710   42.5180   72.0040 N.am     10 SEL2        0.0000 
     33 N          32.6690   42.2160   73.5480 N.am      6 SEP2        0.0000 
     34 CA         35.9230   43.8665   69.2280 C.3       4 GLC5        0.0000 
     35 CA         35.6080   43.6990   71.3250 C.3      12 GLL5        0.0000 
     36 CA         36.2335   45.5110   71.5310 C.3       4 GLC5        0.0000 
     37 CA         36.8590   47.3230   71.7370 C.3       8 GLP5        0.0000 
     38 CA         36.8640   43.4930   72.9315 C.3       4 GLC5        0.0000 
     39 CA         34.8120   43.5320   73.2700 C.3       4 GLC5        0.0000 
     40 CA         33.6975   43.1450   71.0150 C.3       4 GLC5        0.0000 
     41 CA         31.7870   42.5910   70.7050 C.3       8 GLP5        0.0000 
     42 CA         34.9845   42.3495   69.7765 C.3       4 GLC5        0.0000 
     43 CA         34.3610   41.0000   68.2280 C.3       8 GLP5        0.0000 
     44 CA         36.9805   43.5415   68.8155 C.3       4 GLC5        0.0000 
     45 CA         37.7230   43.0490   70.5000 C.3      12 GLL5        0.0000 
     46 CA         37.9350   45.2175   70.7130 C.3       4 GLC5        0.0000 
     47 CA         38.1470   47.3860   70.9260 C.3       8 GLP5        0.0000 
     48 CA         37.9215   43.1680   72.5190 C.3       4 GLC5        0.0000 
     49 N          43.6035   41.1395   61.1325 N.am      2 SEC2        0.0000 
     50 N          42.3240   41.0110   61.4690 N.am     10 SEL2        0.0000 
     51 N          44.8830   41.2680   60.7960 N.am      6 SEP2        0.0000 
     52 N          40.8335   44.4425   60.8510 N.am      2 SEC2        0.0000 
     53 N          41.1060   43.2200   61.4950 N.am     10 SEL2        0.0000 
     54 N          40.5610   45.6650   60.2070 N.am      6 SEP2        0.0000 
     55 CA         38.8425   43.0045   60.6525 C.3       4 GLC5        0.0000 
     56 CA         38.7720   41.7000   62.2970 C.3      12 GLL5        0.0000 
     57 CA         38.9130   44.3090   59.0080 C.3       8 GLP5        0.0000 
     58 CA         36.3680   40.4160   60.4435 C.3       4 GLC5        0.0000 
     59 CA         37.8310   40.6330   61.7350 C.3      12 GLL5        0.0000 
     60 CA         34.9050   40.1990   59.1520 C.3       8 GLP5        0.0000 
     61 N          35.8340   37.4815   62.4645 N.am      2 SEC2        0.0000 
     62 N          36.3740   38.8740   62.6160 N.am     10 SEL2        0.0000 
     63 N          35.2940   36.0890   62.3130 N.am      6 SEP2        0.0000 
     64 CA         37.3520   36.6455   61.8660 C.3       4 GLC5        0.0000 
     65 CA         38.6180   38.4060   61.8670 C.3      12 GLL5        0.0000 
     66 CA         36.0860   34.8850   61.8650 C.3       8 GLP5        0.0000 
     67 CA         40.3440   38.1145   62.8470 C.3       4 GLC5        0.0000 
     68 CA         42.0700   37.8230   63.8270 C.3       8 GLP5        0.0000 
     69 N          38.8255   35.9835   61.6305 N.am      2 SEC2        0.0000 
     70 N          38.2850   37.0730   62.1650 N.am     10 SEL2        0.0000 
     71 N          39.3660   34.8940   61.0960 N.am      6 SEP2        0.0000 
     72 N          36.7895   36.5810   62.2390 N.am      2 SEC2        0.0000 
     73 CA         39.0130   40.5000   59.1150 C.3       4 GLC5        0.0000 
     74 CA         38.3490   38.8090   60.4280 C.3      12 GLL5        0.0000 
     75 CA         39.6770   42.1910   57.8020 C.3       8 GLP5        0.0000 
     76 CA         36.6270   39.5040   59.7900 C.3       4 GLC5        0.0000 
     77 N          43.9600   38.6735   55.9930 N.am      2 SEC2        0.0000 
     78 N          43.6350   38.0160   57.2810 N.am     10 SEL2        0.0000 
     79 N          44.2850   39.3310   54.7050 N.am      6 SEP2        0.0000 
     80 O          44.4925   39.9665   58.0055 O.2       1 ALC1        0.0000 
     81 O          43.3850   39.5980   59.1120 O.2       9 ALL1        0.0000 
     82 O          45.6000   40.3350   56.8990 O.2       5 ALP1        0.0000 
     83 O          45.0920   39.3375   59.0170 O.2       1 ALC1        0.0000 
     84 O          46.7990   39.0770   58.9220 O.2       5 ALP1        0.0000 
     85 CA         37.6985   37.9205   57.2410 C.3       4 GLC5        0.0000 
     86 CA         38.9590   37.2690   58.6550 C.3      12 GLL5        0.0000 
     87 CA         36.4380   38.5720   55.8270 C.3       8 GLP5        0.0000 
     88 N          40.0595   47.5570   71.9180 N.am      2 SEC2        0.0000 
     89 N          41.0310   46.8100   72.3580 N.am     10 SEL2        0.0000 
     90 N          39.0880   48.3040   71.4780 N.am      6 SEP2        0.0000 
     91 N          40.4760   47.1320   73.8105 N.am      2 SEC2        0.0000 
     92 N          39.9210   47.4540   75.2630 N.am      6 SEP2        0.0000 
     93 N          42.3495   47.3875   72.3420 N.am      2 SEC2        0.0000 
     94 N          43.6680   47.9650   72.3260 N.am      6 SEP2        0.0000 
     95 NZ         42.2500   43.2785   72.2150 N.4       3 LYC4        0.0000 
     96 NZ         42.3970   44.7470   71.8360 N.4      11 LYL4        0.0000 
     97 NZ         41.1170   41.4580   73.4040 N.4       7 LYP4        0.0000 
     98 N          42.2500   43.2785   72.2150 N.am      2 SEC2        0.0000 
     99 N          42.3970   44.7470   71.8360 N.am     10 SEL2        0.0000 
    100 N          42.1030   41.8100   72.5940 N.am      6 SEP2        0.0000 
    101 NZ         40.0065   43.4595   72.9265 N.4       3 LYC4        0.0000 
    102 NZ         39.8990   44.6100   72.2450 N.4      11 LYL4        0.0000 
    103 N          38.9300   45.3715   72.9180 N.am      2 SEC2        0.0000 
    104 N          39.8990   44.6100   72.2450 N.am     10 SEL2        0.0000 
    105 N          37.9610   46.1330   73.5910 N.am      6 SEP2        0.0000 
    106 N          40.0065   43.4595   72.9265 N.am      2 SEC2        0.0000 
    107 N          40.1140   42.3090   73.6080 N.am      6 SEP2        0.0000 
    108 CA         39.0915   45.9145   70.0042 C.3       4 GLC5        0.0000 
    109 CA         40.7260   44.7410   69.1990 C.3      12 GLL5        0.0000 
    110 CA         35.7060   41.3585   69.8840 C.3       4 GLC5        0.0000 
    111 CA         37.6515   37.9690   63.8945 C.3       4 GLC5        0.0000 
    112 CA         37.7140   39.3740   62.6030 C.3      12 GLL5        0.0000 
    113 CA         37.1370   37.0480   65.5540 C.3       8 GLP5        0.0000 
    114 CA         40.3512   40.3925   58.3182 C.3       4 GLC5        0.0000 
    115 CA         40.5990   38.8670   59.3180 C.3      12 GLL5        0.0000 
    116 CA         39.4778   38.1958   56.3385 C.3       4 GLC5        0.0000 
    117 CA         41.0660   37.2480   57.5540 C.3      12 GLL5        0.0000 
    118 CA         38.5220   39.4080   55.0520 C.3       8 GLP5        0.0000 
    119 CA         38.3605   35.5005   57.9728 C.3       4 GLC5        0.0000 
    120 CA         39.8010   36.7190   57.6960 C.3      12 GLL5        0.0000 
    121 CA         37.3410   34.0070   57.7700 C.3       8 GLP5        0.0000 
@<TRIPOS>BOND
@<TRIPOS>SUBSTRUCTURE
     1 ALC1       13 GROUP        1 X    ALC  0     ROOT ALC X 1
     2 SEC2        1 GROUP        1 X    SEC  0     **** SEC X 2
     3 LYC4       95 GROUP        1 X    LYC  0     **** LYC X 4
     4 GLC5        4 GROUP        1 X    GLC  0     **** GLC X 6
     5 ALP1       15 GROUP        1 Y    ALP  0     ROOT ALP Y 8
     6 SEP2        3 GROUP        1 Y    SEP  0     **** SEP Y 9
     7 LYP4       97 GROUP        1 Y    LYP  0     **** LYP Y 11
     8 GLP5        6 GROUP        1 Y    GLP  0     **** GLP Y 13
     9 ALL1       14 GROUP        1 Z    ALL  0     ROOT ALL Z 15
    10 SEL2        2 GROUP        1 Z    SEL  0     **** SEL Z 16
    11 LYL4       96 GROUP        1 Z    LYL  0     **** LYL Z 18
    12 GLL5        5 GROUP        1 Z    GLL  0     **** GLL Z 20
@<TRIPOS>SET

