#    Name: 2zat_NAP_4_ligand
#    Modification time : Tue Mar 25 10:27:08 2014

@<TRIPOS>MOLECULE
2zat_NAP_4_ligand
   73    77     1     0     0
SMALL
NO_CHARGES


@<TRIPOS>ATOM
      1 PA         43.0120   43.3460   64.2770 P.3       1 NAP4261     0.0000 
      2 O1A        44.0080   42.6520   65.1230 O.co2     1 NAP4261     0.0000 
      3 O2A        43.6060   44.2830   63.2370 O.co2     1 NAP4261     0.0000 
      4 O5B        41.9630   44.1030   65.2070 O.3       1 NAP4261     0.0000 
      5 C5B        41.3360   43.3840   66.2390 C.3       1 NAP4261     0.0000 
      6 C4B        40.3480   44.3350   66.8700 C.3       1 NAP4261     0.0000 
      7 O4B        39.4460   43.5850   67.6570 O.3       1 NAP4261     0.0000 
      8 C3B        40.9600   45.3390   67.8250 C.3       1 NAP4261     0.0000 
      9 O3B        40.2290   46.5430   67.6580 O.3       1 NAP4261     0.0000 
     10 C2B        40.7260   44.7410   69.1990 C.3       1 NAP4261     0.0000 
     11 O2B        40.7740   45.7590   70.1620 O.3       1 NAP4261     0.0000 
     12 C1B        39.3460   44.1450   68.9660 C.3       1 NAP4261     0.0000 
     13 N9A        38.8960   43.0660   69.8240 N.pl3     1 NAP4261     0.0000 
     14 C8A        39.5280   41.8710   70.0850 C.2       1 NAP4261     0.0000 
     15 N7A        38.7530   41.1130   70.8910 N.2       1 NAP4261     0.0000 
     16 C5A        37.6210   41.8380   71.1570 C.ar      1 NAP4261     0.0000 
     17 C6A        36.4810   41.5960   71.9230 C.ar      1 NAP4261     0.0000 
     18 N6A        36.3110   40.4600   72.5850 N.pl3     1 NAP4261     0.0000 
     19 N1A        35.4710   42.5180   72.0040 N.ar      1 NAP4261     0.0000 
     20 C2A        35.6080   43.6990   71.3250 C.ar      1 NAP4261     0.0000 
     21 N3A        36.7200   43.9590   70.5560 N.ar      1 NAP4261     0.0000 
     22 C4A        37.7230   43.0490   70.5000 C.ar      1 NAP4261     0.0000 
     23 O3         42.0230   42.2180   63.6660 O.3       1 NAP4261     0.0000 
     24 PN         41.4320   41.9710   62.1770 P.3       1 NAP4261     0.0000 
     25 O1N        42.3240   41.0110   61.4690 O.co2     1 NAP4261     0.0000 
     26 O2N        41.1060   43.2200   61.4950 O.co2     1 NAP4261     0.0000 
     27 O5D        40.0720   41.1700   62.5540 O.3       1 NAP4261     0.0000 
     28 C5D        38.7720   41.7000   62.2970 C.3       1 NAP4261     0.0000 
     29 C4D        37.8310   40.6330   61.7350 C.3       1 NAP4261     0.0000 
     30 O4D        38.3130   40.2210   60.4760 O.3       1 NAP4261     0.0000 
     31 C3D        37.7140   39.3740   62.6030 C.3       1 NAP4261     0.0000 
     32 O3D        36.3740   38.8740   62.6160 O.3       1 NAP4261     0.0000 
     33 C2D        38.6180   38.4060   61.8670 C.3       1 NAP4261     0.0000 
     34 O2D        38.2850   37.0730   62.1650 O.3       1 NAP4261     0.0000 
     35 C1D        38.3490   38.8090   60.4280 C.3       1 NAP4261     0.0000 
     36 N1N        39.3500   38.3150   59.4560 N.pl3     1 NAP4261     0.0000 
     37 C2N        40.5990   38.8670   59.3180 C.ar      1 NAP4261     0.0000 
     38 C3N        41.4520   38.3210   58.3510 C.ar      1 NAP4261     0.0000 
     39 C7N        42.8860   38.6850   58.2760 C.2       1 NAP4261     0.0000 
     40 O7N        43.6350   38.0160   57.2810 O.2       1 NAP4261     0.0000 
     41 N7N        43.3850   39.5980   59.1120 N.am      1 NAP4261     0.0000 
     42 C4N        41.0660   37.2480   57.5540 C.ar      1 NAP4261     0.0000 
     43 C5N        39.8010   36.7190   57.6960 C.ar      1 NAP4261     0.0000 
     44 C6N        38.9590   37.2690   58.6550 C.ar      1 NAP4261     0.0000 
     45 P2B        41.0420   45.4650   71.7260 P.3       1 NAP4261     0.0000 
     46 O1X        41.0310   46.8100   72.3580 O.co2     1 NAP4261     0.0000 
     47 O2X        42.3970   44.7470   71.8360 O.co2     1 NAP4261     0.0000 
     48 O3X        39.8990   44.6100   72.2450 O.co2     1 NAP4261     0.0000 
     49 H          42.0355   43.0642   67.0058 H         1 NAP4261     0.0000 
     50 H          40.7881   42.5218   65.8701 H         1 NAP4261     0.0000 
     51 H          39.8170   44.8694   66.1027 H         1 NAP4261     0.0000 
     52 H          41.9779   45.4189   67.6315 H         1 NAP4261     0.0000 
     53 H          41.4151   43.9551   69.3211 H         1 NAP4261     0.0000 
     54 H          38.6267   44.9508   68.9315 H         1 NAP4261     0.0000 
     55 H          40.3971   41.6248   69.7363 H         1 NAP4261     0.0000 
     56 H          35.4575   40.3737   73.0989 H         1 NAP4261     0.0000 
     57 H          37.0516   39.7922   72.5105 H         1 NAP4261     0.0000 
     58 H          34.8555   44.4194   71.3896 H         1 NAP4261     0.0000 
     59 H          38.8075   42.5283   61.5685 H         1 NAP4261     0.0000 
     60 H          38.3083   42.1018   63.2144 H         1 NAP4261     0.0000 
     61 H          36.8409   41.0639   61.6364 H         1 NAP4261     0.0000 
     62 H          38.1205   39.5732   63.5441 H         1 NAP4261     0.0000 
     63 H          39.6243   38.6781   62.0987 H         1 NAP4261     0.0000 
     64 H          37.3584   38.4302   60.1735 H         1 NAP4261     0.0000 
     65 H          40.9066   39.6455   59.8916 H         1 NAP4261     0.0000 
     66 H          42.7508   39.9644   59.7929 H         1 NAP4261     0.0000 
     67 H          44.3482   39.8336   58.9823 H         1 NAP4261     0.0000 
     68 H          41.7218   36.8577   56.8678 H         1 NAP4261     0.0000 
     69 H          39.4861   35.9436   57.1145 H         1 NAP4261     0.0000 
     70 H          37.9989   36.8697   58.7655 H         1 NAP4261     0.0000 
     71 H          40.5631   47.1505   68.3786 H         1 NAP4261     0.0000 
     72 H          35.8252   39.5935   62.1902 H         1 NAP4261     0.0000 
     73 H          37.3138   37.0957   62.4021 H         1 NAP4261     0.0000 
@<TRIPOS>BOND
     1    2    1 ar   
     2    3    1 ar   
     3    4    1 1    
     4   23    1 1    
     5    5    4 1    
     6    6    5 1    
     7   49    5 1    
     8   50    5 1    
     9    7    6 1    
    10    8    6 1    
    11   51    6 1    
    12   12    7 1    
    13    9    8 1    
    14   10    8 1    
    15   52    8 1    
    16   71    9 1    
    17   11   10 1    
    18   12   10 1    
    19   53   10 1    
    20   45   11 1    
    21   13   12 1    
    22   54   12 1    
    23   14   13 1    
    24   22   13 1    
    25   15   14 2    
    26   55   14 1    
    27   16   15 1    
    28   17   16 ar   
    29   22   16 ar   
    30   18   17 1    
    31   19   17 ar   
    32   56   18 1    
    33   57   18 1    
    34   20   19 ar   
    35   21   20 ar   
    36   58   20 1    
    37   22   21 ar   
    38   24   23 1    
    39   25   24 ar   
    40   26   24 ar   
    41   27   24 1    
    42   28   27 1    
    43   29   28 1    
    44   59   28 1    
    45   60   28 1    
    46   30   29 1    
    47   31   29 1    
    48   61   29 1    
    49   35   30 1    
    50   32   31 1    
    51   33   31 1    
    52   62   31 1    
    53   72   32 1    
    54   34   33 1    
    55   35   33 1    
    56   63   33 1    
    57   73   34 1    
    58   36   35 1    
    59   64   35 1    
    60   37   36 ar   
    61   44   36 ar   
    62   38   37 ar   
    63   65   37 1    
    64   39   38 1    
    65   42   38 ar   
    66   40   39 2    
    67   41   39 am   
    68   66   41 1    
    69   67   41 1    
    70   43   42 ar   
    71   68   42 1    
    72   44   43 ar   
    73   69   43 1    
    74   70   44 1    
    75   46   45 ar   
    76   47   45 ar   
    77   48   45 ar   
@<TRIPOS>SUBSTRUCTURE
     1 NAP4261     1 GROUP   
@<TRIPOS>SET

