#    Name: 3q32_J2I_2_INTS_M
#    Modification time : Tue Mar 25 08:51:11 2014

@<TRIPOS>MOLECULE
3q32_J2I_2_INTS_M
   68     0     6     0     0
SMALL
NO_CHARGES


@<TRIPOS>ATOM
      1 CA         38.4915   -1.8990    6.8145 C.3       2 GLC5        0.0000 
      2 CA         38.4000   -1.0500    8.8150 C.3       6 GLL5        0.0000 
      3 CA         38.5830   -2.7480    4.8140 C.3       4 GLP5        0.0000 
      4 CA         33.1530    3.3885   18.5455 C.3       2 GLC5        0.0000 
      5 CA         32.2000    3.7280   16.6810 C.3       6 GLL5        0.0000 
      6 CA         34.1060    3.0490   20.4100 C.3       4 GLP5        0.0000 
      7 CA         31.6465    4.5245   18.6280 C.3       2 GLC5        0.0000 
      8 CA         31.0930    5.3210   20.5750 C.3       4 GLP5        0.0000 
      9 CA         32.5405   -1.4340   12.0670 C.3       2 GLC5        0.0000 
     10 CA         33.0090   -0.8510   10.0520 C.3       6 GLL5        0.0000 
     11 CA         32.0720   -2.0170   14.0820 C.3       4 GLP5        0.0000 
     12 CA         38.8685   -1.1470   11.3440 C.3       2 GLC5        0.0000 
     13 CA         39.6520    0.4150   10.0240 C.3       6 GLL5        0.0000 
     14 CA         38.0850   -2.7090   12.6640 C.3       4 GLP5        0.0000 
     15 CA         33.9480   -1.3405    6.9615 C.3       2 GLC5        0.0000 
     16 CA         33.9520   -1.4600    9.1890 C.3       6 GLL5        0.0000 
     17 CA         33.9440   -1.2210    4.7340 C.3       4 GLP5        0.0000 
     18 CA         36.2435    2.4830   15.2035 C.3       2 GLC5        0.0000 
     19 CA         36.7120    3.1410   13.2080 C.3       6 GLL5        0.0000 
     20 CA         35.7750    1.8250   17.1990 C.3       4 GLP5        0.0000 
     21 CA         35.4720    0.4020   13.3790 C.3       2 GLC5        0.0000 
     22 CA         34.4970    2.2180   12.6380 C.3       6 GLL5        0.0000 
     23 CA         36.4470   -1.4140   14.1200 C.3       4 GLP5        0.0000 
     24 CA         36.2970    5.4735   11.0540 C.3       2 GLC5        0.0000 
     25 CA         36.3290    4.5400   12.7330 C.3       6 GLL5        0.0000 
     26 CA         36.2650    6.4070    9.3750 C.3       4 GLP5        0.0000 
     27 CA         31.2370   -1.6010   12.1130 C.3       2 GLC5        0.0000 
     28 CA         30.4020   -1.1850   10.1440 C.3       6 GLL5        0.0000 
     29 CA         30.9415   -2.9355   10.5020 C.3       2 GLC5        0.0000 
     30 CA         31.4810   -4.6860   10.8600 C.3       4 GLP5        0.0000 
     31 CA         29.5085   -1.3065    8.2650 C.3       2 GLC5        0.0000 
     32 CA         28.6150   -1.4280    6.3860 C.3       4 GLP5        0.0000 
     33 CA         28.5370   -1.7145   10.4740 C.3       2 GLC5        0.0000 
     34 CA         26.6720   -2.2440   10.8040 C.3       4 GLP5        0.0000 
     35 CA         31.0015    0.0355    8.8325 C.3       2 GLC5        0.0000 
     36 CA         31.6010    1.2560    7.5210 C.3       4 GLP5        0.0000 
     37 CA         30.1430    0.8810   18.6350 C.3       2 GLC5        0.0000 
     38 CA         29.0840    2.0250   17.3260 C.3       6 GLL5        0.0000 
     39 CA         31.2020   -0.2630   19.9440 C.3       4 GLP5        0.0000 
     40 CA         29.9150    0.8580   16.3105 C.3       2 GLC5        0.0000 
     41 CA         30.7460   -0.3090   15.2950 C.3       4 GLP5        0.0000 
     42 CA         27.4890    1.4120   17.0625 C.3       2 GLC5        0.0000 
     43 CA         25.8940    0.7990   16.7990 C.3       4 GLP5        0.0000 
     44 CA         32.8705    7.9725   13.3360 C.3       2 GLC5        0.0000 
     45 CA         32.8620    5.8760   13.5890 C.3       6 GLL5        0.0000 
     46 CA         32.8790   10.0690   13.0830 C.3       4 GLP5        0.0000 
     47 CA         31.8300    6.7520   11.8640 C.3       2 GLC5        0.0000 
     48 CA         30.7980    7.6280   10.1390 C.3       4 GLP5        0.0000 
     49 O          35.9135   -1.5820    7.7855 O.2       1 ALC1        0.0000 
     50 O          35.3260   -1.1890    9.1550 O.2       5 ALL1        0.0000 
     51 O          36.5010   -1.9750    6.4160 O.2       3 ALP1        0.0000 
     52 CA         30.6650    6.0005   11.5595 C.3       2 GLC5        0.0000 
     53 CA         30.5320    4.3730   12.9800 C.3       6 GLL5        0.0000 
     54 CA         38.0358   -1.7100   10.9580 C.3       2 GLC5        0.0000 
     55 CA         30.7517    1.4255   15.4958 C.3       2 GLC5        0.0000 
     56 CA         30.4820    3.2680   15.0630 C.3       6 GLL5        0.0000 
     57 CA         34.5272   -2.1553   11.0478 C.3       2 GLC5        0.0000 
     58 CA         35.5740   -3.1550   12.4750 C.3       4 GLP5        0.0000 
     59 CA         32.4808   -2.9207   10.2402 C.3       2 GLC5        0.0000 
     60 CA         32.5408    0.0503    8.5708 C.3       2 GLC5        0.0000 
     61 CA         38.2481    1.0008    8.5840 C.3       2 GLC5        0.0000 
     62 CA         38.0330    2.2810    7.5890 C.3       4 GLP5        0.0000 
     63 CA         33.9890    2.6795   10.3435 C.3       2 GLC5        0.0000 
     64 CA         33.7100    2.4490    8.2750 C.3       4 GLP5        0.0000 
     65 CA         29.0747    4.1704   13.0104 C.3       2 GLC5        0.0000 
     66 CA         27.4940    4.2910   12.2190 C.3       4 GLP5        0.0000 
     67 CA         34.4965    3.2643   16.7080 C.3       2 GLC5        0.0000 
     68 CA         32.8120    4.6180   15.7970 C.3       6 GLL5        0.0000 
@<TRIPOS>BOND
@<TRIPOS>SUBSTRUCTURE
     1 ALC1       49 GROUP        1 X    ALC  0     ROOT ALC X 1
     2 GLC5        1 GROUP        1 X    GLC  0     **** GLC X 6
     3 ALP1       51 GROUP        1 Y    ALP  0     ROOT ALP Y 8
     4 GLP5        3 GROUP        1 Y    GLP  0     **** GLP Y 13
     5 ALL1       50 GROUP        1 Z    ALL  0     ROOT ALL Z 15
     6 GLL5        2 GROUP        1 Z    GLL  0     **** GLL Z 20
@<TRIPOS>SET

