#    Name: 3q32_J2I_2_ligand
#    Modification time : Tue Mar 25 08:51:11 2014

@<TRIPOS>MOLECULE
3q32_J2I_2_ligand
   59    63     1     0     0
SMALL
NO_CHARGES


@<TRIPOS>ATOM
      1 C1         39.7090   -0.5280    9.0130 C.2       1 J2I2        0.0000 
      2 C2         38.4000   -1.0500    8.8150 C.2       1 J2I2        0.0000 
      3 C3         30.4820    3.2680   15.0630 C.ar      1 J2I2        0.0000 
      4 C4         32.2000    3.7280   16.6810 C.ar      1 J2I2        0.0000 
      5 C5         33.0090   -0.8510   10.0520 C.2       1 J2I2        0.0000 
      6 C6         39.6520    0.4150   10.0240 C.2       1 J2I2        0.0000 
      7 C7         32.2540    4.8660   14.5360 C.ar      1 J2I2        0.0000 
      8 C8         31.0330    3.0520   16.3300 C.ar      1 J2I2        0.0000 
      9 C9         31.0760    4.1850   14.1840 C.ar      1 J2I2        0.0000 
     10 C10        32.8120    4.6180   15.7970 C.ar      1 J2I2        0.0000 
     11 C11        37.5730   -0.3720    9.6890 C.2       1 J2I2        0.0000 
     12 C12        31.7970   -1.3940    9.6890 C.2       1 J2I2        0.0000 
     13 C13        33.9520   -1.4600    9.1890 C.2       1 J2I2        0.0000 
     14 C14        36.1390   -0.3560    9.8820 C.2       1 J2I2        0.0000 
     15 C15        36.5110    1.3650   11.4890 C.2       1 J2I2        0.0000 
     16 C16        34.3570    5.7780   13.4540 C.2       1 J2I2        0.0000 
     17 C17        36.7120    3.1410   13.2080 C.3       1 J2I2        0.0000 
     18 C18        34.4970    2.2180   12.6380 C.3       1 J2I2        0.0000 
     19 C19        36.3290    4.5400   12.7330 C.3       1 J2I2        0.0000 
     20 C20        34.0390    3.6020   12.1860 C.3       1 J2I2        0.0000 
     21 C21        30.4020   -1.1850   10.1440 C.3       1 J2I2        0.0000 
     22 C22        29.0840    2.0250   17.3260 C.3       1 J2I2        0.0000 
     23 C23        32.8620    5.8760   13.5890 C.3       1 J2I2        0.0000 
     24 N24        33.3670   -2.2680    8.3160 N.pl3     1 J2I2        0.0000 
     25 N25        35.6680    0.4890   10.7820 N.2       1 J2I2        0.0000 
     26 N26        37.8280    1.4180   11.3100 N.2       1 J2I2        0.0000 
     27 N27        32.0680   -2.1950    8.6280 N.2       1 J2I2        0.0000 
     28 N28        38.3460    0.5170   10.4170 N.pl3     1 J2I2        0.0000 
     29 N29        35.9450    2.1420   12.4510 N.3       1 J2I2        0.0000 
     30 N30        34.8590    4.6800   12.7930 N.am      1 J2I2        0.0000 
     31 N31        35.3260   -1.1890    9.1550 N.pl3     1 J2I2        0.0000 
     32 O32        35.0870    6.6330   13.9460 O.2       1 J2I2        0.0000 
     33 O33        30.4940    2.1710   17.2280 O.3       1 J2I2        0.0000 
     34 F34        30.5320    4.3730   12.9800 F         1 J2I2        0.0000 
     35 F35        33.9300    5.2340   16.1950 F         1 J2I2        0.0000 
     36 H          40.4721   -0.7947    8.5256 H         1 J2I2        0.0000 
     37 H          38.1711   -1.7191    8.2076 H         1 J2I2        0.0000 
     38 H          29.6415    2.7554   14.7743 H         1 J2I2        0.0000 
     39 H          32.6208    3.5680   17.6128 H         1 J2I2        0.0000 
     40 H          33.1917   -0.2270   10.7088 H         1 J2I2        0.0000 
     41 H          40.3903    0.8980   10.3744 H         1 J2I2        0.0000 
     42 H          36.4977    3.0669   14.2737 H         1 J2I2        0.0000 
     43 H          37.7821    3.0046   13.0546 H         1 J2I2        0.0000 
     44 H          33.9859    1.4732   12.0384 H         1 J2I2        0.0000 
     45 H          34.2305    2.0906   13.6812 H         1 J2I2        0.0000 
     46 H          36.6850    4.6715   11.7149 H         1 J2I2        0.0000 
     47 H          36.8099    5.2704   13.3779 H         1 J2I2        0.0000 
     48 H          32.9838    3.7274   12.4630 H         1 J2I2        0.0000 
     49 H          34.1022    3.6493   11.0908 H         1 J2I2        0.0000 
     50 H          32.5937    6.8952   13.9319 H         1 J2I2        0.0000 
     51 H          32.3978    5.7548   12.5899 H         1 J2I2        0.0000 
     52 H          33.7673   -2.7800    7.6298 H         1 J2I2        0.0000 
     53 H          35.8668   -1.7811    8.3655 H         1 J2I2        0.0000 
     54 H          30.2922   -1.3979   11.1149 H         1 J2I2        0.0000 
     55 H          30.1077   -0.2378   10.0165 H         1 J2I2        0.0000 
     56 H          29.7574   -1.7622    9.6426 H         1 J2I2        0.0000 
     57 H          28.8276    1.3527   18.0204 H         1 J2I2        0.0000 
     58 H          28.6378    2.8854   17.5722 H         1 J2I2        0.0000 
     59 H          28.6810    1.7224   16.4622 H         1 J2I2        0.0000 
@<TRIPOS>BOND
     1    2    1 1    
     2    6    1 2    
     3   36    1 1    
     4   11    2 2    
     5   37    2 1    
     6    8    3 ar   
     7    9    3 ar   
     8   38    3 1    
     9    8    4 ar   
    10   10    4 ar   
    11   39    4 1    
    12   12    5 1    
    13   13    5 2    
    14   40    5 1    
    15   28    6 1    
    16   41    6 1    
    17    9    7 ar   
    18   10    7 ar   
    19   23    7 1    
    20   33    8 1    
    21   34    9 1    
    22   35   10 1    
    23   14   11 1    
    24   28   11 1    
    25   21   12 1    
    26   27   12 2    
    27   24   13 1    
    28   31   13 1    
    29   25   14 2    
    30   31   14 1    
    31   25   15 1    
    32   26   15 2    
    33   29   15 1    
    34   23   16 1    
    35   30   16 am   
    36   32   16 2    
    37   19   17 1    
    38   29   17 1    
    39   42   17 1    
    40   43   17 1    
    41   20   18 1    
    42   29   18 1    
    43   44   18 1    
    44   45   18 1    
    45   30   19 1    
    46   46   19 1    
    47   47   19 1    
    48   30   20 1    
    49   48   20 1    
    50   49   20 1    
    51   54   21 1    
    52   55   21 1    
    53   56   21 1    
    54   33   22 1    
    55   57   22 1    
    56   58   22 1    
    57   59   22 1    
    58   50   23 1    
    59   51   23 1    
    60   27   24 1    
    61   52   24 1    
    62   28   26 1    
    63   53   31 1    
@<TRIPOS>SUBSTRUCTURE
     1 J2I2        1 GROUP   
@<TRIPOS>SET

