#    Name: 2olc_ADP_2_INTS_M
#    Modification time : Tue Mar 25 22:53:40 2014

@<TRIPOS>MOLECULE
2olc_ADP_2_INTS_M
   54     0    12     0     0
SMALL
NO_CHARGES


@<TRIPOS>ATOM
      1 N          69.3155   28.6010   13.3945 N.am      2 SEC2        0.0000 
      2 N          70.1730   29.8890   13.6680 N.am     10 SEL2        0.0000 
      3 N          68.4580   27.3130   13.1210 N.am      6 SEP2        0.0000 
      4 NZ         70.1810   27.1855   15.8680 N.4       3 LYC4        0.0000 
      5 NZ         70.9780   27.7720   14.5870 N.4      11 LYL4        0.0000 
      6 NZ         69.3840   26.5990   17.1490 N.4       7 LYP4        0.0000 
      7 N          70.1810   27.1855   15.8680 N.am      2 SEC2        0.0000 
      8 N          70.9780   27.7720   14.5870 N.am     10 SEL2        0.0000 
      9 N          69.3840   26.5990   17.1490 N.am      6 SEP2        0.0000 
     10 NZ         70.1135   27.6165   17.7830 N.4       3 LYC4        0.0000 
     11 NZ         70.8430   28.6340   18.4170 N.4      11 LYL4        0.0000 
     12 N          70.1135   27.6165   17.7830 N.am      2 SEC2        0.0000 
     13 N          70.8430   28.6340   18.4170 N.am     10 SEL2        0.0000 
     14 CA         69.2105   32.0290   17.5170 C.3       4 GLC5        0.0000 
     15 CA         71.1490   32.2820   17.2890 C.3      12 GLL5        0.0000 
     16 CA         67.2720   31.7760   17.7450 C.3       8 GLP5        0.0000 
     17 CA         69.5790   35.4860   20.8545 C.3       4 GLC5        0.0000 
     18 CA         70.8770   34.0210   20.3850 C.3      12 GLL5        0.0000 
     19 CA         68.2810   36.9510   21.3240 C.3       8 GLP5        0.0000 
     20 CA         68.8425   33.5285   20.1100 C.3       4 GLC5        0.0000 
     21 CA         66.8080   33.0360   19.8350 C.3       8 GLP5        0.0000 
     22 CA         67.7455   31.5200   23.0940 C.3       4 GLC5        0.0000 
     23 CA         69.7780   31.8200   23.1180 C.3      12 GLL5        0.0000 
     24 CA         65.7130   31.2200   23.0700 C.3       8 GLP5        0.0000 
     25 CA         67.8145   32.3975   24.5965 C.3       4 GLC5        0.0000 
     26 CA         69.4640   31.7150   24.4640 C.3      12 GLL5        0.0000 
     27 CA         66.1650   33.0800   24.7290 C.3       8 GLP5        0.0000 
     28 CA         70.7660   31.9590   26.2260 C.3       4 GLC5        0.0000 
     29 CA         72.0680   32.2030   27.9880 C.3       8 GLP5        0.0000 
     30 O          68.4580   30.4190   26.2860 O.2       1 ALC1        0.0000 
     31 O          69.0780   30.5460   25.0350 O.2       9 ALL1        0.0000 
     32 O          67.8380   30.2920   27.5370 O.2       5 ALP1        0.0000 
     33 N          69.6855   33.0345   26.6040 N.am      2 SEC2        0.0000 
     34 N          69.5470   32.8240   25.2250 N.am     10 SEL2        0.0000 
     35 N          69.8240   33.2450   27.9830 N.am      6 SEP2        0.0000 
     36 CA         68.0470   33.5450   24.7205 C.3       4 GLC5        0.0000 
     37 CA         69.9290   34.0100   24.7120 C.3      12 GLL5        0.0000 
     38 CA         70.5750   33.7190   26.5415 C.3       4 GLC5        0.0000 
     39 CA         71.2210   33.4280   28.3710 C.3       8 GLP5        0.0000 
     40 CA         70.6330   35.5185   25.9055 C.3       4 GLC5        0.0000 
     41 CA         71.3370   37.0270   27.0990 C.3       8 GLP5        0.0000 
     42 CA         68.4875   33.0505   21.2205 C.3       4 GLC5        0.0000 
     43 CA         70.1670   33.0650   22.6060 C.3      12 GLL5        0.0000 
     44 CA         68.1475   33.6210   23.1210 C.3       4 GLC5        0.0000 
     45 CA         66.1280   34.1770   23.6360 C.3       8 GLP5        0.0000 
     46 CA         69.8965   34.0005   16.6433 C.3       4 GLC5        0.0000 
     47 CA         71.5410   33.4600   18.1760 C.3      12 GLL5        0.0000 
     48 CA         68.4480   35.1300   15.5540 C.3       8 GLP5        0.0000 
     49 CA         74.5072   33.2565   20.4565 C.3       4 GLC5        0.0000 
     50 CA         72.7230   33.1950   19.0990 C.3      12 GLL5        0.0000 
     51 CA         76.4520   32.8870   21.2100 C.3       8 GLP5        0.0000 
     52 CA         72.5932   33.7200   22.0200 C.3       4 GLC5        0.0000 
     53 CA         72.4020   34.0570   20.3070 C.3      12 GLL5        0.0000 
     54 CA         73.5470   33.4010   23.6940 C.3       8 GLP5        0.0000 
@<TRIPOS>BOND
@<TRIPOS>SUBSTRUCTURE
     1 ALC1       30 GROUP        1 X    ALC  0     ROOT ALC X 1
     2 SEC2        1 GROUP        1 X    SEC  0     **** SEC X 2
     3 LYC4        4 GROUP        1 X    LYC  0     **** LYC X 4
     4 GLC5       14 GROUP        1 X    GLC  0     **** GLC X 6
     5 ALP1       32 GROUP        1 Y    ALP  0     ROOT ALP Y 8
     6 SEP2        3 GROUP        1 Y    SEP  0     **** SEP Y 9
     7 LYP4        6 GROUP        1 Y    LYP  0     **** LYP Y 11
     8 GLP5       16 GROUP        1 Y    GLP  0     **** GLP Y 13
     9 ALL1       31 GROUP        1 Z    ALL  0     ROOT ALL Z 15
    10 SEL2        2 GROUP        1 Z    SEL  0     **** SEL Z 16
    11 LYL4        5 GROUP        1 Z    LYL  0     **** LYL Z 18
    12 GLL5       15 GROUP        1 Z    GLL  0     **** GLL Z 20
@<TRIPOS>SET

