#    Name: 2olc_ADP_2_ligand
#    Modification time : Tue Mar 25 22:53:40 2014

@<TRIPOS>MOLECULE
2olc_ADP_2_ligand
   39    41     1     0     0
SMALL
NO_CHARGES


@<TRIPOS>ATOM
      1 PB         71.1480   29.2410   14.6240 P.3       1 ADP999      0.0000 
      2 O1B        70.1730   29.8890   13.6680 O.co2     1 ADP999      0.0000 
      3 O2B        70.9780   27.7720   14.5870 O.co2     1 ADP999      0.0000 
      4 O3B        72.5280   29.8180   14.5000 O.co2     1 ADP999      0.0000 
      5 PA         71.4450   29.6420   17.4470 P.3       1 ADP999      0.0000 
      6 O1A        70.8430   28.6340   18.4170 O.co2     1 ADP999      0.0000 
      7 O2A        72.9250   29.6380   17.2280 O.co2     1 ADP999      0.0000 
      8 O3A        70.6220   29.6250   16.0830 O.3       1 ADP999      0.0000 
      9 O5'        71.0820   31.0790   18.0610 O.3       1 ADP999      0.0000 
     10 C5'        71.1490   32.2820   17.2890 C.3       1 ADP999      0.0000 
     11 C4'        71.5410   33.4600   18.1760 C.3       1 ADP999      0.0000 
     12 O4'        70.4500   33.7610   19.0500 O.3       1 ADP999      0.0000 
     13 C3'        72.7230   33.1950   19.0990 C.3       1 ADP999      0.0000 
     14 O3'        73.9840   33.5220   18.5040 O.3       1 ADP999      0.0000 
     15 C2'        72.4020   34.0570   20.3070 C.3       1 ADP999      0.0000 
     16 O2'        72.8450   35.4110   20.1190 O.3       1 ADP999      0.0000 
     17 C1'        70.8770   34.0210   20.3850 C.3       1 ADP999      0.0000 
     18 N9         70.4180   32.9260   21.2950 N.pl3     1 ADP999      0.0000 
     19 C8         70.1920   31.6280   20.9830 C.2       1 ADP999      0.0000 
     20 N7         69.8010   30.9470   22.0950 N.2       1 ADP999      0.0000 
     21 C5         69.7780   31.8200   23.1180 C.ar      1 ADP999      0.0000 
     22 C6         69.4640   31.7150   24.4640 C.ar      1 ADP999      0.0000 
     23 N6         69.0780   30.5460   25.0350 N.pl3     1 ADP999      0.0000 
     24 N1         69.5470   32.8240   25.2250 N.ar      1 ADP999      0.0000 
     25 C2         69.9290   34.0100   24.7120 C.ar      1 ADP999      0.0000 
     26 N3         70.2350   34.1470   23.4160 N.ar      1 ADP999      0.0000 
     27 C4         70.1670   33.0650   22.6060 C.ar      1 ADP999      0.0000 
     28 H          70.1823   32.5188   16.8244 H         1 ADP999      0.0000 
     29 H          71.8929   32.2055   16.4846 H         1 ADP999      0.0000 
     30 H          71.7673   34.3128   17.5636 H         1 ADP999      0.0000 
     31 H          72.6576   32.1662   19.4135 H         1 ADP999      0.0000 
     32 H          72.7909   33.5986   21.1729 H         1 ADP999      0.0000 
     33 H          70.5364   34.9652   20.7268 H         1 ADP999      0.0000 
     34 H          70.2926   31.2371   20.0992 H         1 ADP999      0.0000 
     35 H          68.8597   30.5836   26.0102 H         1 ADP999      0.0000 
     36 H          69.0460   29.7503   24.4301 H         1 ADP999      0.0000 
     37 H          69.9871   34.8480   25.3499 H         1 ADP999      0.0000 
     38 H          73.9231   33.1821   17.5655 H         1 ADP999      0.0000 
     39 H          73.5804   35.3512   19.4439 H         1 ADP999      0.0000 
@<TRIPOS>BOND
     1    2    1 ar   
     2    3    1 ar   
     3    4    1 ar   
     4    8    1 1    
     5    6    5 ar   
     6    7    5 ar   
     7    8    5 1    
     8    9    5 1    
     9   10    9 1    
    10   11   10 1    
    11   28   10 1    
    12   29   10 1    
    13   12   11 1    
    14   13   11 1    
    15   30   11 1    
    16   17   12 1    
    17   14   13 1    
    18   15   13 1    
    19   31   13 1    
    20   38   14 1    
    21   16   15 1    
    22   17   15 1    
    23   32   15 1    
    24   39   16 1    
    25   18   17 1    
    26   33   17 1    
    27   19   18 1    
    28   27   18 1    
    29   20   19 2    
    30   34   19 1    
    31   21   20 1    
    32   22   21 ar   
    33   27   21 ar   
    34   23   22 1    
    35   24   22 ar   
    36   35   23 1    
    37   36   23 1    
    38   25   24 ar   
    39   26   25 ar   
    40   37   25 1    
    41   27   26 ar   
@<TRIPOS>SUBSTRUCTURE
     1 ADP999      1 GROUP   
@<TRIPOS>SET

