#    Name: 4H2U_1_CAVITY_N1_6.mol2
#    Modification time : Tue Mar 11 01:27:13 2014

@<TRIPOS>MOLECULE
4H2U_1_CAVITY_N1_6.mol2
  101     0     7     0     0
SMALL
NO_CHARGES


@<TRIPOS>ATOM
      1 OG         85.4252   42.8425   19.0138 O.2       1 SER1        0.0000 
      2 CA         84.2903   43.6028   19.6335 C.3       6 GLY6        0.0000 
      3 OG         86.3860   42.8588   17.1226 O.2       1 SER1        0.0000 
      4 O          87.7038   43.3570   22.5554 O.2       2 ALA2        0.0000 
      5 CZ         86.5690   44.1173   23.1751 C.ar      5 PHE5        0.0000 
      6 CZ         85.4342   44.8776   23.7948 C.ar      5 PHE5        0.0000 
      7 O          90.9343   41.8526   19.4248 O.2       2 ALA2        0.0000 
      8 O          87.5298   44.1336   21.2839 O.2       2 ALA2        0.0000 
      9 DU         86.3950   44.8939   21.9036 H         7 CUB7        0.0000 
     10 CA         85.2602   45.6542   22.5233 C.3       6 GLY6        0.0000 
     11 NZ         90.7603   42.6292   18.1533 N.2       4 LYS4        0.0000 
     12 O          89.6255   43.3895   18.7730 O.2       2 ALA2        0.0000 
     13 O          88.4907   44.1498   19.3927 O.2       2 ALA2        0.0000 
     14 DU         87.3558   44.9102   20.0125 H         7 CUB7        0.0000 
     15 DU         86.2210   45.6705   20.6322 H         7 CUB7        0.0000 
     16 CA         85.0861   46.4308   21.2519 C.3       6 GLY6        0.0000 
     17 OD1        89.4515   44.1661   17.5016 O.3       3 ASP3        0.0000 
     18 OD1        88.3166   44.9264   18.1213 O.3       3 ASP3        0.0000 
     19 OG         87.1818   45.6867   18.7410 O.2       1 SER1        0.0000 
     20 OG         86.0470   46.4471   19.3607 O.2       1 SER1        0.0000 
     21 N          84.9121   47.2074   19.9804 N.2       2 ALA2        0.0000 
     22 O          85.8730   47.2237   18.0892 O.2       2 ALA2        0.0000 
     23 O          86.5645   43.0997   20.7846 O.2       2 ALA2        0.0000 
     24 CA         85.4297   43.8601   21.4043 C.3       6 GLY6        0.0000 
     25 CA         84.2948   44.6204   22.0240 C.3       6 GLY6        0.0000 
     26 NZ         88.6602   42.3557   18.2737 N.2       4 LYS4        0.0000 
     27 O          87.5253   43.1160   18.8934 O.2       2 ALA2        0.0000 
     28 OG         86.3905   43.8763   19.5131 O.2       1 SER1        0.0000 
     29 CA         85.2557   44.6367   20.1328 C.3       6 GLY6        0.0000 
     30 O          84.1208   45.3970   20.7525 O.2       2 ALA2        0.0000 
     31 OD1        87.3513   43.8926   17.6219 O.3       3 ASP3        0.0000 
     32 OG         86.2165   44.6529   18.2417 O.2       1 SER1        0.0000 
     33 OG         85.0816   45.4132   18.8614 O.2       1 SER1        0.0000 
     34 N          83.9468   46.1736   19.4811 N.2       2 ALA2        0.0000 
     35 OD1        89.8085   44.6480   24.8255 O.3       3 ASP3        0.0000 
     36 OD1        88.6737   45.4084   25.4452 O.3       3 ASP3        0.0000 
     37 CZ         87.5388   46.1687   26.0649 C.ar      5 PHE5        0.0000 
     38 CA         86.4040   46.9290   26.6847 C.3       6 GLY6        0.0000 
     39 O          89.6345   45.4246   23.5541 O.2       2 ALA2        0.0000 
     40 OD1        88.4997   46.1850   24.1738 O.3       3 ASP3        0.0000 
     41 CA         87.3648   46.9453   24.7935 C.3       6 GLY6        0.0000 
     42 CA         86.2300   47.7056   25.4132 C.3       6 GLY6        0.0000 
     43 OD1        92.8650   43.9202   20.4235 O.3       3 ASP3        0.0000 
     44 OD1        91.7302   44.6806   21.0432 O.3       3 ASP3        0.0000 
     45 O          90.5953   45.4409   21.6629 O.2       2 ALA2        0.0000 
     46 CA         93.8258   43.9365   18.5323 C.3       6 GLY6        0.0000 
     47 CA         92.6910   44.6968   19.1520 C.3       6 GLY6        0.0000 
     48 DU         91.5562   45.4571   19.7717 H         7 CUB7        0.0000 
     49 O          90.4213   46.2175   20.3914 O.2       2 ALA2        0.0000 
     50 N          93.6518   44.7131   17.2608 N.2       2 ALA2        0.0000 
     51 NZ         92.5170   45.4734   17.8805 N.2       4 LYS4        0.0000 
     52 NZ         91.3821   46.2337   18.5002 N.2       4 LYS4        0.0000 
     53 NZ         90.2473   46.9941   19.1200 N.2       4 LYS4        0.0000 
     54 CZ         88.8432   43.6142   24.3262 C.ar      5 PHE5        0.0000 
     55 CZ         87.7083   44.3745   24.9459 C.ar      5 PHE5        0.0000 
     56 OD1        88.6692   44.3908   23.0547 O.3       3 ASP3        0.0000 
     57 CZ         87.5343   45.1511   23.6744 C.ar      5 PHE5        0.0000 
     58 CZ         86.3995   45.9115   24.2941 C.ar      5 PHE5        0.0000 
     59 CA         85.2647   46.6718   24.9139 C.3       6 GLY6        0.0000 
     60 OD1        91.8997   42.8864   19.9241 O.3       3 ASP3        0.0000 
     61 OD1        90.7648   43.6467   20.5438 O.3       3 ASP3        0.0000 
     62 OD1        89.6300   44.4071   21.1635 O.3       3 ASP3        0.0000 
     63 O          88.4952   45.1674   21.7833 O.2       2 ALA2        0.0000 
     64 O          87.3603   45.9277   22.4030 O.2       2 ALA2        0.0000 
     65 CA         86.2255   46.6881   23.0227 C.3       6 GLY6        0.0000 
     66 CA         91.7257   43.6630   18.6527 C.3       6 GLY6        0.0000 
     67 OD1        90.5908   44.4233   19.2724 O.3       3 ASP3        0.0000 
     68 DU         89.4560   45.1836   19.8921 H         7 CUB7        0.0000 
     69 O          88.3212   45.9440   20.5118 O.2       2 ALA2        0.0000 
     70 O          87.1863   46.7043   21.1315 O.2       2 ALA2        0.0000 
     71 N          86.0515   47.4646   21.7512 N.2       2 ALA2        0.0000 
     72 NZ         91.5517   44.4396   17.3812 N.2       4 LYS4        0.0000 
     73 NZ         90.4168   45.1999   18.0009 N.2       4 LYS4        0.0000 
     74 NZ         89.2820   45.9602   18.6206 N.2       4 LYS4        0.0000 
     75 CA         88.1471   46.7206   19.2403 C.3       6 GLY6        0.0000 
     76 N          87.0123   47.4809   19.8600 N.2       2 ALA2        0.0000 
     77 N          85.8775   48.2412   20.4797 N.2       2 ALA2        0.0000 
     78 CA         87.9731   47.4972   17.9689 C.3       6 GLY6        0.0000 
     79 O          89.8130   45.6656   27.2160 O.2       2 ALA2        0.0000 
     80 O          88.6782   46.4259   27.8357 O.2       2 ALA2        0.0000 
     81 CA         87.5433   47.1863   28.4555 C.3       6 GLY6        0.0000 
     82 O          89.6390   46.4422   25.9446 O.2       2 ALA2        0.0000 
     83 O          88.5042   47.2025   26.5643 O.2       2 ALA2        0.0000 
     84 CA         87.3693   47.9629   27.1840 C.3       6 GLY6        0.0000 
     85 O          93.8303   44.9540   20.9228 O.2       2 ALA2        0.0000 
     86 O          92.6955   45.7144   21.5425 O.2       2 ALA2        0.0000 
     87 O          91.5607   46.4747   22.1622 O.2       2 ALA2        0.0000 
     88 CA         94.7912   44.9703   19.0316 C.3       6 GLY6        0.0000 
     89 O          93.6563   45.7306   19.6513 O.2       2 ALA2        0.0000 
     90 O          92.5215   46.4910   20.2710 O.2       2 ALA2        0.0000 
     91 N          94.6172   45.7469   17.7602 N.2       2 ALA2        0.0000 
     92 NZ         93.4823   46.5072   18.3799 N.2       4 LYS4        0.0000 
     93 NZ         92.3475   47.2676   18.9996 N.2       4 LYS4        0.0000 
     94 CA         91.2126   48.0279   19.6193 C.3       6 GLY6        0.0000 
     95 N          94.4431   46.5235   16.4887 N.2       2 ALA2        0.0000 
     96 CZ         88.8477   44.6318   26.7167 C.ar      5 PHE5        0.0000 
     97 CZ         87.7128   45.3921   27.3364 C.ar      5 PHE5        0.0000 
     98 O          94.6217   46.7645   20.1507 O.2       2 ALA2        0.0000 
     99 O          93.4868   47.5248   20.7704 O.2       2 ALA2        0.0000 
    100 DU         94.4477   47.5411   18.8792 H         7 CUB7        0.0000 
    101 NZ         94.2736   48.3177   17.6077 N.2       4 LYS4        0.0000 
@<TRIPOS>BOND
@<TRIPOS>SUBSTRUCTURE
     1 SER1        1 GROUP   
     2 ALA2        4 GROUP   
     3 ASP3       17 GROUP   
     4 LYS4       11 GROUP   
     5 PHE5        5 GROUP   
     6 GLY6        2 GROUP   
     7 CUB7        9 GROUP   
@<TRIPOS>SET

