#    Name: 4h2u_ATP_1_INTS_M
#    Modification time : Tue Mar 25 00:12:34 2014

@<TRIPOS>MOLECULE
4h2u_ATP_1_INTS_M
   74     0    15     0     0
SMALL
NO_CHARGES


@<TRIPOS>ATOM
      1 NZ         91.5180   47.6035   22.5755 N.4       3 LYC4        0.0000 
      2 NZ         91.8210   47.3020   20.9620 N.4      13 LYL4        0.0000 
      3 NZ         90.0870   48.4140   23.7260 N.4       8 LYP4        0.0000 
      4 N          90.8075   47.8200   21.7005 N.am      2 SEC2        0.0000 
      5 N          91.8210   47.3020   20.9620 N.am     12 SEL2        0.0000 
      6 N          89.7940   48.3380   22.4390 N.am      7 SEP2        0.0000 
      7 N          91.5180   47.6035   22.5755 N.am      2 SEC2        0.0000 
      8 N          91.2150   47.9050   24.1890 N.am      7 SEP2        0.0000 
      9 NZ         93.2985   45.1495   22.7830 N.4       3 LYC4        0.0000 
     10 NZ         92.8750   45.1510   21.7440 N.4      13 LYL4        0.0000 
     11 NZ         94.3590   46.2600   24.1540 N.4       8 LYP4        0.0000 
     12 N          93.2985   45.1495   22.7830 N.am      2 SEC2        0.0000 
     13 N          92.8750   45.1510   21.7440 N.am     12 SEL2        0.0000 
     14 N          93.7220   45.1480   23.8220 N.am      7 SEP2        0.0000 
     15 NZ         89.2025   43.8035   16.4275 N.4       3 LYC4        0.0000 
     16 NZ         90.1460   44.1650   17.8310 N.4      13 LYL4        0.0000 
     17 NZ         88.2590   43.4420   15.0240 N.4       8 LYP4        0.0000 
     18 Zn         91.2760   42.7670   21.3850 Zn        4 ZIC7        0.0000 
     19 Zn         91.0980   42.9430   20.0510 Zn       14 ZIL7        0.0000 
     20 Zn         91.4540   42.5910   22.7190 Zn        9 ZIP7        0.0000 
     21 NZ         87.6480   40.9415   20.0795 N.4       3 LYC4        0.0000 
     22 NZ         88.1210   41.8020   18.9690 N.4      13 LYL4        0.0000 
     23 NZ         88.2610   40.3030   21.9210 N.4       8 LYP4        0.0000 
     24 N          88.6350   41.5140   20.2600 N.am      2 SEC2        0.0000 
     25 N          88.1210   41.8020   18.9690 N.am     12 SEL2        0.0000 
     26 N          89.1490   41.2260   21.5510 N.am      7 SEP2        0.0000 
     27 N          87.6480   40.9415   20.0795 N.am      2 SEC2        0.0000 
     28 N          87.1750   40.0810   21.1900 N.am      7 SEP2        0.0000 
     29 NZ         87.7210   43.6565   16.3340 N.4       3 LYC4        0.0000 
     30 NZ         87.1830   43.8710   17.6440 N.4      13 LYL4        0.0000 
     31 N          87.7210   43.6565   16.3340 N.am      2 SEC2        0.0000 
     32 N          87.1830   43.8710   17.6440 N.am     12 SEL2        0.0000 
     33 N          88.2590   43.4420   15.0240 N.am      7 SEP2        0.0000 
     34 N          86.0640   44.4275   16.8350 N.am      2 SEC2        0.0000 
     35 N          84.9450   44.9840   16.0260 N.am      7 SEP2        0.0000 
     36 N          88.9720   42.5775   20.6155 N.am      2 SEC2        0.0000 
     37 N          88.7950   43.9290   19.6800 N.am     12 SEL2        0.0000 
     38 CA         84.0470   46.5735   22.0130 C.3       5 GLC5        0.0000 
     39 CA         85.2630   45.4480   20.6640 C.3      15 GLL5        0.0000 
     40 CA         82.8310   47.6990   23.3620 C.3      10 GLP5        0.0000 
     41 O          86.7835   49.1260   21.3880 O.2       1 ALC1        0.0000 
     42 O          85.6390   48.2190   21.7820 O.2      11 ALL1        0.0000 
     43 O          87.9280   50.0330   20.9940 O.2       6 ALP1        0.0000 
     44 CA         85.9205   44.4130   24.0175 C.3       5 GLC5        0.0000 
     45 CA         86.0940   46.0260   22.7710 C.3      15 GLL5        0.0000 
     46 CA         85.7470   42.8000   25.2640 C.3      10 GLP5        0.0000 
     47 CA         90.8625   46.3760   27.2640 C.3       5 GLC5        0.0000 
     48 CA         89.5270   45.0920   26.1090 C.3      15 GLL5        0.0000 
     49 CA         92.1980   47.6600   28.4190 C.3      10 GLP5        0.0000 
     50 O          91.4330   43.2700   25.9020 O.2       1 ALC1        0.0000 
     51 O          90.5850   44.3370   26.4390 O.2      11 ALL1        0.0000 
     52 O          92.2810   42.2030   25.3650 O.2       6 ALP1        0.0000 
     53 O          90.5615   43.8945   27.7705 O.2       1 ALC1        0.0000 
     54 O          90.5380   43.4520   29.1020 O.2       6 ALP1        0.0000 
     55 N          89.8645   46.0200   28.2725 N.am      2 SEC2        0.0000 
     56 N          89.0070   45.9270   27.0370 N.am     12 SEL2        0.0000 
     57 N          90.7220   46.1130   29.5080 N.am      7 SEP2        0.0000 
     58 CA         88.2930   46.0915   28.7865 C.3       5 GLC5        0.0000 
     59 CA         87.8670   46.5690   26.7600 C.3      15 GLL5        0.0000 
     60 CA         88.7190   45.6140   30.8130 C.3      10 GLP5        0.0000 
     61 CA         86.5925   45.4920   27.7235 C.3       5 GLC5        0.0000 
     62 CA         85.3180   44.4150   28.6870 C.3      10 GLP5        0.0000 
     63 CA         87.5830   48.3900   26.0545 C.3       5 GLC5        0.0000 
     64 CA         87.2990   50.2110   25.3490 C.3      10 GLP5        0.0000 
     65 CA         87.8340   47.6520   24.4475 C.3       5 GLC5        0.0000 
     66 CA         87.6890   45.7180   24.7320 C.3      15 GLL5        0.0000 
     67 CA         87.9790   49.5860   24.1630 C.3      10 GLP5        0.0000 
     68 CA         84.7090   43.1905   21.2300 C.3       5 GLC5        0.0000 
     69 CA         84.1970   41.5230   22.2670 C.3      10 GLP5        0.0000 
     70 CA         83.6475   44.5640   19.0600 C.3       5 GLC5        0.0000 
     71 CA         85.1790   44.2680   19.7220 C.3      15 GLL5        0.0000 
     72 CA         82.0740   44.2700   17.9270 C.3      10 GLP5        0.0000 
     73 CA         84.5713   47.1340   22.8165 C.3       5 GLC5        0.0000 
     74 CA         87.1452   48.0775   23.2170 C.3       5 GLC5        0.0000 
@<TRIPOS>BOND
@<TRIPOS>SUBSTRUCTURE
     1 ALC1       41 GROUP        1 X    ALC  0     ROOT ALC X 1
     2 SEC2        4 GROUP        1 X    SEC  0     **** SEC X 2
     3 LYC4        1 GROUP        1 X    LYC  0     **** LYC X 4
     4 ZIC7       18 GROUP        1 X    ZIC  0     **** ZIC X 5
     5 GLC5       38 GROUP        1 X    GLC  0     **** GLC X 6
     6 ALP1       43 GROUP        1 Y    ALP  0     ROOT ALP Y 8
     7 SEP2        6 GROUP        1 Y    SEP  0     **** SEP Y 9
     8 LYP4        3 GROUP        1 Y    LYP  0     **** LYP Y 11
     9 ZIP7       20 GROUP        1 Y    ZIP  0     **** ZIP Y 12
    10 GLP5       40 GROUP        1 Y    GLP  0     **** GLP Y 13
    11 ALL1       42 GROUP        1 Z    ALL  0     ROOT ALL Z 15
    12 SEL2        5 GROUP        1 Z    SEL  0     **** SEL Z 16
    13 LYL4        2 GROUP        1 Z    LYL  0     **** LYL Z 18
    14 ZIL7       19 GROUP        1 Z    ZIL  0     **** ZIL Z 19
    15 GLL5       39 GROUP        1 Z    GLL  0     **** GLL Z 20
@<TRIPOS>SET

