#    Name: 4h2u_ATP_1_ligand
#    Modification time : Tue Mar 25 00:12:34 2014

@<TRIPOS>MOLECULE
4h2u_ATP_1_ligand
   43    45     1     0     0
SMALL
NO_CHARGES


@<TRIPOS>ATOM
      1 PG         92.4930   46.0030   20.5070 P.3       1 ATP402      0.0000 
      2 O1G        93.6720   46.1830   19.4960 O.co2     1 ATP402      0.0000 
      3 O2G        91.8210   47.3020   20.9620 O.co2     1 ATP402      0.0000 
      4 O3G        92.8750   45.1510   21.7440 O.co2     1 ATP402      0.0000 
      5 PB         90.3570   44.0560   19.2950 P.3       1 ATP402      0.0000 
      6 O1B        90.1460   44.1650   17.8310 O.co2     1 ATP402      0.0000 
      7 O2B        91.0980   42.9430   20.0510 O.co2     1 ATP402      0.0000 
      8 O3B        91.2590   45.1970   19.8880 O.3       1 ATP402      0.0000 
      9 PA         87.5680   43.1670   18.9520 P.3       1 ATP402      0.0000 
     10 O1A        88.1210   41.8020   18.9690 O.co2     1 ATP402      0.0000 
     11 O2A        87.1830   43.8710   17.6440 O.co2     1 ATP402      0.0000 
     12 O3A        88.7950   43.9290   19.6800 O.3       1 ATP402      0.0000 
     13 O5'        86.2500   43.3330   19.9270 O.3       1 ATP402      0.0000 
     14 C5'        85.1790   44.2680   19.7220 C.3       1 ATP402      0.0000 
     15 C4'        85.2630   45.4480   20.6640 C.3       1 ATP402      0.0000 
     16 O4'        85.4350   45.0110   22.0280 O.3       1 ATP402      0.0000 
     17 C3'        86.4210   46.3970   20.4280 C.3       1 ATP402      0.0000 
     18 O3'        86.0810   47.3070   19.3870 O.3       1 ATP402      0.0000 
     19 C2'        86.5290   47.1120   21.7710 C.3       1 ATP402      0.0000 
     20 O2'        85.6390   48.2190   21.7820 O.3       1 ATP402      0.0000 
     21 C1'        86.0940   46.0260   22.7710 C.3       1 ATP402      0.0000 
     22 N9         87.2170   45.4200   23.4770 N.pl3     1 ATP402      0.0000 
     23 C8         88.0950   44.5070   22.9560 C.2       1 ATP402      0.0000 
     24 N7         89.1010   44.2230   23.7470 N.2       1 ATP402      0.0000 
     25 C5         88.8540   44.9840   24.8780 C.ar      1 ATP402      0.0000 
     26 C6         89.5270   45.0920   26.1090 C.ar      1 ATP402      0.0000 
     27 N6         90.5850   44.3370   26.4390 N.pl3     1 ATP402      0.0000 
     28 N1         89.0070   45.9270   27.0370 N.ar      1 ATP402      0.0000 
     29 C2         87.8670   46.5690   26.7600 C.ar      1 ATP402      0.0000 
     30 N3         87.1290   46.5220   25.6470 N.ar      1 ATP402      0.0000 
     31 C4         87.6890   45.7180   24.7320 C.ar      1 ATP402      0.0000 
     32 H          84.1949   43.7830   19.8682 H         1 ATP402      0.0000 
     33 H          85.1840   44.6566   18.6857 H         1 ATP402      0.0000 
     34 H          84.3424   46.0305   20.6003 H         1 ATP402      0.0000 
     35 H          87.2891   45.8414   20.2635 H         1 ATP402      0.0000 
     36 H          87.5336   47.3495   21.9446 H         1 ATP402      0.0000 
     37 H          85.4084   46.4805   23.4695 H         1 ATP402      0.0000 
     38 H          87.9534   44.1074   22.0441 H         1 ATP402      0.0000 
     39 H          91.1378   43.9976   25.6780 H         1 ATP402      0.0000 
     40 H          90.7265   44.1810   27.4166 H         1 ATP402      0.0000 
     41 H          87.4831   47.2285   27.5614 H         1 ATP402      0.0000 
     42 H          85.6385   48.0754   19.8493 H         1 ATP402      0.0000 
     43 H          86.2101   49.0122   21.5704 H         1 ATP402      0.0000 
@<TRIPOS>BOND
     1    2    1 ar   
     2    3    1 ar   
     3    4    1 ar   
     4    8    1 1    
     5    6    5 ar   
     6    7    5 ar   
     7    8    5 1    
     8   12    5 1    
     9   10    9 ar   
    10   11    9 ar   
    11   12    9 1    
    12   13    9 1    
    13   14   13 1    
    14   15   14 1    
    15   32   14 1    
    16   33   14 1    
    17   16   15 1    
    18   17   15 1    
    19   34   15 1    
    20   21   16 1    
    21   18   17 1    
    22   19   17 1    
    23   35   17 1    
    24   42   18 1    
    25   20   19 1    
    26   21   19 1    
    27   36   19 1    
    28   43   20 1    
    29   22   21 1    
    30   37   21 1    
    31   23   22 1    
    32   31   22 1    
    33   24   23 2    
    34   38   23 1    
    35   25   24 1    
    36   26   25 ar   
    37   31   25 ar   
    38   27   26 1    
    39   28   26 ar   
    40   39   27 1    
    41   40   27 1    
    42   29   28 ar   
    43   30   29 ar   
    44   41   29 1    
    45   31   30 ar   
@<TRIPOS>SUBSTRUCTURE
     1 ATP402      1 GROUP   
@<TRIPOS>SET

