#    Name: 3rq6_APR_1_INTS_M
#    Modification time : Tue Mar 25 11:49:03 2014

@<TRIPOS>MOLECULE
3rq6_APR_1_INTS_M
   73     0    15     0     0
SMALL
NO_CHARGES


@<TRIPOS>ATOM
      1 CA         33.8435   20.5135   33.4160 C.3       5 GLC5        0.0000 
      2 CA         34.6090   22.2920   33.5100 C.3      15 GLL5        0.0000 
      3 CA         33.0780   18.7350   33.3220 C.3      10 GLP5        0.0000 
      4 CA         35.9520   23.0250   34.9225 C.3       5 GLC5        0.0000 
      5 CA         37.2950   23.7580   36.3350 C.3      10 GLP5        0.0000 
      6 CA         34.1760   23.6605   34.8675 C.3       5 GLC5        0.0000 
      7 CA         33.7430   25.0290   36.2250 C.3      10 GLP5        0.0000 
      8 CA         36.0240   23.6645   33.0155 C.3       5 GLC5        0.0000 
      9 CA         37.4390   25.0370   32.5210 C.3      10 GLP5        0.0000 
     10 CA         31.7140   24.5925   30.4640 C.3       5 GLC5        0.0000 
     11 CA         32.9880   22.9970   31.3680 C.3      15 GLL5        0.0000 
     12 CA         30.4400   26.1880   29.5600 C.3      10 GLP5        0.0000 
     13 CA         32.7570   20.7575   33.0225 C.3       5 GLC5        0.0000 
     14 CA         32.4360   22.7800   32.7230 C.3      15 GLL5        0.0000 
     15 CA         33.0895   23.9045   34.4740 C.3       5 GLC5        0.0000 
     16 CA         31.7745   24.6015   33.3300 C.3       5 GLC5        0.0000 
     17 CA         31.1130   26.4230   33.9370 C.3      10 GLP5        0.0000 
     18 CA         35.8550   24.6115   30.2250 C.3       5 GLC5        0.0000 
     19 CA         35.9780   23.0260   29.3460 C.3      15 GLL5        0.0000 
     20 CA         35.7320   26.1970   31.1040 C.3      10 GLP5        0.0000 
     21 CA         36.4025   20.2700   27.3835 C.3       5 GLC5        0.0000 
     22 CA         36.2390   21.7870   28.5190 C.3      15 GLL5        0.0000 
     23 CA         36.5660   18.7530   26.2480 C.3      10 GLP5        0.0000 
     24 CA         34.9610   20.1745   29.0705 C.3       5 GLC5        0.0000 
     25 CA         33.6830   18.5620   29.6220 C.3      10 GLP5        0.0000 
     26 N          35.7485   19.5395   29.0990 N.am      2 SEC2        0.0000 
     27 N          36.5960   20.6490   29.3360 N.am     12 SEL2        0.0000 
     28 N          34.9010   18.4300   28.8620 N.am      7 SEP2        0.0000 
     29 O          35.8595   19.6295   30.4285 O.2       1 ALC1        0.0000 
     30 O          36.5960   20.6490   29.3360 O.2      11 ALL1        0.0000 
     31 O          35.1230   18.6100   31.5210 O.2       6 ALP1        0.0000 
     32 CA         37.6460   20.6820   26.7270 C.3       5 GLC5        0.0000 
     33 CA         37.3360   22.3120   27.6020 C.3      15 GLL5        0.0000 
     34 CA         37.9560   19.0520   25.8520 C.3      10 GLP5        0.0000 
     35 CA         37.3135   25.7340   27.2950 C.3       5 GLC5        0.0000 
     36 CA         36.8710   23.7330   27.2380 C.3      15 GLL5        0.0000 
     37 CA         37.7560   27.7350   27.3520 C.3      10 GLP5        0.0000 
     38 NZ         38.3035   22.0490   22.6830 N.4       3 LYC4        0.0000 
     39 NZ         37.2660   22.9940   22.4880 N.4      13 LYL4        0.0000 
     40 NZ         39.3410   21.1040   22.8780 N.4       8 LYP4        0.0000 
     41 Zn         37.3400   23.0830   21.4985 Zn        4 ZIC7        0.0000 
     42 Zn         37.2660   22.9940   22.4880 Zn       14 ZIL7        0.0000 
     43 Zn         37.4140   23.1720   20.5090 Zn        9 ZIP7        0.0000 
     44 N          38.3035   22.0490   22.6830 N.am      2 SEC2        0.0000 
     45 N          37.2660   22.9940   22.4880 N.am     12 SEL2        0.0000 
     46 N          39.3410   21.1040   22.8780 N.am      7 SEP2        0.0000 
     47 N          37.4595   25.5330   23.9960 N.am      2 SEC2        0.0000 
     48 N          35.9810   25.0880   23.2060 N.am     12 SEL2        0.0000 
     49 N          38.9380   25.9780   24.7860 N.am      7 SEP2        0.0000 
     50 Zn         37.0955   24.0705   20.6155 Zn        4 ZIC7        0.0000 
     51 Zn         36.7770   24.9690   20.7220 Zn       14 ZIL7        0.0000 
     52 N          37.0705   28.0655   22.6640 N.am      2 SEC2        0.0000 
     53 N          37.7120   26.7230   22.3620 N.am     12 SEL2        0.0000 
     54 N          36.4290   29.4080   22.9660 N.am      7 SEP2        0.0000 
     55 N          38.3250   26.3505   23.5740 N.am      2 SEC2        0.0000 
     56 N          39.2125   26.4650   22.4965 N.am      2 SEC2        0.0000 
     57 N          40.7130   26.2070   22.6310 N.am      7 SEP2        0.0000 
     58 N          35.9320   28.1945   22.2735 N.am      2 SEC2        0.0000 
     59 N          35.4350   26.9810   21.5810 N.am     12 SEL2        0.0000 
     60 CA         34.8415   29.7725   21.1290 C.3       5 GLC5        0.0000 
     61 CA         35.6040   29.7130   19.3140 C.3      15 GLL5        0.0000 
     62 CA         34.0790   29.8320   22.9440 C.3      10 GLP5        0.0000 
     63 O          38.7350   28.8500   18.9675 O.2       1 ALC1        0.0000 
     64 O          37.6990   29.0050   18.2330 O.2      11 ALL1        0.0000 
     65 O          39.7710   28.6950   19.7020 O.2       6 ALP1        0.0000 
     66 CA         34.7122   24.5475   31.2042 C.3       5 GLC5        0.0000 
     67 CA         34.3970   22.7990   31.2410 C.3      15 GLL5        0.0000 
     68 CA         38.0217   24.2778   25.4672 C.3       5 GLC5        0.0000 
     69 CA         39.6090   24.8030   24.3030 C.3      10 GLP5        0.0000 
     70 CA         34.2670   28.5095   21.4860 C.3       5 GLC5        0.0000 
     71 CA         34.3970   26.7290   20.6270 C.3      15 GLL5        0.0000 
     72 CA         36.9970   29.4627   21.1070 C.3       5 GLC5        0.0000 
     73 CA         37.8570   29.7580   22.9810 C.3      10 GLP5        0.0000 
@<TRIPOS>BOND
@<TRIPOS>SUBSTRUCTURE
     1 ALC1       29 GROUP        1 X    ALC  0     ROOT ALC X 1
     2 SEC2       26 GROUP        1 X    SEC  0     **** SEC X 2
     3 LYC4       38 GROUP        1 X    LYC  0     **** LYC X 4
     4 ZIC7       41 GROUP        1 X    ZIC  0     **** ZIC X 5
     5 GLC5        1 GROUP        1 X    GLC  0     **** GLC X 6
     6 ALP1       31 GROUP        1 Y    ALP  0     ROOT ALP Y 8
     7 SEP2       28 GROUP        1 Y    SEP  0     **** SEP Y 9
     8 LYP4       40 GROUP        1 Y    LYP  0     **** LYP Y 11
     9 ZIP7       43 GROUP        1 Y    ZIP  0     **** ZIP Y 12
    10 GLP5        3 GROUP        1 Y    GLP  0     **** GLP Y 13
    11 ALL1       30 GROUP        1 Z    ALL  0     ROOT ALL Z 15
    12 SEL2       27 GROUP        1 Z    SEL  0     **** SEL Z 16
    13 LYL4       39 GROUP        1 Z    LYL  0     **** LYL Z 18
    14 ZIL7       42 GROUP        1 Z    ZIL  0     **** ZIL Z 19
    15 GLL5        2 GROUP        1 Z    GLL  0     **** GLL Z 20
@<TRIPOS>SET

