#    Name: 3rq6_APR_1_ligand
#    Modification time : Tue Mar 25 11:49:03 2014

@<TRIPOS>MOLECULE
3rq6_APR_1_ligand
   56    59     1     0     0
SMALL
NO_CHARGES


@<TRIPOS>ATOM
      1 N1         33.2810   22.4090   33.7090 N.ar      1 APR278      0.0000 
      2 C2         34.6090   22.2920   33.5100 C.ar      1 APR278      0.0000 
      3 N3         35.1780   22.4630   32.2820 N.ar      1 APR278      0.0000 
      4 C4         34.3970   22.7990   31.2410 C.ar      1 APR278      0.0000 
      5 C5         32.9880   22.9970   31.3680 C.ar      1 APR278      0.0000 
      6 C6         32.4360   22.7800   32.7230 C.ar      1 APR278      0.0000 
      7 N6         31.1150   22.9290   32.8460 N.pl3     1 APR278      0.0000 
      8 N7         32.4450   23.3060   30.1490 N.2       1 APR278      0.0000 
      9 C8         33.5000   23.3570   29.2980 C.2       1 APR278      0.0000 
     10 N9         34.6440   23.0680   29.9510 N.pl3     1 APR278      0.0000 
     11 C1'        35.9780   23.0260   29.3460 C.3       1 APR278      0.0000 
     12 C2'        36.2390   21.7870   28.5190 C.3       1 APR278      0.0000 
     13 O2'        36.5960   20.6490   29.3360 O.3       1 APR278      0.0000 
     14 C3'        37.3360   22.3120   27.6020 C.3       1 APR278      0.0000 
     15 O3'        38.5930   22.3390   28.2730 O.3       1 APR278      0.0000 
     16 O4'        36.0780   24.1100   28.4050 O.3       1 APR278      0.0000 
     17 C4'        36.8710   23.7330   27.2380 C.3       1 APR278      0.0000 
     18 C5'        35.9980   23.7720   26.0250 C.3       1 APR278      0.0000 
     19 O5'        36.8220   23.5300   24.8720 O.3       1 APR278      0.0000 
     20 PA         36.1910   23.4710   23.4570 P.3       1 APR278      0.0000 
     21 O1A        37.2660   22.9940   22.4880 O.co2     1 APR278      0.0000 
     22 O2A        34.8190   22.8360   23.4750 O.co2     1 APR278      0.0000 
     23 O3A        35.9810   25.0880   23.2060 O.3       1 APR278      0.0000 
     24 PB         36.6240   25.9260   21.9230 P.3       1 APR278      0.0000 
     25 O1B        36.7770   24.9690   20.7220 O.co2     1 APR278      0.0000 
     26 O2B        37.7120   26.7230   22.3620 O.co2     1 APR278      0.0000 
     27 O5D        35.4350   26.9810   21.5810 O.3       1 APR278      0.0000 
     28 C5D        34.3970   26.7290   20.6270 C.3       1 APR278      0.0000 
     29 O4D        34.4550   29.0440   19.8270 O.3       1 APR278      0.0000 
     30 O1D        36.0030   30.7750   20.1450 O.3       1 APR278      0.0000 
     31 C1D        35.6040   29.7130   19.3140 C.3       1 APR278      0.0000 
     32 O2D        37.6990   29.0050   18.2330 O.3       1 APR278      0.0000 
     33 C2D        36.6700   28.6220   19.1520 C.3       1 APR278      0.0000 
     34 O3D        35.5510   27.5190   17.2370 O.3       1 APR278      0.0000 
     35 C3D        35.8280   27.4480   18.6770 C.3       1 APR278      0.0000 
     36 C4D        34.5130   27.6450   19.4290 C.3       1 APR278      0.0000 
     37 H          35.2353   22.0606   34.3268 H         1 APR278      0.0000 
     38 H          33.4357   23.5729   28.3474 H         1 APR278      0.0000 
     39 H          36.7454   23.1174   30.0830 H         1 APR278      0.0000 
     40 H          35.3652   21.6261   27.9148 H         1 APR278      0.0000 
     41 H          37.3364   21.7307   26.7136 H         1 APR278      0.0000 
     42 H          37.7107   24.3558   27.1483 H         1 APR278      0.0000 
     43 H          35.5165   24.7501   25.9678 H         1 APR278      0.0000 
     44 H          35.2228   23.0096   26.1232 H         1 APR278      0.0000 
     45 H          33.3984   26.8768   21.0743 H         1 APR278      0.0000 
     46 H          34.4317   25.6867   20.2644 H         1 APR278      0.0000 
     47 H          35.3782   30.0626   18.2963 H         1 APR278      0.0000 
     48 H          37.0290   28.3894   20.1334 H         1 APR278      0.0000 
     49 H          36.2597   26.5502   18.9778 H         1 APR278      0.0000 
     50 H          33.7049   27.4309   18.7372 H         1 APR278      0.0000 
     51 H          30.9937   23.5036   33.6554 H         1 APR278      0.0000 
     52 H          36.0528   20.7486   30.1697 H         1 APR278      0.0000 
     53 H          38.4925   21.7009   29.0364 H         1 APR278      0.0000 
     54 H          36.7671   31.2060   19.6651 H         1 APR278      0.0000 
     55 H          38.4889   28.4440   18.4806 H         1 APR278      0.0000 
     56 H          36.2518   28.1298   16.8686 H         1 APR278      0.0000 
@<TRIPOS>BOND
     1    2    1 ar   
     2    6    1 ar   
     3    3    2 ar   
     4   37    2 1    
     5    4    3 ar   
     6    5    4 ar   
     7   10    4 1    
     8    6    5 ar   
     9    8    5 1    
    10    7    6 1    
    11   51    7 1    
    12    9    8 2    
    13   10    9 1    
    14   38    9 1    
    15   11   10 1    
    16   12   11 1    
    17   16   11 1    
    18   39   11 1    
    19   13   12 1    
    20   14   12 1    
    21   40   12 1    
    22   52   13 1    
    23   15   14 1    
    24   17   14 1    
    25   41   14 1    
    26   53   15 1    
    27   17   16 1    
    28   18   17 1    
    29   42   17 1    
    30   19   18 1    
    31   43   18 1    
    32   44   18 1    
    33   20   19 1    
    34   21   20 ar   
    35   22   20 ar   
    36   23   20 1    
    37   24   23 1    
    38   25   24 ar   
    39   26   24 ar   
    40   27   24 1    
    41   28   27 1    
    42   36   28 1    
    43   45   28 1    
    44   46   28 1    
    45   31   29 1    
    46   36   29 1    
    47   31   30 1    
    48   54   30 1    
    49   33   31 1    
    50   47   31 1    
    51   33   32 1    
    52   55   32 1    
    53   35   33 1    
    54   48   33 1    
    55   35   34 1    
    56   56   34 1    
    57   36   35 1    
    58   49   35 1    
    59   50   36 1    
@<TRIPOS>SUBSTRUCTURE
     1 APR278      1 GROUP   
@<TRIPOS>SET

