#    Name: 4IRW_9_CAVITY_N1_6.mol2
#    Modification time : Tue Mar 11 06:23:18 2014

@<TRIPOS>MOLECULE
4IRW_9_CAVITY_N1_6.mol2
   35     0     6     0     0
SMALL
NO_CHARGES


@<TRIPOS>ATOM
      1 OD1         5.0169   50.4449    9.0173 O.3       3 ASP3        0.0000 
      2 OD1         3.6201   50.1468    9.4757 O.3       3 ASP3        0.0000 
      3 OG          2.2233   49.8488    9.9340 O.2       1 SER1        0.0000 
      4 CA          4.8042   49.5827    7.8084 C.3       5 GLY6        0.0000 
      5 CA          3.4074   49.2846    8.2668 C.3       5 GLY6        0.0000 
      6 OG          2.0105   48.9866    8.7252 O.2       1 SER1        0.0000 
      7 CA          5.9882   49.0185    6.1412 C.3       5 GLY6        0.0000 
      8 CA          4.5914   48.7205    6.5996 C.3       5 GLY6        0.0000 
      9 DU          5.7755   48.1563    4.9323 H         6 CUB7        0.0000 
     10 CA          4.3787   47.8583    5.3907 C.3       5 GLY6        0.0000 
     11 OD1         5.5206   49.2541    9.7779 O.3       3 ASP3        0.0000 
     12 CZ          4.1237   48.9561   10.2363 C.ar      4 PHE5        0.0000 
     13 CA          5.3078   48.3919    8.5690 C.3       5 GLY6        0.0000 
     14 CA          3.9110   48.0939    9.0274 C.3       5 GLY6        0.0000 
     15 CA          5.0951   47.5298    7.3602 C.3       5 GLY6        0.0000 
     16 CA          1.4287   53.0924    9.6217 C.3       5 GLY6        0.0000 
     17 CA          2.6128   52.5283    7.9544 C.3       5 GLY6        0.0000 
     18 CA          1.2160   52.2302    8.4128 C.3       5 GLY6        0.0000 
     19 N          -0.1808   51.9322    8.8712 N.2       2 ALA2        0.0000 
     20 DU          2.4001   51.6661    6.7456 H         6 CUB7        0.0000 
     21 OG          1.0032   51.3680    7.2039 O.2       1 SER1        0.0000 
     22 OG         -0.3936   51.0700    7.6623 O.2       1 SER1        0.0000 
     23 DU          2.1873   50.8039    5.5367 H         6 CUB7        0.0000 
     24 OG          0.7905   50.5058    5.9951 O.2       1 SER1        0.0000 
     25 OG          0.5778   49.6436    4.7862 O.2       1 SER1        0.0000 
     26 CA          3.1164   51.3375    8.7150 C.3       5 GLY6        0.0000 
     27 CA          1.7196   51.0395    9.1734 C.3       5 GLY6        0.0000 
     28 OD1         4.3005   50.7734    7.0478 O.3       3 ASP3        0.0000 
     29 DU          2.9037   50.4753    7.5062 H         6 CUB7        0.0000 
     30 OG          1.5069   50.1773    7.9645 O.2       1 SER1        0.0000 
     31 CA          0.1101   49.8793    8.4229 C.3       5 GLY6        0.0000 
     32 DU          4.0878   49.9112    5.8389 H         6 CUB7        0.0000 
     33 CA          2.6910   49.6132    6.2973 C.3       5 GLY6        0.0000 
     34 CA          1.2942   49.3151    6.7557 C.3       5 GLY6        0.0000 
     35 CA          2.4782   48.7510    5.0884 C.3       5 GLY6        0.0000 
@<TRIPOS>BOND
@<TRIPOS>SUBSTRUCTURE
     1 SER1        3 GROUP   
     2 ALA2       19 GROUP   
     3 ASP3        1 GROUP   
     4 PHE5       12 GROUP   
     5 GLY6        4 GROUP   
     6 CUB7        9 GROUP   
@<TRIPOS>SET

