#    Name: 4IRW_9_CAVITY_N1_ALL.mol2
#    Modification time : Tue Mar 11 06:23:18 2014

@<TRIPOS>MOLECULE
4IRW_9_CAVITY_N1_ALL.mol2
   64     0     7     0     0
SMALL
NO_CHARGES


@<TRIPOS>ATOM
      1 OD1         5.0169   50.4449    9.0173 O.3       3 ASP3        0.0000 
      2 OD1         3.6201   50.1468    9.4757 O.3       3 ASP3        0.0000 
      3 OG          2.2233   49.8488    9.9340 O.2       1 SER1        0.0000 
      4 CA          4.8042   49.5827    7.8084 C.3       6 GLY6        0.0000 
      5 CA          3.4074   49.2846    8.2668 C.3       6 GLY6        0.0000 
      6 OG          2.0105   48.9866    8.7252 O.2       1 SER1        0.0000 
      7 CA          5.9882   49.0185    6.1412 C.3       6 GLY6        0.0000 
      8 CA          4.5914   48.7205    6.5996 C.3       6 GLY6        0.0000 
      9 DU          5.7755   48.1563    4.9323 H         7 CUB7        0.0000 
     10 CA          4.3787   47.8583    5.3907 C.3       6 GLY6        0.0000 
     11 OD1         5.5206   49.2541    9.7779 O.3       3 ASP3        0.0000 
     12 CZ          4.1237   48.9561   10.2363 C.ar      5 PHE5        0.0000 
     13 N           6.7046   48.6900    8.1107 N.2       2 ALA2        0.0000 
     14 CA          5.3078   48.3919    8.5690 C.3       6 GLY6        0.0000 
     15 CA          3.9110   48.0939    9.0274 C.3       6 GLY6        0.0000 
     16 CA          7.8887   48.1258    6.4434 C.3       6 GLY6        0.0000 
     17 CA          6.4919   47.8278    6.9018 C.3       6 GLY6        0.0000 
     18 CA          5.0951   47.5298    7.3602 C.3       6 GLY6        0.0000 
     19 CA          7.6760   47.2636    5.2346 C.3       6 GLY6        0.0000 
     20 CA          6.2792   46.9656    5.6929 C.3       6 GLY6        0.0000 
     21 CZ          6.0664   46.1034    4.4841 C.ar      5 PHE5        0.0000 
     22 CZ          6.0242   48.0634   10.5385 C.ar      5 PHE5        0.0000 
     23 OG          7.2083   47.4993    8.8713 O.2       1 SER1        0.0000 
     24 CZ          5.8115   47.2012    9.3297 C.ar      5 PHE5        0.0000 
     25 O           4.4147   46.9032    9.7880 O.2       2 ALA2        0.0000 
     26 CA          6.9955   46.6371    7.6624 C.3       6 GLY6        0.0000 
     27 CA          5.5987   46.3390    8.1208 C.3       6 GLY6        0.0000 
     28 CA          8.1796   46.0729    5.9952 C.3       6 GLY6        0.0000 
     29 CZ          6.7828   45.7749    6.4535 C.ar      5 PHE5        0.0000 
     30 CA          5.3860   45.4768    6.9119 C.3       6 GLY6        0.0000 
     31 CA          9.3637   45.5087    4.3279 C.3       6 GLY6        0.0000 
     32 CZ          7.9669   45.2107    4.7863 C.ar      5 PHE5        0.0000 
     33 OG          7.7119   46.3085    9.6319 O.2       1 SER1        0.0000 
     34 CZ          6.3151   46.0105   10.0903 C.ar      5 PHE5        0.0000 
     35 CA          8.8960   45.7444    7.9647 C.3       6 GLY6        0.0000 
     36 OG          7.4992   45.4463    8.4230 O.2       1 SER1        0.0000 
     37 OG          6.1024   45.1483    8.8814 O.2       1 SER1        0.0000 
     38 CA          8.6833   44.8822    6.7558 C.3       6 GLY6        0.0000 
     39 CZ          7.2865   44.5842    7.2142 C.ar      5 PHE5        0.0000 
     40 CA          5.8897   44.2861    7.6725 C.3       6 GLY6        0.0000 
     41 CZ          8.4705   44.0200    5.5469 C.ar      5 PHE5        0.0000 
     42 CZ          8.0029   44.2556    9.1836 C.ar      5 PHE5        0.0000 
     43 CZ          6.6060   43.9576    9.6420 C.ar      5 PHE5        0.0000 
     44 NZ          7.7901   43.3934    7.9748 N.2       4 LYS4        0.0000 
     45 CA          1.4287   53.0924    9.6217 C.3       6 GLY6        0.0000 
     46 CA          2.6128   52.5283    7.9544 C.3       6 GLY6        0.0000 
     47 CA          1.2160   52.2302    8.4128 C.3       6 GLY6        0.0000 
     48 N          -0.1808   51.9322    8.8712 N.2       2 ALA2        0.0000 
     49 DU          2.4001   51.6661    6.7456 H         7 CUB7        0.0000 
     50 OG          1.0032   51.3680    7.2039 O.2       1 SER1        0.0000 
     51 OG         -0.3936   51.0700    7.6623 O.2       1 SER1        0.0000 
     52 DU          2.1873   50.8039    5.5367 H         7 CUB7        0.0000 
     53 OG          0.7905   50.5058    5.9951 O.2       1 SER1        0.0000 
     54 OG          0.5778   49.6436    4.7862 O.2       1 SER1        0.0000 
     55 CA          3.1164   51.3375    8.7150 C.3       6 GLY6        0.0000 
     56 CA          1.7196   51.0395    9.1734 C.3       6 GLY6        0.0000 
     57 OD1         4.3005   50.7734    7.0478 O.3       3 ASP3        0.0000 
     58 DU          2.9037   50.4753    7.5062 H         7 CUB7        0.0000 
     59 OG          1.5069   50.1773    7.9645 O.2       1 SER1        0.0000 
     60 CA          0.1101   49.8793    8.4229 C.3       6 GLY6        0.0000 
     61 DU          4.0878   49.9112    5.8389 H         7 CUB7        0.0000 
     62 CA          2.6910   49.6132    6.2973 C.3       6 GLY6        0.0000 
     63 CA          1.2942   49.3151    6.7557 C.3       6 GLY6        0.0000 
     64 CA          2.4782   48.7510    5.0884 C.3       6 GLY6        0.0000 
@<TRIPOS>BOND
@<TRIPOS>SUBSTRUCTURE
     1 SER1        3 GROUP   
     2 ALA2       13 GROUP   
     3 ASP3        1 GROUP   
     4 LYS4       44 GROUP   
     5 PHE5       12 GROUP   
     6 GLY6        4 GROUP   
     7 CUB7        9 GROUP   
@<TRIPOS>SET

