#    Name: 4irw_PDC_9_INTS_M
#    Modification time : Tue Mar 25 04:27:12 2014

@<TRIPOS>MOLECULE
4irw_PDC_9_INTS_M
    5     0     3     0     0
SMALL
NO_CHARGES


@<TRIPOS>ATOM
      1 CA          1.7280   48.6467    3.6132 C.3       1 GLC5        0.0000 
      2 CA          1.0010   49.9040    4.8140 C.3       3 GLL5        0.0000 
      3 CA          2.2870   47.0990    3.0100 C.3       2 GLP5        0.0000 
      4 CA          0.6843   48.3773    6.2897 C.3       1 GLC5        0.0000 
      5 CA          0.3240   46.4970    7.1800 C.3       2 GLP5        0.0000 
@<TRIPOS>BOND
@<TRIPOS>SUBSTRUCTURE
     1 GLC5        1 GROUP        1 X    GLC  0     ROOT GLC X 6
     2 GLP5        3 GROUP        1 Y    GLP  0     ROOT GLP Y 13
     3 GLL5        2 GROUP        1 Z    GLL  0     ROOT GLL Z 20
@<TRIPOS>SET

