#    Name: 4irw_PDC_9_ligand
#    Modification time : Tue Mar 25 04:27:12 2014

@<TRIPOS>MOLECULE
4irw_PDC_9_ligand
   15    15     1     0     0
SMALL
NO_CHARGES


@<TRIPOS>ATOM
      1 N1          1.8440   52.4820    4.7650 N.ar      1 PDC210      0.0000 
      2 C2          1.7680   51.8000    3.5950 C.ar      1 PDC210      0.0000 
      3 C3          1.3370   50.4850    3.6190 C.ar      1 PDC210      0.0000 
      4 C4          1.0010   49.9040    4.8140 C.ar      1 PDC210      0.0000 
      5 C5          1.0880   50.6110    5.9850 C.ar      1 PDC210      0.0000 
      6 C6          1.5170   51.9260    5.9550 C.ar      1 PDC210      0.0000 
      7 C7          2.1490   52.5170    2.3400 C.2       1 PDC210      0.0000 
      8 O1          2.0180   51.7750    1.3330 O.co2     1 PDC210      0.0000 
      9 O2          2.4940   53.6910    2.6460 O.co2     1 PDC210      0.0000 
     10 C8          1.6390   52.7560    7.1900 C.2       1 PDC210      0.0000 
     11 O3          1.2720   52.0880    8.1830 O.co2     1 PDC210      0.0000 
     12 O4          2.0770   53.9000    6.8880 O.co2     1 PDC210      0.0000 
     13 H           1.2712   49.9512    2.7405 H         1 PDC210      0.0000 
     14 H           0.6766   48.9162    4.8325 H         1 PDC210      0.0000 
     15 H           0.8378   50.1729    6.8817 H         1 PDC210      0.0000 
@<TRIPOS>BOND
     1    2    1 ar   
     2    6    1 ar   
     3    3    2 ar   
     4    7    2 1    
     5    4    3 ar   
     6   13    3 1    
     7    5    4 ar   
     8   14    4 1    
     9    6    5 ar   
    10   15    5 1    
    11   10    6 1    
    12    8    7 ar   
    13    9    7 ar   
    14   11   10 ar   
    15   12   10 ar   
@<TRIPOS>SUBSTRUCTURE
     1 PDC210      1 GROUP   
@<TRIPOS>SET

