#    Name: 2zm1_KSF_1_INTS_M
#    Modification time : Tue Mar 25 10:49:56 2014

@<TRIPOS>MOLECULE
2zm1_KSF_1_INTS_M
   58     0     9     0     0
SMALL
NO_CHARGES


@<TRIPOS>ATOM
      1 CA         23.0570   38.2955    4.9035 C.3       3 GLC5        0.0000 
      2 CA         21.0260   38.7930    5.5230 C.3       9 GLL5        0.0000 
      3 CA         25.0880   37.7980    4.2840 C.3       6 GLP5        0.0000 
      4 CA         22.3195   39.7375    6.3635 C.3       3 GLC5        0.0000 
      5 CA         23.6130   40.6820    7.2040 C.3       6 GLP5        0.0000 
      6 CA         19.4935   34.7345    9.5185 C.3       3 GLC5        0.0000 
      7 CA         18.9030   36.1690    7.8910 C.3       9 GLL5        0.0000 
      8 CA         20.0840   33.3000   11.1460 C.3       6 GLP5        0.0000 
      9 CA         15.9860   36.6600    6.6990 C.3       3 GLC5        0.0000 
     10 CA         17.7400   36.3630    5.7350 C.3       9 GLL5        0.0000 
     11 CA         14.2320   36.9570    7.6630 C.3       6 GLP5        0.0000 
     12 O          20.5430   38.8740    8.4845 O.2       1 ALC1        0.0000 
     13 O          20.9410   37.4200    8.2520 O.2       7 ALL1        0.0000 
     14 O          20.1450   40.3280    8.7170 O.2       4 ALP1        0.0000 
     15 N          25.0000   39.5770   11.3230 N.am      2 SEC2        0.0000 
     16 N          24.7490   38.8040   10.0580 N.am      8 SEL2        0.0000 
     17 N          25.2510   40.3500   12.5880 N.am      5 SEP2        0.0000 
     18 CA         23.8420   40.5125   10.6575 C.3       3 GLC5        0.0000 
     19 CA         23.4480   38.6800    9.7420 C.3       9 GLL5        0.0000 
     20 CA         24.2360   42.3450   11.5730 C.3       6 GLP5        0.0000 
     21 CA         23.4575   38.4140   11.7410 C.3       3 GLC5        0.0000 
     22 CA         23.4670   38.1480   13.7400 C.3       6 GLP5        0.0000 
     23 CA         25.9815   34.3080   10.1215 C.3       3 GLC5        0.0000 
     24 CA         27.2020   35.2850    8.5870 C.3       9 GLL5        0.0000 
     25 CA         24.7610   33.3310   11.6560 C.3       6 GLP5        0.0000 
     26 CA         20.5397   38.0478    3.8447 C.3       3 GLC5        0.0000 
     27 CA         20.6790   37.8870    1.8900 C.3       6 GLP5        0.0000 
     28 CA         19.1632   39.1478    6.7117 C.3       3 GLC5        0.0000 
     29 CA         17.9260   40.0870    7.6240 C.3       6 GLP5        0.0000 
     30 CA         19.3373   37.4642    9.6295 C.3       3 GLC5        0.0000 
     31 CA         19.8820   37.0660    7.4570 C.3       9 GLL5        0.0000 
     32 CA         19.2820   38.3110   11.5850 C.3       6 GLP5        0.0000 
     33 CA         18.6593   38.3522    7.6490 C.3       3 GLC5        0.0000 
     34 CA         16.8132   36.8717    8.1992 C.3       3 GLC5        0.0000 
     35 CA         15.2510   37.7390    8.9380 C.3       6 GLP5        0.0000 
     36 CA         18.5465   35.9915    3.7080 C.3       3 GLC5        0.0000 
     37 CA         18.6960   37.2730    5.2550 C.3       9 GLL5        0.0000 
     38 CA         18.8750   35.1650    1.9210 C.3       6 GLP5        0.0000 
     39 CA         17.1160   38.3050    4.7495 C.3       3 GLC5        0.0000 
     40 CA         16.0140   39.7920    4.0040 C.3       6 GLP5        0.0000 
     41 CA         18.0855   38.3871    6.7214 C.3       3 GLC5        0.0000 
     42 CA         24.7250   36.7938    5.8935 C.3       3 GLC5        0.0000 
     43 CA         23.8240   35.5040    7.1780 C.3       9 GLL5        0.0000 
     44 CA         23.8400   35.5643    9.3645 C.3       3 GLC5        0.0000 
     45 CA         23.3180   35.3390   11.2260 C.3       6 GLP5        0.0000 
     46 CA         23.5153   39.4090    8.2415 C.3       3 GLC5        0.0000 
     47 CA         23.3870   37.5920    8.8160 C.3       9 GLL5        0.0000 
     48 CA         23.3678   36.7375   10.2525 C.3       3 GLC5        0.0000 
     49 CA         25.7515   36.5072    5.6010 C.3       3 GLC5        0.0000 
     50 CA         26.2600   35.4610    7.5660 C.3       9 GLL5        0.0000 
     51 CA         28.7779   35.9064    5.7176 C.3       3 GLC5        0.0000 
     52 CA         26.5700   34.9720    6.2700 C.3       9 GLL5        0.0000 
     53 CA         29.5870   37.3710    4.8700 C.3       6 GLP5        0.0000 
     54 CA         27.9922   36.8770    7.3741 C.3       3 GLC5        0.0000 
     55 CA         28.4340   34.6650    8.3160 C.3       9 GLL5        0.0000 
     56 CA         28.4020   38.7350    6.5520 C.3       6 GLP5        0.0000 
     57 CA         28.4535   35.0050   10.4178 C.3       3 GLC5        0.0000 
     58 CA         29.0890   35.0350   12.3840 C.3       6 GLP5        0.0000 
@<TRIPOS>BOND
@<TRIPOS>SUBSTRUCTURE
     1 ALC1       12 GROUP        1 X    ALC  0     ROOT ALC X 1
     2 SEC2       15 GROUP        1 X    SEC  0     **** SEC X 2
     3 GLC5        1 GROUP        1 X    GLC  0     **** GLC X 6
     4 ALP1       14 GROUP        1 Y    ALP  0     ROOT ALP Y 8
     5 SEP2       17 GROUP        1 Y    SEP  0     **** SEP Y 9
     6 GLP5        3 GROUP        1 Y    GLP  0     **** GLP Y 13
     7 ALL1       13 GROUP        1 Z    ALL  0     ROOT ALL Z 15
     8 SEL2       16 GROUP        1 Z    SEL  0     **** SEL Z 16
     9 GLL5        2 GROUP        1 Z    GLL  0     **** GLL Z 20
@<TRIPOS>SET

