#    Name: 2zm1_KSF_1_ligand
#    Modification time : Tue Mar 25 10:49:56 2014

@<TRIPOS>MOLECULE
2zm1_KSF_1_ligand
   36    39     1     0     0
SMALL
NO_CHARGES


@<TRIPOS>ATOM
      1 CL23       21.0260   38.7930    5.5230 Cl        1 KSF513      0.0000 
      2 C18        19.7750   37.6240    6.0760 C.ar      1 KSF513      0.0000 
      3 C17        19.8820   37.0660    7.4570 C.ar      1 KSF513      0.0000 
      4 C22        18.9030   36.1690    7.8910 C.ar      1 KSF513      0.0000 
      5 C21        17.8480   35.8400    7.0300 C.ar      1 KSF513      0.0000 
      6 C20        17.7400   36.3630    5.7350 C.ar      1 KSF513      0.0000 
      7 C19        18.6960   37.2730    5.2550 C.ar      1 KSF513      0.0000 
      8 N16        20.9410   37.4200    8.2520 N.pl3     1 KSF513      0.0000 
      9 C2         22.2390   36.9710    8.0930 C.2       1 KSF513      0.0000 
     10 N3         22.5580   35.9240    7.3000 N.2       1 KSF513      0.0000 
     11 C4         23.8240   35.5040    7.1780 C.2       1 KSF513      0.0000 
     12 C5         24.9000   36.0750    7.8280 C.2       1 KSF513      0.0000 
     13 N6         24.6570   37.1220    8.6590 N.pl3     1 KSF513      0.0000 
     14 C7         25.4730   37.8770    9.4050 C.2       1 KSF513      0.0000 
     15 N8         24.7490   38.8040   10.0580 N.2       1 KSF513      0.0000 
     16 C9         23.4480   38.6800    9.7420 C.2       1 KSF513      0.0000 
     17 C1         23.3870   37.5920    8.8160 C.2       1 KSF513      0.0000 
     18 C10        26.2600   35.4610    7.5660 C.ar      1 KSF513      0.0000 
     19 C11        26.5700   34.9720    6.2700 C.ar      1 KSF513      0.0000 
     20 C12        27.8090   34.3590    5.9770 C.ar      1 KSF513      0.0000 
     21 C13        28.7480   34.2180    7.0070 C.ar      1 KSF513      0.0000 
     22 C14        28.4340   34.6650    8.3160 C.ar      1 KSF513      0.0000 
     23 C15        27.2020   35.2850    8.5870 C.ar      1 KSF513      0.0000 
     24 H          18.9540   35.7577    8.8228 H         1 KSF513      0.0000 
     25 H          17.1140   35.1795    7.3665 H         1 KSF513      0.0000 
     26 H          16.9583   36.0805    5.1322 H         1 KSF513      0.0000 
     27 H          18.6043   37.6711    4.3226 H         1 KSF513      0.0000 
     28 H          20.7537   38.0953    9.0587 H         1 KSF513      0.0000 
     29 H          24.0324   34.6731    6.5392 H         1 KSF513      0.0000 
     30 H          26.4399   37.7743    9.4677 H         1 KSF513      0.0000 
     31 H          22.7099   39.1682   10.0330 H         1 KSF513      0.0000 
     32 H          25.8656   35.0686    5.5189 H         1 KSF513      0.0000 
     33 H          28.0087   34.0302    5.0399 H         1 KSF513      0.0000 
     34 H          29.6593   33.7951    6.8237 H         1 KSF513      0.0000 
     35 H          29.1177   34.5317    9.0698 H         1 KSF513      0.0000 
     36 H          26.9942   35.6093    9.5382 H         1 KSF513      0.0000 
@<TRIPOS>BOND
     1    2    1 1    
     2    3    2 ar   
     3    7    2 ar   
     4    4    3 ar   
     5    8    3 1    
     6    5    4 ar   
     7   24    4 1    
     8    6    5 ar   
     9   25    5 1    
    10    7    6 ar   
    11   26    6 1    
    12   27    7 1    
    13    9    8 1    
    14   28    8 1    
    15   10    9 2    
    16   17    9 1    
    17   11   10 1    
    18   12   11 2    
    19   29   11 1    
    20   13   12 1    
    21   18   12 1    
    22   14   13 1    
    23   17   13 1    
    24   15   14 2    
    25   30   14 1    
    26   16   15 1    
    27   17   16 2    
    28   31   16 1    
    29   19   18 ar   
    30   23   18 ar   
    31   20   19 ar   
    32   32   19 1    
    33   21   20 ar   
    34   33   20 1    
    35   22   21 ar   
    36   34   21 1    
    37   23   22 ar   
    38   35   22 1    
    39   36   23 1    
@<TRIPOS>SUBSTRUCTURE
     1 KSF513      1 GROUP   
@<TRIPOS>SET

