#    Name: 2Z87_2_CAVITY_N1_ALL.mol2
#    Modification time : Tue Mar 11 05:08:28 2014

@<TRIPOS>MOLECULE
2Z87_2_CAVITY_N1_ALL.mol2
  131     0     7     0     0
SMALL
NO_CHARGES


@<TRIPOS>ATOM
      1 NZ        -16.9867    4.0582  -14.6953 N.2       4 LYS4        0.0000 
      2 CA        -17.7942    5.3164  -14.8171 C.3       6 GLY6        0.0000 
      3 CA        -15.0051   -1.7912  -14.3660 C.3       6 GLY6        0.0000 
      4 NZ        -15.8126   -0.5330  -14.4878 N.2       4 LYS4        0.0000 
      5 NZ        -16.6201    0.7253  -14.6096 N.2       4 LYS4        0.0000 
      6 NZ        -17.4275    1.9835  -14.7314 N.2       4 LYS4        0.0000 
      7 O         -18.2350    3.2417  -14.8532 O.2       2 ALA2        0.0000 
      8 CA        -16.2535   -2.6077  -14.5240 C.3       6 GLY6        0.0000 
      9 DU        -17.0609   -1.3494  -14.6457 H         7 CUB7        0.0000 
     10 DU        -17.8684   -0.0912  -14.7675 H         7 CUB7        0.0000 
     11 DU        -18.6759    1.1670  -14.8893 H         7 CUB7        0.0000 
     12 OD1       -19.4834    2.4252  -15.0111 O.3       3 ASP3        0.0000 
     13 O         -17.5018   -3.4241  -14.6819 O.2       2 ALA2        0.0000 
     14 O         -18.3093   -2.1659  -14.8037 O.2       2 ALA2        0.0000 
     15 DU        -19.1168   -0.9077  -14.9255 H         7 CUB7        0.0000 
     16 DU        -19.9243    0.3506  -15.0472 H         7 CUB7        0.0000 
     17 O         -20.7318    1.6088  -15.1690 O.2       2 ALA2        0.0000 
     18 CZ        -19.5577   -2.9824  -14.9616 C.ar      5 PHE5        0.0000 
     19 CZ        -20.3652   -1.7241  -15.0834 C.ar      5 PHE5        0.0000 
     20 CZ        -21.1727   -0.4659  -15.2052 C.ar      5 PHE5        0.0000 
     21 O         -21.9802    0.7923  -15.3270 O.2       2 ALA2        0.0000 
     22 O         -22.7877    2.0505  -15.4488 O.2       2 ALA2        0.0000 
     23 OD1       -18.2784    1.1343  -17.8627 O.3       3 ASP3        0.0000 
     24 N         -19.0859    2.3925  -17.9845 N.2       2 ALA2        0.0000 
     25 DU        -18.7193   -0.9404  -17.8988 H         7 CUB7        0.0000 
     26 OD1       -19.5268    0.3178  -18.0206 O.3       3 ASP3        0.0000 
     27 N         -20.3343    1.5761  -18.1424 N.2       2 ALA2        0.0000 
     28 OG        -21.1418    2.8343  -18.2642 O.2       1 SER1        0.0000 
     29 CZ        -19.9677   -1.7568  -18.0567 C.ar      5 PHE5        0.0000 
     30 CZ        -20.7752   -0.4986  -18.1785 C.ar      5 PHE5        0.0000 
     31 DU        -21.5827    0.7596  -18.3003 H         7 CUB7        0.0000 
     32 OG        -22.3902    2.0178  -18.4221 O.2       1 SER1        0.0000 
     33 NZ        -16.0113   -0.5166  -13.0012 N.2       4 LYS4        0.0000 
     34 NZ        -16.8188    0.7416  -13.1229 N.2       4 LYS4        0.0000 
     35 OG        -17.6263    1.9998  -13.2447 O.2       1 SER1        0.0000 
     36 OG        -18.4338    3.2581  -13.3665 O.2       1 SER1        0.0000 
     37 NZ        -16.4522   -2.5913  -13.0373 N.2       4 LYS4        0.0000 
     38 NZ        -17.2597   -1.3331  -13.1591 N.2       4 LYS4        0.0000 
     39 NZ        -18.0672   -0.0749  -13.2809 N.2       4 LYS4        0.0000 
     40 OG        -18.8747    1.1834  -13.4027 O.2       1 SER1        0.0000 
     41 OG        -19.6822    2.4416  -13.5244 O.2       1 SER1        0.0000 
     42 O         -17.7006   -3.4078  -13.1952 O.2       2 ALA2        0.0000 
     43 NZ        -18.5081   -2.1495  -13.3170 N.2       4 LYS4        0.0000 
     44 NZ        -19.3156   -0.8913  -13.4388 N.2       4 LYS4        0.0000 
     45 DU        -20.1231    0.3669  -13.5606 H         7 CUB7        0.0000 
     46 O         -20.9306    1.6251  -13.6824 O.2       2 ALA2        0.0000 
     47 CA        -19.7565   -2.9660  -13.4749 C.3       6 GLY6        0.0000 
     48 CZ        -20.5639   -1.7078  -13.5967 C.ar      5 PHE5        0.0000 
     49 CZ        -21.3714   -0.4496  -13.7185 C.ar      5 PHE5        0.0000 
     50 O         -22.1789    0.8087  -13.8403 O.2       2 ALA2        0.0000 
     51 CZ        -22.6198   -1.2660  -13.8764 C.ar      5 PHE5        0.0000 
     52 CZ        -23.4273   -0.0078  -13.9982 C.ar      5 PHE5        0.0000 
     53 NZ        -18.7068   -2.1332  -11.8303 N.2       4 LYS4        0.0000 
     54 NZ        -19.5143   -0.8750  -11.9521 N.2       4 LYS4        0.0000 
     55 OG        -20.3218    0.3833  -12.0739 O.2       1 SER1        0.0000 
     56 OG        -21.1293    1.6415  -12.1957 O.2       1 SER1        0.0000 
     57 CA        -19.9552   -2.9496  -11.9882 C.3       6 GLY6        0.0000 
     58 DU        -20.7627   -1.6914  -12.1100 H         7 CUB7        0.0000 
     59 DU        -21.5702   -0.4332  -12.2318 H         7 CUB7        0.0000 
     60 O         -22.3777    0.8250  -12.3536 O.2       2 ALA2        0.0000 
     61 O         -23.1852    2.0832  -12.4754 O.2       2 ALA2        0.0000 
     62 CA        -21.2036   -3.7661  -12.1461 C.3       6 GLY6        0.0000 
     63 CZ        -22.0111   -2.5079  -12.2679 C.ar      5 PHE5        0.0000 
     64 CZ        -22.8186   -1.2497  -12.3897 C.ar      5 PHE5        0.0000 
     65 O         -23.6261    0.0086  -12.5115 O.2       2 ALA2        0.0000 
     66 CZ        -24.0670   -2.0661  -12.5476 C.ar      5 PHE5        0.0000 
     67 CA        -14.8063   -1.8075  -15.8527 C.3       6 GLY6        0.0000 
     68 NZ        -15.6138   -0.5493  -15.9745 N.2       4 LYS4        0.0000 
     69 NZ        -17.2288    1.9671  -16.2181 N.2       4 LYS4        0.0000 
     70 NZ        -18.0363    3.2253  -16.3399 N.2       4 LYS4        0.0000 
     71 CA        -18.8438    4.4836  -16.4617 C.3       6 GLY6        0.0000 
     72 OG        -16.0547   -2.6240  -16.0106 O.2       1 SER1        0.0000 
     73 DU        -16.8622   -1.3658  -16.1324 H         7 CUB7        0.0000 
     74 NZ        -17.6697   -0.1076  -16.2542 N.2       4 LYS4        0.0000 
     75 NZ        -18.4772    1.1507  -16.3760 N.2       4 LYS4        0.0000 
     76 DU        -19.2847    2.4089  -16.4978 H         7 CUB7        0.0000 
     77 O         -20.0922    3.6671  -16.6196 O.2       2 ALA2        0.0000 
     78 O         -17.3031   -3.4405  -16.1686 O.2       2 ALA2        0.0000 
     79 O         -18.1106   -2.1822  -16.2903 O.2       2 ALA2        0.0000 
     80 CZ        -18.9181   -0.9240  -16.4121 C.ar      5 PHE5        0.0000 
     81 DU        -19.7256    0.3342  -16.5339 H         7 CUB7        0.0000 
     82 DU        -20.5330    1.5924  -16.6557 H         7 CUB7        0.0000 
     83 OG        -21.3405    2.8506  -16.7775 O.2       1 SER1        0.0000 
     84 CZ        -20.9739   -0.4823  -16.6918 C.ar      5 PHE5        0.0000 
     85 DU        -21.7814    0.7760  -16.8136 H         7 CUB7        0.0000 
     86 OG        -22.5889    2.0342  -16.9354 O.2       1 SER1        0.0000 
     87 O         -21.6011   -3.7334   -9.1728 O.2       2 ALA2        0.0000 
     88 CA        -22.4086   -2.4752   -9.2945 C.3       6 GLY6        0.0000 
     89 DU        -23.2161   -1.2170   -9.4163 H         7 CUB7        0.0000 
     90 CZ        -24.0236    0.0413   -9.5381 C.ar      5 PHE5        0.0000 
     91 O         -22.8495   -4.5499   -9.3307 O.2       2 ALA2        0.0000 
     92 DU        -23.6570   -3.2916   -9.4525 H         7 CUB7        0.0000 
     93 DU        -24.4645   -2.0334   -9.5743 H         7 CUB7        0.0000 
     94 CZ        -25.2720   -0.7752   -9.6960 C.ar      5 PHE5        0.0000 
     95 O         -23.2904   -6.6245   -9.3668 O.2       2 ALA2        0.0000 
     96 CA        -21.3590   -1.6424   -7.6499 C.3       6 GLY6        0.0000 
     97 N         -22.1665   -0.3841   -7.7717 N.2       2 ALA2        0.0000 
     98 CA        -22.6073   -2.4588   -7.8079 C.3       6 GLY6        0.0000 
     99 N         -23.4148   -1.2006   -7.9297 N.2       2 ALA2        0.0000 
    100 N         -24.2223    0.0576   -8.0514 N.2       2 ALA2        0.0000 
    101 CA        -23.0482   -4.5335   -7.8440 C.3       6 GLY6        0.0000 
    102 N         -23.8557   -3.2753   -7.9658 N.2       2 ALA2        0.0000 
    103 N         -24.6632   -2.0171   -8.0876 N.2       2 ALA2        0.0000 
    104 N         -25.4707   -0.7588   -8.2094 N.2       2 ALA2        0.0000 
    105 CA        -23.4891   -6.6082   -7.8801 C.3       6 GLY6        0.0000 
    106 OD1       -19.3280    0.3015  -19.5073 O.3       3 ASP3        0.0000 
    107 N         -20.1355    1.5597  -19.6291 N.2       2 ALA2        0.0000 
    108 N         -21.3839    0.7433  -19.7870 N.2       2 ALA2        0.0000 
    109 CA        -22.1914    2.0015  -19.9088 C.3       6 GLY6        0.0000 
    110 NZ        -19.7131   -0.8586  -10.4654 N.2       4 LYS4        0.0000 
    111 OG        -20.5206    0.3996  -10.5872 O.2       1 SER1        0.0000 
    112 OG        -21.3281    1.6578  -10.7090 O.2       1 SER1        0.0000 
    113 OG        -22.1356    2.9161  -10.8308 O.2       1 SER1        0.0000 
    114 CA        -20.1540   -2.9333  -10.5015 C.3       6 GLY6        0.0000 
    115 DU        -20.9615   -1.6751  -10.6233 H         7 CUB7        0.0000 
    116 DU        -21.7689   -0.4168  -10.7451 H         7 CUB7        0.0000 
    117 CZ        -22.5764    0.8414  -10.8669 C.ar      5 PHE5        0.0000 
    118 O         -23.3839    2.0996  -10.9887 O.2       2 ALA2        0.0000 
    119 CA        -21.4023   -3.7498  -10.6594 C.3       6 GLY6        0.0000 
    120 DU        -22.2098   -2.4915  -10.7812 H         7 CUB7        0.0000 
    121 DU        -23.0173   -1.2333  -10.9030 H         7 CUB7        0.0000 
    122 CZ        -23.8248    0.0249  -11.0248 C.ar      5 PHE5        0.0000 
    123 CA        -21.8432   -5.8244  -10.6956 C.3       6 GLY6        0.0000 
    124 CA        -22.6507   -4.5662  -10.8173 C.3       6 GLY6        0.0000 
    125 CZ        -23.4582   -3.3080  -10.9391 C.ar      5 PHE5        0.0000 
    126 DU        -24.2657   -2.0498  -11.0609 H         7 CUB7        0.0000 
    127 N         -20.7193    0.4160   -9.1005 N.2       2 ALA2        0.0000 
    128 OG        -21.5268    1.6742   -9.2223 O.2       1 SER1        0.0000 
    129 CA        -21.1602   -1.6587   -9.1366 C.3       6 GLY6        0.0000 
    130 DU        -21.9677   -0.4005   -9.2584 H         7 CUB7        0.0000 
    131 N         -22.7752    0.8577   -9.3802 N.2       2 ALA2        0.0000 
@<TRIPOS>BOND
@<TRIPOS>SUBSTRUCTURE
     1 SER1       28 GROUP   
     2 ALA2        7 GROUP   
     3 ASP3       12 GROUP   
     4 LYS4        1 GROUP   
     5 PHE5       18 GROUP   
     6 GLY6        2 GROUP   
     7 CUB7        9 GROUP   
@<TRIPOS>SET

