#    Name: 2z87_UD2_2_INTS_M
#    Modification time : Tue Mar 25 10:24:13 2014

@<TRIPOS>MOLECULE
2z87_UD2_2_INTS_M
   81     0    15     0     0
SMALL
NO_CHARGES


@<TRIPOS>ATOM
      1 CA        -14.6985   -2.6375  -13.9750 C.3       5 GLC5        0.0000 
      2 CA        -16.6450   -2.0280  -14.2180 C.3      15 GLL5        0.0000 
      3 CA        -12.7520   -3.2470  -13.7320 C.3      10 GLP5        0.0000 
      4 CA        -19.2985   -3.6330  -15.7945 C.3       5 GLC5        0.0000 
      5 CA        -17.5630   -2.7180  -15.2110 C.3      15 GLL5        0.0000 
      6 CA        -21.0340   -4.5480  -16.3780 C.3      10 GLP5        0.0000 
      7 CA        -18.6920   -5.0460  -15.7185 C.3       5 GLC5        0.0000 
      8 CA        -17.9580   -4.0580  -14.5920 C.3      15 GLL5        0.0000 
      9 CA        -19.4260   -6.0340  -16.8450 C.3      10 GLP5        0.0000 
     10 CA        -18.6645   -4.8800  -12.9860 C.3       5 GLC5        0.0000 
     11 CA        -19.3710   -5.7020  -11.3800 C.3      10 GLP5        0.0000 
     12 CA        -16.8010    5.4135  -16.4020 C.3       5 GLC5        0.0000 
     13 CA        -17.5630    3.7570  -15.6820 C.3      15 GLL5        0.0000 
     14 CA        -16.0390    7.0700  -17.1220 C.3      10 GLP5        0.0000 
     15 CA        -15.8320    4.0690  -14.4340 C.3       5 GLC5        0.0000 
     16 CA        -14.1010    4.3810  -13.1860 C.3      10 GLP5        0.0000 
     17 CA        -17.9365    4.2070  -17.6865 C.3       5 GLC5        0.0000 
     18 CA        -18.3100    4.6570  -19.6910 C.3      10 GLP5        0.0000 
     19 O         -16.0135    1.8410  -15.4855 O.2       1 ALC1        0.0000 
     20 O         -17.3610    1.4750  -15.0480 O.2      11 ALL1        0.0000 
     21 O         -14.6660    2.2070  -15.9230 O.2       6 ALP1        0.0000 
     22 N         -14.5160   -0.0610  -12.6660 N.am      2 SEC2        0.0000 
     23 N         -15.7680    0.0050  -13.4530 N.am     12 SEL2        0.0000 
     24 N         -13.2640   -0.1270  -11.8790 N.am      7 SEP2        0.0000 
     25 O         -15.2170    1.1060  -14.6880 O.2       1 ALC1        0.0000 
     26 O         -15.7680    0.0050  -13.4530 O.2      11 ALL1        0.0000 
     27 O         -17.1705   -0.9575  -11.7060 O.2       1 ALC1        0.0000 
     28 O         -17.2320   -2.0560  -12.9160 O.2      11 ALL1        0.0000 
     29 O         -17.1090    0.1410  -10.4960 O.2       6 ALP1        0.0000 
     30 N         -15.6895   -5.1955  -15.1090 N.am      2 SEC2        0.0000 
     31 N         -16.7570   -4.8000  -14.3090 N.am     12 SEL2        0.0000 
     32 N         -14.6220   -5.5910  -15.9090 N.am      7 SEP2        0.0000 
     33 O         -15.9465   -4.8900  -13.0085 O.2       1 ALC1        0.0000 
     34 O         -16.7570   -4.8000  -14.3090 O.2      11 ALL1        0.0000 
     35 O         -15.1360   -4.9800  -11.7080 O.2       6 ALP1        0.0000 
     36 O          -8.0000   -6.8385  -18.1805 O.2       1 ALC1        0.0000 
     37 O          -9.1180   -5.8260  -18.4730 O.2      11 ALL1        0.0000 
     38 O          -6.8820   -7.8510  -17.8880 O.2       6 ALP1        0.0000 
     39 CA        -10.2620   -5.6900  -21.4165 C.3       5 GLC5        0.0000 
     40 CA        -11.1060   -5.8350  -19.8340 C.3      15 GLL5        0.0000 
     41 CA         -9.4180   -5.5450  -22.9990 C.3      10 GLP5        0.0000 
     42 CA        -11.8870   -6.8965  -18.8720 C.3       5 GLC5        0.0000 
     43 CA        -12.6680   -7.9580  -17.9100 C.3      10 GLP5        0.0000 
     44 CA         -9.8210   -4.1820  -20.4780 C.3       5 GLC5        0.0000 
     45 CA        -11.3790   -4.5610  -19.4030 C.3      15 GLL5        0.0000 
     46 CA         -8.2630   -3.8030  -21.5530 C.3      10 GLP5        0.0000 
     47 CA        -12.3615   -5.6750  -18.4645 C.3       5 GLC5        0.0000 
     48 CA        -13.3440   -6.7890  -17.5260 C.3      10 GLP5        0.0000 
     49 CA        -11.1020   -3.1375  -16.1190 C.3       5 GLC5        0.0000 
     50 CA        -10.8120   -2.5680  -18.0340 C.3      15 GLL5        0.0000 
     51 CA        -11.3920   -3.7070  -14.2040 C.3      10 GLP5        0.0000 
     52 CA         -9.6615   -2.6625  -20.3285 C.3       5 GLC5        0.0000 
     53 CA        -11.0600   -1.5220  -19.1040 C.3      15 GLL5        0.0000 
     54 O          -9.0535    0.1365  -18.6865 O.2       1 ALC1        0.0000 
     55 O          -9.8570   -0.8180  -19.4690 O.2      11 ALL1        0.0000 
     56 O          -8.2500    1.0910  -17.9040 O.2       6 ALP1        0.0000 
     57 CA        -12.4020    1.3400  -17.7040 C.3       5 GLC5        0.0000 
     58 CA        -11.9900   -0.5620  -18.3910 C.3      15 GLL5        0.0000 
     59 CA        -12.8140    3.2420  -17.0170 C.3      10 GLP5        0.0000 
     60 O         -11.9360    0.8605  -16.6365 O.2       1 ALC1        0.0000 
     61 O         -11.1880    0.3740  -17.6860 O.2      11 ALL1        0.0000 
     62 O         -12.6840    1.3470  -15.5870 O.2       6 ALP1        0.0000 
     63 Zn        -16.0015    1.0215  -19.9260 Zn        4 ZIC7        0.0000 
     64 Zn        -15.3960    0.2670  -19.7830 Zn       14 ZIL7        0.0000 
     65 Zn        -16.6070    1.7760  -20.0690 Zn        9 ZIP7        0.0000 
     66 N         -14.5750    0.4170  -21.1350 N.am      2 SEC2        0.0000 
     67 N         -15.3960    0.2670  -19.7830 N.am     12 SEL2        0.0000 
     68 N         -13.7540    0.5670  -22.4870 N.am      7 SEP2        0.0000 
     69 NZ        -14.6810   -0.6770  -21.8330 N.4       3 LYC4        0.0000 
     70 NZ        -15.6080   -1.9210  -21.1790 N.4      13 LYL4        0.0000 
     71 NZ        -13.7740   -0.2590  -23.5270 N.4       8 LYP4        0.0000 
     72 N         -14.6810   -0.6770  -21.8330 N.am      2 SEC2        0.0000 
     73 N         -15.6080   -1.9210  -21.1790 N.am     12 SEL2        0.0000 
     74 N         -15.1630   -1.5555  -22.3975 N.am      2 SEC2        0.0000 
     75 N         -14.7180   -1.1900  -23.6160 N.am      7 SEP2        0.0000 
     76 Zn        -17.2550    1.1645  -19.7895 Zn        4 ZIC7        0.0000 
     77 Zn        -17.9030    0.5530  -19.5100 Zn       14 ZIL7        0.0000 
     78 CA        -10.6570    0.3810  -19.9988 C.3       5 GLC5        0.0000 
     79 CA         -9.7890    1.8040  -21.2500 C.3      10 GLP5        0.0000 
     80 CA        -13.0858   -2.3672  -15.6095 C.3       5 GLC5        0.0000 
     81 CA        -12.6890   -1.3480  -17.3230 C.3      15 GLL5        0.0000 
@<TRIPOS>BOND
@<TRIPOS>SUBSTRUCTURE
     1 ALC1       19 GROUP        1 X    ALC  0     ROOT ALC X 1
     2 SEC2       22 GROUP        1 X    SEC  0     **** SEC X 2
     3 LYC4       69 GROUP        1 X    LYC  0     **** LYC X 4
     4 ZIC7       63 GROUP        1 X    ZIC  0     **** ZIC X 5
     5 GLC5        1 GROUP        1 X    GLC  0     **** GLC X 6
     6 ALP1       21 GROUP        1 Y    ALP  0     ROOT ALP Y 8
     7 SEP2       24 GROUP        1 Y    SEP  0     **** SEP Y 9
     8 LYP4       71 GROUP        1 Y    LYP  0     **** LYP Y 11
     9 ZIP7       65 GROUP        1 Y    ZIP  0     **** ZIP Y 12
    10 GLP5        3 GROUP        1 Y    GLP  0     **** GLP Y 13
    11 ALL1       20 GROUP        1 Z    ALL  0     ROOT ALL Z 15
    12 SEL2       23 GROUP        1 Z    SEL  0     **** SEL Z 16
    13 LYL4       70 GROUP        1 Z    LYL  0     **** LYL Z 18
    14 ZIL7       64 GROUP        1 Z    ZIL  0     **** ZIL Z 19
    15 GLL5        2 GROUP        1 Z    GLL  0     **** GLL Z 20
@<TRIPOS>SET

