#    Name: 2z87_UD2_2_ligand
#    Modification time : Tue Mar 25 10:24:13 2014

@<TRIPOS>MOLECULE
2z87_UD2_2_ligand
   64    66     1     0     0
SMALL
NO_CHARGES


@<TRIPOS>ATOM
      1 C1'       -18.4340   -0.5670  -16.0030 C.3       1 UD2683      0.0000 
      2 C2'       -17.7430    0.0940  -14.8060 C.3       1 UD2683      0.0000 
      3 C3'       -16.4060   -0.5880  -14.5830 C.3       1 UD2683      0.0000 
      4 C4'       -16.6450   -2.0280  -14.2180 C.3       1 UD2683      0.0000 
      5 C5'       -17.5630   -2.7180  -15.2110 C.3       1 UD2683      0.0000 
      6 C6'       -17.9580   -4.0580  -14.5920 C.3       1 UD2683      0.0000 
      7 C7'       -18.1790    2.3930  -15.5270 C.2       1 UD2683      0.0000 
      8 C8'       -17.5630    3.7570  -15.6820 C.3       1 UD2683      0.0000 
      9 N2'       -17.3610    1.4750  -15.0480 N.am      1 UD2683      0.0000 
     10 O1'       -17.5700   -0.5250  -17.1490 O.3       1 UD2683      0.0000 
     11 O3'       -15.7680    0.0050  -13.4530 O.3       1 UD2683      0.0000 
     12 O4'       -17.2320   -2.0560  -12.9160 O.3       1 UD2683      0.0000 
     13 O5'       -18.7120   -1.9140  -15.5870 O.3       1 UD2683      0.0000 
     14 O6'       -16.7570   -4.8000  -14.3090 O.3       1 UD2683      0.0000 
     15 O7'       -19.3350    2.1350  -15.8390 O.2       1 UD2683      0.0000 
     16 N1        -10.5240   -3.9260  -18.5110 N.am      1 UD2683      0.0000 
     17 C2         -9.4090   -4.5610  -18.0600 C.2       1 UD2683      0.0000 
     18 N3         -9.1180   -5.8260  -18.4730 N.am      1 UD2683      0.0000 
     19 C4         -9.9280   -6.4850  -19.3430 C.2       1 UD2683      0.0000 
     20 C5        -11.1060   -5.8350  -19.8340 C.2       1 UD2683      0.0000 
     21 C6        -11.3790   -4.5610  -19.4030 C.2       1 UD2683      0.0000 
     22 O2         -8.6650   -4.0020  -17.2740 O.2       1 UD2683      0.0000 
     23 O4         -9.6530   -7.6200  -19.6980 O.2       1 UD2683      0.0000 
     24 C1B       -10.8120   -2.5680  -18.0340 C.3       1 UD2683      0.0000 
     25 C2B       -11.0600   -1.5220  -19.1040 C.3       1 UD2683      0.0000 
     26 O2'        -9.8570   -0.8180  -19.4690 O.3       1 UD2683      0.0000 
     27 C3B       -11.9900   -0.5620  -18.3910 C.3       1 UD2683      0.0000 
     28 C4B       -12.6890   -1.3480  -17.3230 C.3       1 UD2683      0.0000 
     29 O4B       -11.9780   -2.5670  -17.2210 O.3       1 UD2683      0.0000 
     30 O3B       -11.1880    0.3740  -17.6860 O.3       1 UD2683      0.0000 
     31 C5B       -14.1500   -1.6270  -17.6510 C.3       1 UD2683      0.0000 
     32 O5B       -14.3610   -1.9600  -19.0180 O.3       1 UD2683      0.0000 
     33 PA        -15.5450   -1.2320  -19.8460 P.3       1 UD2683      0.0000 
     34 O1A       -15.3960    0.2670  -19.7830 O.co2     1 UD2683      0.0000 
     35 O2A       -15.6080   -1.9210  -21.1790 O.co2     1 UD2683      0.0000 
     36 O3A       -16.8330   -1.7390  -19.0580 O.3       1 UD2683      0.0000 
     37 PB        -18.0150   -0.7270  -18.7020 P.3       1 UD2683      0.0000 
     38 O1B       -17.9030    0.5530  -19.5100 O.co2     1 UD2683      0.0000 
     39 O2B       -19.3020   -1.5240  -18.7430 O.co2     1 UD2683      0.0000 
     40 H         -19.3485   -0.0294  -16.1723 H         1 UD2683      0.0000 
     41 H         -18.3200   -0.0086  -13.9336 H         1 UD2683      0.0000 
     42 H         -15.8198   -0.5318  -15.4520 H         1 UD2683      0.0000 
     43 H         -15.6934   -2.5429  -14.2127 H         1 UD2683      0.0000 
     44 H         -16.9524   -2.9543  -16.0971 H         1 UD2683      0.0000 
     45 H         -18.5966   -4.5827  -15.3014 H         1 UD2683      0.0000 
     46 H         -18.5286   -3.8567  -13.6864 H         1 UD2683      0.0000 
     47 H         -16.3550    1.7044  -14.8085 H         1 UD2683      0.0000 
     48 H          -8.2560   -6.2972  -18.1137 H         1 UD2683      0.0000 
     49 H         -11.7073   -6.3285  -20.4848 H         1 UD2683      0.0000 
     50 H         -12.2215   -4.0660  -19.7387 H         1 UD2683      0.0000 
     51 H          -9.9677   -2.2049  -17.4236 H         1 UD2683      0.0000 
     52 H         -11.5708   -1.9532  -19.9063 H         1 UD2683      0.0000 
     53 H         -12.6621   -0.1391  -19.0400 H         1 UD2683      0.0000 
     54 H         -12.6344   -0.7992  -16.3978 H         1 UD2683      0.0000 
     55 H         -14.7342   -0.7283  -17.3576 H         1 UD2683      0.0000 
     56 H         -14.4923   -2.4420  -16.9775 H         1 UD2683      0.0000 
     57 H         -17.2344    4.1175  -14.8090 H         1 UD2683      0.0000 
     58 H         -16.7818    3.7429  -16.3061 H         1 UD2683      0.0000 
     59 H         -18.2167    4.4206  -16.0457 H         1 UD2683      0.0000 
     60 H         -15.6212    0.9601  -13.7104 H         1 UD2683      0.0000 
     61 H         -16.9619   -1.1916  -12.4918 H         1 UD2683      0.0000 
     62 H         -16.5286   -4.5714  -13.3626 H         1 UD2683      0.0000 
     63 H          -9.9068    0.0514  -18.9775 H         1 UD2683      0.0000 
     64 H         -11.5304    0.3523  -16.7467 H         1 UD2683      0.0000 
@<TRIPOS>BOND
     1    2    1 1    
     2   10    1 1    
     3   13    1 1    
     4   40    1 1    
     5    3    2 1    
     6    9    2 1    
     7   41    2 1    
     8    4    3 1    
     9   11    3 1    
    10   42    3 1    
    11    5    4 1    
    12   12    4 1    
    13   43    4 1    
    14    6    5 1    
    15   13    5 1    
    16   44    5 1    
    17   14    6 1    
    18   45    6 1    
    19   46    6 1    
    20    8    7 1    
    21    9    7 am   
    22   15    7 2    
    23   57    8 1    
    24   58    8 1    
    25   59    8 1    
    26   47    9 1    
    27   37   10 1    
    28   60   11 1    
    29   61   12 1    
    30   62   14 1    
    31   17   16 1    
    32   21   16 1    
    33   24   16 1    
    34   18   17 1    
    35   22   17 2    
    36   19   18 1    
    37   48   18 1    
    38   20   19 1    
    39   23   19 2    
    40   21   20 2    
    41   49   20 1    
    42   50   21 1    
    43   25   24 1    
    44   29   24 1    
    45   51   24 1    
    46   26   25 1    
    47   27   25 1    
    48   52   25 1    
    49   63   26 1    
    50   28   27 1    
    51   30   27 1    
    52   53   27 1    
    53   29   28 1    
    54   31   28 1    
    55   54   28 1    
    56   64   30 1    
    57   32   31 1    
    58   55   31 1    
    59   56   31 1    
    60   33   32 1    
    61   34   33 ar   
    62   35   33 ar   
    63   36   33 1    
    64   37   36 1    
    65   38   37 ar   
    66   39   37 ar   
@<TRIPOS>SUBSTRUCTURE
     1 UD2683      1 GROUP   
@<TRIPOS>SET

