#    Name: 1szj_NAD_2_INTS_M
#    Modification time : Tue Mar 25 04:02:09 2014

@<TRIPOS>MOLECULE
1szj_NAD_2_INTS_M
   66     0     9     0     0
SMALL
NO_CHARGES


@<TRIPOS>ATOM
      1 N           3.5615  -11.2930   16.5695 N.am      2 SEC2        0.0000 
      2 N           3.6140   -9.9140   17.0460 N.am      8 SEL2        0.0000 
      3 N           3.5090  -12.6720   16.0930 N.am      5 SEP2        0.0000 
      4 CA          4.0180  -12.7530   22.5050 C.3       3 GLC5        0.0000 
      5 CA          3.7340  -10.8220   21.5710 C.3       9 GLL5        0.0000 
      6 CA          4.3020  -14.6840   23.4390 C.3       6 GLP5        0.0000 
      7 O           1.1440  -12.3330   22.1985 O.2       1 ALC1        0.0000 
      8 O           1.3550  -11.3850   21.1550 O.2       7 ALL1        0.0000 
      9 O           0.9330  -13.2810   23.2420 O.2       4 ALP1        0.0000 
     10 CA          0.8845   -9.3115   24.6880 C.3       3 GLC5        0.0000 
     11 CA          2.0590   -9.8620   22.9790 C.3       9 GLL5        0.0000 
     12 CA         -0.2900   -8.7610   26.3970 C.3       6 GLP5        0.0000 
     13 O           0.2325  -11.0785   24.0475 O.2       1 ALC1        0.0000 
     14 O           0.6860   -9.9330   23.3990 O.2       7 ALL1        0.0000 
     15 O          -0.2210  -12.2240   24.6960 O.2       4 ALP1        0.0000 
     16 O           0.8095  -11.6070   23.3205 O.2       1 ALC1        0.0000 
     17 CA          3.6325  -12.7580   23.5730 C.3       3 GLC5        0.0000 
     18 CA          2.9630  -10.8320   23.7070 C.3       9 GLL5        0.0000 
     19 O           4.2180  -10.3705   31.0065 O.2       1 ALC1        0.0000 
     20 O           4.4310  -10.1590   29.3970 O.2       7 ALL1        0.0000 
     21 O           4.0050  -10.5820   32.6160 O.2       4 ALP1        0.0000 
     22 CA          4.1190  -13.8980   25.4450 C.3       3 GLC5        0.0000 
     23 CA          3.9360  -13.1120   27.4510 C.3       9 GLL5        0.0000 
     24 CA          2.1115  -13.9250   26.9345 C.3       3 GLC5        0.0000 
     25 CA          0.2870  -14.7380   26.4180 C.3       6 GLP5        0.0000 
     26 CA          2.3180  -12.8340   27.9700 C.3       3 GLC5        0.0000 
     27 CA          0.7000  -12.5560   28.4890 C.3       6 GLP5        0.0000 
     28 CA          5.4535  -12.8480   26.6665 C.3       3 GLC5        0.0000 
     29 CA          6.9710  -12.5840   25.8820 C.3       6 GLP5        0.0000 
     30 CA          3.8500  -13.0045   24.7780 C.3       3 GLC5        0.0000 
     31 CA          3.3980  -11.3250   26.1170 C.3       9 GLL5        0.0000 
     32 CA          2.0490  -11.9405   27.3030 C.3       3 GLC5        0.0000 
     33 N           6.1660  -12.9370   16.3870 N.am      2 SEC2        0.0000 
     34 N           6.3630  -11.6670   17.0610 N.am      8 SEL2        0.0000 
     35 N           5.9690  -14.2070   15.7130 N.am      5 SEP2        0.0000 
     36 CA         10.1550  -12.1030   16.5340 C.3       3 GLC5        0.0000 
     37 CA         11.4450  -10.6440   17.4410 C.3       9 GLL5        0.0000 
     38 CA          8.8650  -13.5620   15.6270 C.3       6 GLP5        0.0000 
     39 CA         13.1910  -10.6310   18.7610 C.3       3 GLC5        0.0000 
     40 CA         14.9370  -10.6180   20.0810 C.3       6 GLP5        0.0000 
     41 CA          9.7025  -12.0555   15.3625 C.3       3 GLC5        0.0000 
     42 CA         10.5400  -10.5490   15.0980 C.3       9 GLL5        0.0000 
     43 N           9.8625   -9.8175   10.0660 N.am      2 SEC2        0.0000 
     44 N           9.9150  -10.2200   11.5470 N.am      8 SEL2        0.0000 
     45 N           9.8100   -9.4150    8.5850 N.am      5 SEP2        0.0000 
     46 CA         13.0950  -10.6940   12.2070 C.3       3 GLC5        0.0000 
     47 CA         11.8310  -11.4740   13.2730 C.3       9 GLL5        0.0000 
     48 CA         14.3590   -9.9140   11.1410 C.3       6 GLP5        0.0000 
     49 CA         13.8170  -11.7670   12.5340 C.3       3 GLC5        0.0000 
     50 CA         12.8480  -11.8320   14.1470 C.3       9 GLL5        0.0000 
     51 CA         14.7860  -11.7020   10.9210 C.3       6 GLP5        0.0000 
     52 CA         10.7830  -12.5685   15.5650 C.3       3 GLC5        0.0000 
     53 CA         12.7010  -11.5750   15.5030 C.3       9 GLL5        0.0000 
     54 CA          2.9835  -11.6938   19.8915 C.3       3 GLC5        0.0000 
     55 CA          4.6040   -9.8940   20.7350 C.3       9 GLL5        0.0000 
     56 CA          2.7450  -13.0310   18.4280 C.3       6 GLP5        0.0000 
     57 CA          2.1610  -10.9390   28.3325 C.3       3 GLC5        0.0000 
     58 CA          3.7000  -10.5280   27.1900 C.3       9 GLL5        0.0000 
     59 CA          0.4020  -11.1140   28.8660 C.3       6 GLP5        0.0000 
     60 CA          5.3150  -11.8142   26.4200 C.3       3 GLC5        0.0000 
     61 CA         10.0246   -9.4090   20.9333 C.3       3 GLC5        0.0000 
     62 CA         10.5660   -9.3800   19.1750 C.3       9 GLL5        0.0000 
     63 CA         10.1670   -8.7550   22.6910 C.3       6 GLP5        0.0000 
     64 CA         10.5862  -12.7733   14.0044 C.3       3 GLC5        0.0000 
     65 CA         10.6830  -10.8200   13.7440 C.3       9 GLL5        0.0000 
     66 CA          9.1200  -14.0570   14.1810 C.3       6 GLP5        0.0000 
@<TRIPOS>BOND
@<TRIPOS>SUBSTRUCTURE
     1 ALC1        7 GROUP        1 X    ALC  0     ROOT ALC X 1
     2 SEC2        1 GROUP        1 X    SEC  0     **** SEC X 2
     3 GLC5        4 GROUP        1 X    GLC  0     **** GLC X 6
     4 ALP1        9 GROUP        1 Y    ALP  0     ROOT ALP Y 8
     5 SEP2        3 GROUP        1 Y    SEP  0     **** SEP Y 9
     6 GLP5        6 GROUP        1 Y    GLP  0     **** GLP Y 13
     7 ALL1        8 GROUP        1 Z    ALL  0     ROOT ALL Z 15
     8 SEL2        2 GROUP        1 Z    SEL  0     **** SEL Z 16
     9 GLL5        5 GROUP        1 Z    GLL  0     **** GLL Z 20
@<TRIPOS>SET

