#    Name: 1szj_NAD_2_ligand
#    Modification time : Tue Mar 25 04:02:09 2014

@<TRIPOS>MOLECULE
1szj_NAD_2_ligand
   70    74     1     0     0
SMALL
NO_CHARGES


@<TRIPOS>ATOM
      1 PA          4.3200   -9.2650   18.1790 P.3       1 NAD335      0.0000 
      2 O1A         3.9230   -7.9230   18.6730 O.co2     1 NAD335      0.0000 
      3 O2A         3.6140   -9.9140   17.0460 O.co2     1 NAD335      0.0000 
      4 O5B         4.3650  -10.3200   19.3930 O.3       1 NAD335      0.0000 
      5 C5B         4.6040   -9.8940   20.7350 C.3       1 NAD335      0.0000 
      6 C4B         3.7340  -10.8220   21.5710 C.3       1 NAD335      0.0000 
      7 O4B         4.1720  -10.8990   22.9350 O.3       1 NAD335      0.0000 
      8 C3B         2.2750  -10.3550   21.5570 C.3       1 NAD335      0.0000 
      9 O3B         1.3550  -11.3850   21.1550 O.3       1 NAD335      0.0000 
     10 C2B         2.0590   -9.8620   22.9790 C.3       1 NAD335      0.0000 
     11 O2B         0.6860   -9.9330   23.3990 O.3       1 NAD335      0.0000 
     12 C1B         2.9630  -10.8320   23.7070 C.3       1 NAD335      0.0000 
     13 N9A         3.1860  -10.4570   25.1170 N.pl3     1 NAD335      0.0000 
     14 C8A         3.3710   -9.2090   25.5810 C.2       1 NAD335      0.0000 
     15 N7A         3.6990   -9.2370   26.8840 N.2       1 NAD335      0.0000 
     16 C5A         3.7000  -10.5280   27.1900 C.ar      1 NAD335      0.0000 
     17 C6A         4.1400  -11.0000   28.4080 C.ar      1 NAD335      0.0000 
     18 N6A         4.4310  -10.1590   29.3970 N.pl3     1 NAD335      0.0000 
     19 N1A         4.2460  -12.3360   28.4870 N.ar      1 NAD335      0.0000 
     20 C2A         3.9360  -13.1120   27.4510 C.ar      1 NAD335      0.0000 
     21 N3A         3.5190  -12.6490   26.2750 N.ar      1 NAD335      0.0000 
     22 C4A         3.3980  -11.3250   26.1170 C.ar      1 NAD335      0.0000 
     23 O3          5.8720   -9.2550   17.7820 O.3       1 NAD335      0.0000 
     24 PN          6.8340  -10.2550   16.9850 P.3       1 NAD335      0.0000 
     25 O1N         6.3630  -11.6670   17.0610 O.co2     1 NAD335      0.0000 
     26 O2N         7.0990   -9.6790   15.6470 O.co2     1 NAD335      0.0000 
     27 O5D         8.1750  -10.0730   17.8410 O.3       1 NAD335      0.0000 
     28 C5D         8.4410  -10.7250   19.0950 C.3       1 NAD335      0.0000 
     29 C4D         9.9560  -10.7670   19.2570 C.3       1 NAD335      0.0000 
     30 O4D        10.5200  -11.4860   18.1360 O.3       1 NAD335      0.0000 
     31 C3D        10.5660   -9.3800   19.1750 C.3       1 NAD335      0.0000 
     32 O3D        11.6930   -9.3010   20.0510 O.3       1 NAD335      0.0000 
     33 C2D        11.0160   -9.2260   17.7220 C.3       1 NAD335      0.0000 
     34 O2D        12.0950   -8.3050   17.5550 O.3       1 NAD335      0.0000 
     35 C1D        11.4450  -10.6440   17.4410 C.3       1 NAD335      0.0000 
     36 N1N        11.5490  -10.9360   15.9920 N.pl3     1 NAD335      0.0000 
     37 C2N        10.5400  -10.5490   15.0980 C.ar      1 NAD335      0.0000 
     38 C3N        10.6830  -10.8200   13.7440 C.ar      1 NAD335      0.0000 
     39 C7N         9.6490  -10.2750   12.7430 C.2       1 NAD335      0.0000 
     40 O7N         9.9150  -10.2200   11.5470 O.2       1 NAD335      0.0000 
     41 N7N         8.5490   -9.7210   13.2700 N.am      1 NAD335      0.0000 
     42 C4N        11.8310  -11.4740   13.2730 C.ar      1 NAD335      0.0000 
     43 C5N        12.8480  -11.8320   14.1470 C.ar      1 NAD335      0.0000 
     44 C6N        12.7010  -11.5750   15.5030 C.ar      1 NAD335      0.0000 
     45 H           4.2824   -8.8843   20.9045 H         1 NAD335      0.0000 
     46 H           5.6267  -10.0320   21.0294 H         1 NAD335      0.0000 
     47 H           3.7534  -11.8125   21.1109 H         1 NAD335      0.0000 
     48 H           2.2355   -9.4848   20.9097 H         1 NAD335      0.0000 
     49 H           2.4942   -8.8950   23.0514 H         1 NAD335      0.0000 
     50 H           2.4616  -11.8127   23.6650 H         1 NAD335      0.0000 
     51 H           3.2795   -8.3934   25.0444 H         1 NAD335      0.0000 
     52 H           4.2904  -10.5052   30.3246 H         1 NAD335      0.0000 
     53 H           4.7640   -9.2566   29.1236 H         1 NAD335      0.0000 
     54 H           4.0279  -14.1759   27.5713 H         1 NAD335      0.0000 
     55 H           8.0698  -11.7426   19.1057 H         1 NAD335      0.0000 
     56 H           8.0251  -10.1748   19.9303 H         1 NAD335      0.0000 
     57 H          10.2184  -11.2180   20.1712 H         1 NAD335      0.0000 
     58 H           9.8212   -8.6630   19.3795 H         1 NAD335      0.0000 
     59 H          10.1591   -9.0208   17.1371 H         1 NAD335      0.0000 
     60 H          12.4446  -10.7599   17.9020 H         1 NAD335      0.0000 
     61 H           9.7057  -10.0700   15.4481 H         1 NAD335      0.0000 
     62 H           7.8947   -9.3365   12.6187 H         1 NAD335      0.0000 
     63 H           8.4806   -9.7415   14.2674 H         1 NAD335      0.0000 
     64 H          11.9139  -11.6877   12.2681 H         1 NAD335      0.0000 
     65 H          13.6986  -12.2814   13.7948 H         1 NAD335      0.0000 
     66 H          13.4413  -11.8532   16.1652 H         1 NAD335      0.0000 
     67 H           1.2943  -11.9992   21.9419 H         1 NAD335      0.0000 
     68 H           0.6005  -10.8187   23.8553 H         1 NAD335      0.0000 
     69 H          11.4805   -8.5524   20.6791 H         1 NAD335      0.0000 
     70 H          12.5538   -8.2803   18.4432 H         1 NAD335      0.0000 
@<TRIPOS>BOND
     1    2    1 ar   
     2    3    1 ar   
     3    4    1 1    
     4   23    1 1    
     5    5    4 1    
     6    6    5 1    
     7   45    5 1    
     8   46    5 1    
     9    7    6 1    
    10    8    6 1    
    11   47    6 1    
    12   12    7 1    
    13    9    8 1    
    14   10    8 1    
    15   48    8 1    
    16   67    9 1    
    17   11   10 1    
    18   12   10 1    
    19   49   10 1    
    20   68   11 1    
    21   13   12 1    
    22   50   12 1    
    23   14   13 1    
    24   22   13 1    
    25   15   14 2    
    26   51   14 1    
    27   16   15 1    
    28   17   16 ar   
    29   22   16 ar   
    30   18   17 1    
    31   19   17 ar   
    32   52   18 1    
    33   53   18 1    
    34   20   19 ar   
    35   21   20 ar   
    36   54   20 1    
    37   22   21 ar   
    38   24   23 1    
    39   25   24 ar   
    40   26   24 ar   
    41   27   24 1    
    42   28   27 1    
    43   29   28 1    
    44   55   28 1    
    45   56   28 1    
    46   30   29 1    
    47   31   29 1    
    48   57   29 1    
    49   35   30 1    
    50   32   31 1    
    51   33   31 1    
    52   58   31 1    
    53   69   32 1    
    54   34   33 1    
    55   35   33 1    
    56   59   33 1    
    57   70   34 1    
    58   36   35 1    
    59   60   35 1    
    60   37   36 ar   
    61   44   36 ar   
    62   38   37 ar   
    63   61   37 1    
    64   39   38 1    
    65   42   38 ar   
    66   40   39 2    
    67   41   39 am   
    68   62   41 1    
    69   63   41 1    
    70   43   42 ar   
    71   64   42 1    
    72   44   43 ar   
    73   65   43 1    
    74   66   44 1    
@<TRIPOS>SUBSTRUCTURE
     1 NAD335      1 GROUP   
@<TRIPOS>SET

