#    Name: 4fqs_LYA_2_INTS_M
#    Modification time : Mon Mar 24 20:33:40 2014

@<TRIPOS>MOLECULE
4fqs_LYA_2_INTS_M
   50     0     9     0     0
SMALL
NO_CHARGES


@<TRIPOS>ATOM
      1 CA        -15.8790   -1.9785    7.2130 C.3       3 GLC5        0.0000 
      2 CA        -14.4440   -0.6210    7.4830 C.3       9 GLL5        0.0000 
      3 CA        -17.3140   -3.3360    6.9430 C.3       6 GLP5        0.0000 
      4 CA        -15.5120    0.6285    8.7905 C.3       3 GLC5        0.0000 
      5 CA        -16.5800    1.8780   10.0980 C.3       6 GLP5        0.0000 
      6 CA        -14.3350   -2.3570    4.8610 C.3       3 GLC5        0.0000 
      7 CA        -12.6110   -1.3340    4.9700 C.3       9 GLL5        0.0000 
      8 CA        -16.0590   -3.3800    4.7520 C.3       6 GLP5        0.0000 
      9 CA        -10.6865   -1.1790    4.4630 C.3       3 GLC5        0.0000 
     10 CA         -8.7620   -1.0240    3.9560 C.3       6 GLP5        0.0000 
     11 CA        -15.5210   -3.1595    7.7410 C.3       3 GLC5        0.0000 
     12 CA        -13.7280   -2.9830    8.5390 C.3       9 GLL5        0.0000 
     13 CA        -13.8625   -4.9595    8.9285 C.3       3 GLC5        0.0000 
     14 CA        -13.9970   -6.9360    9.3180 C.3       6 GLP5        0.0000 
     15 CA        -12.8545   -4.7440    9.9640 C.3       3 GLC5        0.0000 
     16 CA        -12.5500   -2.7780    9.5280 C.3       9 GLL5        0.0000 
     17 CA        -13.1590   -6.7100   10.4000 C.3       6 GLP5        0.0000 
     18 CA         -9.3515   -5.7345    8.8275 C.3       3 GLC5        0.0000 
     19 CA        -11.0710   -4.6740    8.2650 C.3       9 GLL5        0.0000 
     20 CA         -7.6320   -6.7950    9.3900 C.3       6 GLP5        0.0000 
     21 CA        -10.7885   -3.8715   10.2000 C.3       3 GLC5        0.0000 
     22 CA        -10.5060   -3.0690   12.1350 C.3       6 GLP5        0.0000 
     23 CA         -8.3730   -5.0585    8.6280 C.3       3 GLC5        0.0000 
     24 CA         -9.1140   -3.3220    7.8660 C.3       9 GLL5        0.0000 
     25 N          -8.1095    0.8840    7.6495 N.am      2 SEC2        0.0000 
     26 N          -8.5990   -0.3600    7.9720 N.am      8 SEL2        0.0000 
     27 N          -7.6200    2.1280    7.3270 N.am      5 SEP2        0.0000 
     28 O          -6.9800    0.6895    7.0925 O.2       1 ALC1        0.0000 
     29 O          -6.3400   -0.7490    6.8580 O.2       7 ALL1        0.0000 
     30 O          -7.6200    2.1280    7.3270 O.2       4 ALP1        0.0000 
     31 O          -5.7600   -1.6895    5.9005 O.2       1 ALC1        0.0000 
     32 O          -5.1800   -2.6300    4.9430 O.2       4 ALP1        0.0000 
     33 CA        -13.0775    3.6030    3.0605 C.3       3 GLC5        0.0000 
     34 CA        -14.5160    2.6820    2.4620 C.3       9 GLL5        0.0000 
     35 CA        -11.6390    4.5240    3.6590 C.3       6 GLP5        0.0000 
     36 CA        -18.8580    2.3670    2.6505 C.3       3 GLC5        0.0000 
     37 CA        -16.8000    1.6080    2.2340 C.3       9 GLL5        0.0000 
     38 CA        -20.9160    3.1260    3.0670 C.3       6 GLP5        0.0000 
     39 CA        -16.8315   -0.3035    3.2050 C.3       3 GLC5        0.0000 
     40 CA        -16.8630   -2.2150    4.1760 C.3       6 GLP5        0.0000 
     41 CA        -17.3725    1.6035    4.1330 C.3       3 GLC5        0.0000 
     42 CA        -17.9450    1.5990    6.0320 C.3       6 GLP5        0.0000 
     43 CA        -14.6043   -2.7612    5.7670 C.3       3 GLC5        0.0000 
     44 CA        -13.6130   -1.9560    7.4090 C.3       9 GLL5        0.0000 
     45 CA        -15.3935   -1.0008    4.9240 C.3       3 GLC5        0.0000 
     46 CA        -13.4670    0.0180    5.0610 C.3       9 GLL5        0.0000 
     47 CA        -11.1920   -3.0602   10.6893 C.3       3 GLC5        0.0000 
     48 CA         -9.3520   -2.7810    9.9158 C.3       3 GLC5        0.0000 
     49 CA        -10.1240   -2.4160    8.4450 C.3       9 GLL5        0.0000 
     50 CA         -9.0850   -2.6930   11.6760 C.3       6 GLP5        0.0000 
@<TRIPOS>BOND
@<TRIPOS>SUBSTRUCTURE
     1 ALC1       28 GROUP        1 X    ALC  0     ROOT ALC X 1
     2 SEC2       25 GROUP        1 X    SEC  0     **** SEC X 2
     3 GLC5        1 GROUP        1 X    GLC  0     **** GLC X 6
     4 ALP1       30 GROUP        1 Y    ALP  0     ROOT ALP Y 8
     5 SEP2       27 GROUP        1 Y    SEP  0     **** SEP Y 9
     6 GLP5        3 GROUP        1 Y    GLP  0     **** GLP Y 13
     7 ALL1       29 GROUP        1 Z    ALL  0     ROOT ALL Z 15
     8 SEL2       26 GROUP        1 Z    SEL  0     **** SEL Z 16
     9 GLL5        2 GROUP        1 Z    GLL  0     **** GLL Z 20
@<TRIPOS>SET

