#    Name: 4fqs_LYA_2_ligand
#    Modification time : Mon Mar 24 20:33:41 2014

@<TRIPOS>MOLECULE
4fqs_LYA_2_ligand
   50    52     1     0     0
SMALL
NO_CHARGES


@<TRIPOS>ATOM
      1 C1        -13.6130   -1.9560    7.4090 C.ar      1 LYA302      0.0000 
      2 C2        -14.4440   -0.6210    7.4830 C.ar      1 LYA302      0.0000 
      3 C3        -14.3810    0.4090    6.2830 C.ar      1 LYA302      0.0000 
      4 C4        -13.4670    0.0180    5.0610 C.ar      1 LYA302      0.0000 
      5 C5        -12.6110   -1.3340    4.9700 C.ar      1 LYA302      0.0000 
      6 C6        -12.6860   -2.3290    6.1550 C.ar      1 LYA302      0.0000 
      7 C7        -13.7280   -2.9830    8.5390 C.3       1 LYA302      0.0000 
      8 C8        -12.5500   -2.7780    9.5280 C.3       1 LYA302      0.0000 
      9 C9        -11.2060   -3.3250    8.9590 C.2       1 LYA302      0.0000 
     10 C10       -11.0710   -4.6740    8.2650 C.2       1 LYA302      0.0000 
     11 N11        -9.6370   -4.7190    7.9030 N.pl3     1 LYA302      0.0000 
     12 C12        -9.1140   -3.3220    7.8660 C.2       1 LYA302      0.0000 
     13 C13       -10.1240   -2.4160    8.4450 C.2       1 LYA302      0.0000 
     14 C14        -9.8410   -0.8730    8.5090 C.2       1 LYA302      0.0000 
     15 O15       -10.7400   -0.0190    9.1000 O.2       1 LYA302      0.0000 
     16 N16        -8.5990   -0.3600    7.9720 N.2       1 LYA302      0.0000 
     17 C17        -7.5790   -1.2870    7.3700 C.2       1 LYA302      0.0000 
     18 N18        -7.8410   -2.7950    7.3250 N.pl3     1 LYA302      0.0000 
     19 N19        -6.3400   -0.7490    6.8580 N.pl3     1 LYA302      0.0000 
     20 C20       -13.4310    0.9460    3.8570 C.2       1 LYA302      0.0000 
     21 O21       -12.7690    0.6320    2.9320 O.2       1 LYA302      0.0000 
     22 N22       -14.4860    1.9340    3.7280 N.am      1 LYA302      0.0000 
     23 C23       -14.5160    2.6820    2.4620 C.3       1 LYA302      0.0000 
     24 C24       -15.5030    1.9760    1.4970 C.3       1 LYA302      0.0000 
     25 C25       -16.8000    1.6080    2.2340 C.3       1 LYA302      0.0000 
     26 C26       -17.7660    0.9960    1.2040 C.2       1 LYA302      0.0000 
     27 O27       -18.3290    1.7200    0.4400 O.co2     1 LYA302      0.0000 
     28 O28       -17.6680   -0.3740    0.8820 O.co2     1 LYA302      0.0000 
     29 C29       -15.0440    4.0720    2.8190 C.2       1 LYA302      0.0000 
     30 O30       -14.9100    4.9980    2.0800 O.co2     1 LYA302      0.0000 
     31 O31       -15.5090    4.2390    4.1280 O.co2     1 LYA302      0.0000 
     32 H         -14.9893   -0.4286    8.2533 H         1 LYA302      0.0000 
     33 H         -14.8663    1.2134    6.3017 H         1 LYA302      0.0000 
     34 H         -12.0780   -1.4993    4.1981 H         1 LYA302      0.0000 
     35 H         -12.2009   -3.1511    6.1613 H         1 LYA302      0.0000 
     36 H         -13.6731   -3.9796    8.1320 H         1 LYA302      0.0000 
     37 H         -14.6566   -2.8403    9.0674 H         1 LYA302      0.0000 
     38 H         -12.7731   -3.2957   10.4587 H         1 LYA302      0.0000 
     39 H         -12.4376   -1.7150    9.7314 H         1 LYA302      0.0000 
     40 H         -11.7002   -5.2571    8.1280 H         1 LYA302      0.0000 
     41 H          -9.1485   -5.4708    7.7302 H         1 LYA302      0.0000 
     42 H          -7.1580   -3.3871    6.9370 H         1 LYA302      0.0000 
     43 H          -5.6863   -1.4150    6.4987 H         1 LYA302      0.0000 
     44 H          -6.2389    0.2447    6.9054 H         1 LYA302      0.0000 
     45 H         -15.1400    2.0990    4.4326 H         1 LYA302      0.0000 
     46 H         -13.5726    2.7531    2.0298 H         1 LYA302      0.0000 
     47 H         -15.0370    1.0757    1.1151 H         1 LYA302      0.0000 
     48 H         -15.7316    2.6458    0.6768 H         1 LYA302      0.0000 
     49 H         -17.2387    2.4942    2.6518 H         1 LYA302      0.0000 
     50 H         -16.5858    0.8834    2.9966 H         1 LYA302      0.0000 
@<TRIPOS>BOND
     1    2    1 ar   
     2    6    1 ar   
     3    7    1 1    
     4    3    2 ar   
     5   32    2 1    
     6    4    3 ar   
     7   33    3 1    
     8    5    4 ar   
     9   20    4 1    
    10    6    5 ar   
    11   34    5 1    
    12   35    6 1    
    13    8    7 1    
    14   36    7 1    
    15   37    7 1    
    16    9    8 1    
    17   38    8 1    
    18   39    8 1    
    19   10    9 2    
    20   13    9 1    
    21   11   10 1    
    22   40   10 1    
    23   12   11 1    
    24   41   11 1    
    25   13   12 2    
    26   18   12 1    
    27   14   13 1    
    28   15   14 2    
    29   16   14 1    
    30   17   16 2    
    31   18   17 1    
    32   19   17 1    
    33   42   18 1    
    34   43   19 1    
    35   44   19 1    
    36   21   20 2    
    37   22   20 am   
    38   23   22 1    
    39   45   22 1    
    40   24   23 1    
    41   29   23 1    
    42   46   23 1    
    43   25   24 1    
    44   47   24 1    
    45   48   24 1    
    46   26   25 1    
    47   49   25 1    
    48   50   25 1    
    49   27   26 ar   
    50   28   26 ar   
    51   30   29 ar   
    52   31   29 ar   
@<TRIPOS>SUBSTRUCTURE
     1 LYA302      1 GROUP   
@<TRIPOS>SET

