#    Name: 2zwa_SAH_2_INTS_M
#    Modification time : Tue Mar 25 11:13:24 2014

@<TRIPOS>MOLECULE
2zwa_SAH_2_INTS_M
   74     0    12     0     0
SMALL
NO_CHARGES


@<TRIPOS>ATOM
      1 O         -31.6490  -22.3285   14.1205 O.2       1 ALC1        0.0000 
      2 O         -31.3530  -21.7030   15.4860 O.2       9 ALL1        0.0000 
      3 O         -31.9450  -22.9540   12.7550 O.2       5 ALP1        0.0000 
      4 O         -30.1285  -20.8920   15.2890 O.2       1 ALC1        0.0000 
      5 O         -28.9040  -20.0810   15.0920 O.2       5 ALP1        0.0000 
      6 O         -32.3380  -21.0520   16.1735 O.2       1 ALC1        0.0000 
      7 O         -33.3230  -20.4010   16.8610 O.2       5 ALP1        0.0000 
      8 CA        -33.2590  -23.1410   17.3480 C.3       4 GLC5        0.0000 
      9 CA        -31.2780  -22.8060   16.4520 C.3      12 GLL5        0.0000 
     10 CA        -35.2400  -23.4760   18.2440 C.3       8 GLP5        0.0000 
     11 CA        -31.8770  -25.4305   15.1210 C.3       4 GLC5        0.0000 
     12 CA        -30.5380  -24.0040   15.8370 C.3      12 GLL5        0.0000 
     13 CA        -33.2160  -26.8570   14.4050 C.3       8 GLP5        0.0000 
     14 NZ        -30.9230  -21.1340   19.3705 N.4       3 LYC4        0.0000 
     15 NZ        -30.0870  -21.2520   17.8660 N.4      11 LYL4        0.0000 
     16 NZ        -31.7590  -21.0160   20.8750 N.4       7 LYP4        0.0000 
     17 NZ        -28.8260  -21.0675   18.4355 N.4       3 LYC4        0.0000 
     18 NZ        -27.0720  -20.1280   19.9790 N.4       7 LYP4        0.0000 
     19 N         -30.9230  -21.1340   19.3705 N.am      2 SEC2        0.0000 
     20 N         -30.0870  -21.2520   17.8660 N.am     10 SEL2        0.0000 
     21 N         -31.7590  -21.0160   20.8750 N.am      6 SEP2        0.0000 
     22 N         -28.8260  -21.0675   18.4355 N.am      2 SEC2        0.0000 
     23 N         -27.5650  -20.8830   19.0050 N.am      6 SEP2        0.0000 
     24 NZ        -31.2545  -22.0060   19.8505 N.4       3 LYC4        0.0000 
     25 NZ        -30.7500  -22.9960   18.8260 N.4      11 LYL4        0.0000 
     26 N         -29.5620  -23.7890   19.1385 N.am      2 SEC2        0.0000 
     27 N         -30.7500  -22.9960   18.8260 N.am     10 SEL2        0.0000 
     28 N         -28.3740  -24.5820   19.4510 N.am      6 SEP2        0.0000 
     29 N         -31.2545  -22.0060   19.8505 N.am      2 SEC2        0.0000 
     30 CA        -27.8835  -22.7425   12.2020 C.3       4 GLC5        0.0000 
     31 CA        -28.2150  -24.4700   13.1120 C.3      12 GLL5        0.0000 
     32 CA        -27.5520  -21.0150   11.2920 C.3       8 GLP5        0.0000 
     33 CA        -26.2730  -24.1835   12.9135 C.3       4 GLC5        0.0000 
     34 CA        -24.3310  -23.8970   12.7150 C.3       8 GLP5        0.0000 
     35 CA        -30.8760  -23.9860   11.3085 C.3       4 GLC5        0.0000 
     36 CA        -29.3450  -24.9910   12.2230 C.3      12 GLL5        0.0000 
     37 CA        -32.4070  -22.9810   10.3940 C.3       8 GLP5        0.0000 
     38 CA        -29.2085  -22.9870   11.7055 C.3       4 GLC5        0.0000 
     39 CA        -29.0720  -20.9830   11.1880 C.3       8 GLP5        0.0000 
     40 O         -31.6225  -26.8010   11.7790 O.2       1 ALC1        0.0000 
     41 O         -30.4420  -27.1380   12.4410 O.2       9 ALL1        0.0000 
     42 O         -32.8030  -26.4640   11.1170 O.2       5 ALP1        0.0000 
     43 CA        -29.0375  -27.3970    8.4690 C.3       4 GLC5        0.0000 
     44 CA        -29.0770  -26.6620   10.5040 C.3      12 GLL5        0.0000 
     45 CA        -28.9980  -28.1320    6.4340 C.3       8 GLP5        0.0000 
     46 O         -31.0835  -27.7385    9.6545 O.2       1 ALC1        0.0000 
     47 O         -29.7790  -27.7640    9.9430 O.2       9 ALL1        0.0000 
     48 O         -32.3880  -27.7130    9.3660 O.2       5 ALP1        0.0000 
     49 O         -31.2910  -27.1140   10.5300 O.2       1 ALC1        0.0000 
     50 CA        -30.9965  -24.1585   10.1820 C.3       4 GLC5        0.0000 
     51 CA        -29.5860  -25.3360    9.9700 C.3      12 GLL5        0.0000 
     52 N         -27.6205  -25.8630    5.8750 N.am      2 SEC2        0.0000 
     53 N         -27.6140  -24.5460    7.0130 N.am     10 SEL2        0.0000 
     54 N         -27.6270  -27.1800    4.7370 N.am      6 SEP2        0.0000 
     55 CA        -30.1870  -22.9915    4.5345 C.3       4 GLC5        0.0000 
     56 CA        -29.3380  -24.5870    5.1810 C.3      12 GLL5        0.0000 
     57 CA        -31.0360  -21.3960    3.8880 C.3       8 GLP5        0.0000 
     58 O         -28.9900  -24.8280    2.7020 O.2       1 ALC1        0.0000 
     59 O         -28.5240  -24.2930    4.1640 O.2       9 ALL1        0.0000 
     60 O         -29.4560  -25.3630    1.2400 O.2       5 ALP1        0.0000 
     61 N         -31.0565  -24.1055    3.7545 N.am      2 SEC2        0.0000 
     62 N         -30.6840  -24.7890    4.9530 N.am     10 SEL2        0.0000 
     63 N         -31.4290  -23.4220    2.5560 N.am      6 SEP2        0.0000 
     64 CA        -33.1380  -25.6535    7.0805 C.3       4 GLC5        0.0000 
     65 CA        -31.5400  -25.0890    5.9890 C.3      12 GLL5        0.0000 
     66 CA        -34.7360  -26.2180    8.1720 C.3       8 GLP5        0.0000 
     67 CA        -31.8680  -25.3400    3.8825 C.3       4 GLC5        0.0000 
     68 CA        -32.1960  -25.5910    1.7760 C.3       8 GLP5        0.0000 
     69 CA        -31.8980  -23.3280    5.3945 C.3       4 GLC5        0.0000 
     70 CA        -32.2560  -21.5670    4.8000 C.3       8 GLP5        0.0000 
     71 CA        -31.0690  -23.9850    8.9510 C.3       4 GLC5        0.0000 
     72 CA        -29.7310  -24.9890    7.5080 C.3      12 GLL5        0.0000 
     73 CA        -30.8070  -23.1430    6.8885 C.3       4 GLC5        0.0000 
     74 CA        -31.8830  -21.2970    6.2690 C.3       8 GLP5        0.0000 
@<TRIPOS>BOND
@<TRIPOS>SUBSTRUCTURE
     1 ALC1        1 GROUP        1 X    ALC  0     ROOT ALC X 1
     2 SEC2       19 GROUP        1 X    SEC  0     **** SEC X 2
     3 LYC4       14 GROUP        1 X    LYC  0     **** LYC X 4
     4 GLC5        8 GROUP        1 X    GLC  0     **** GLC X 6
     5 ALP1        3 GROUP        1 Y    ALP  0     ROOT ALP Y 8
     6 SEP2       21 GROUP        1 Y    SEP  0     **** SEP Y 9
     7 LYP4       16 GROUP        1 Y    LYP  0     **** LYP Y 11
     8 GLP5       10 GROUP        1 Y    GLP  0     **** GLP Y 13
     9 ALL1        2 GROUP        1 Z    ALL  0     ROOT ALL Z 15
    10 SEL2       20 GROUP        1 Z    SEL  0     **** SEL Z 16
    11 LYL4       15 GROUP        1 Z    LYL  0     **** LYL Z 18
    12 GLL5        9 GROUP        1 Z    GLL  0     **** GLL Z 20
@<TRIPOS>SET

