#    Name: 2zwa_SAH_2_ligand
#    Modification time : Tue Mar 25 11:13:24 2014

@<TRIPOS>MOLECULE
2zwa_SAH_2_ligand
   46    48     1     0     0
SMALL
NO_CHARGES


@<TRIPOS>ATOM
      1 N         -31.3530  -21.7030   15.4860 N.4       1 SAH801      0.0000 
      2 CA        -31.2780  -22.8060   16.4520 C.3       1 SAH801      0.0000 
      3 CB        -30.5380  -24.0040   15.8370 C.3       1 SAH801      0.0000 
      4 CG        -29.0800  -23.7380   15.4630 C.3       1 SAH801      0.0000 
      5 SD        -28.2340  -25.1880   14.7800 S.3       1 SAH801      0.0000 
      6 C         -30.6700  -22.3340   17.7850 C.2       1 SAH801      0.0000 
      7 O         -30.0870  -21.2520   17.8660 O.co2     1 SAH801      0.0000 
      8 OXT       -30.7500  -22.9960   18.8260 O.co2     1 SAH801      0.0000 
      9 C5'       -28.2150  -24.4700   13.1120 C.3       1 SAH801      0.0000 
     10 C4'       -29.3450  -24.9910   12.2230 C.3       1 SAH801      0.0000 
     11 O4'       -29.2370  -24.3820   10.9400 O.3       1 SAH801      0.0000 
     12 C3'       -29.2570  -26.5020   12.0080 C.3       1 SAH801      0.0000 
     13 O3'       -30.4420  -27.1380   12.4410 O.3       1 SAH801      0.0000 
     14 C2'       -29.0770  -26.6620   10.5040 C.3       1 SAH801      0.0000 
     15 O2'       -29.7790  -27.7640    9.9430 O.3       1 SAH801      0.0000 
     16 C1'       -29.5860  -25.3360    9.9700 C.3       1 SAH801      0.0000 
     17 N9        -29.0010  -25.0300    8.6590 N.pl3     1 SAH801      0.0000 
     18 C8        -27.6890  -24.7540    8.3510 C.2       1 SAH801      0.0000 
     19 N7        -27.6140  -24.5460    7.0130 N.2       1 SAH801      0.0000 
     20 C5        -28.8490  -24.6880    6.4790 C.ar      1 SAH801      0.0000 
     21 C6        -29.3380  -24.5870    5.1810 C.ar      1 SAH801      0.0000 
     22 N6        -28.5240  -24.2930    4.1640 N.pl3     1 SAH801      0.0000 
     23 N1        -30.6840  -24.7890    4.9530 N.ar      1 SAH801      0.0000 
     24 C2        -31.5400  -25.0890    5.9890 C.ar      1 SAH801      0.0000 
     25 N3        -31.0510  -25.1880    7.2770 N.ar      1 SAH801      0.0000 
     26 C4        -29.7310  -24.9890    7.5080 C.ar      1 SAH801      0.0000 
     27 H         -32.3107  -23.1455   16.6709 H         1 SAH801      0.0000 
     28 H         -31.0858  -24.3314   14.9341 H         1 SAH801      0.0000 
     29 H         -30.5769  -24.8472   16.5512 H         1 SAH801      0.0000 
     30 H         -28.4610  -23.4869   16.3069 H         1 SAH801      0.0000 
     31 H         -28.9659  -23.0131   14.6757 H         1 SAH801      0.0000 
     32 H         -27.2359  -24.7361   12.7598 H         1 SAH801      0.0000 
     33 H         -28.2811  -23.4175   13.3155 H         1 SAH801      0.0000 
     34 H         -30.2849  -24.7639   12.6804 H         1 SAH801      0.0000 
     35 H         -28.3781  -26.8539   12.4890 H         1 SAH801      0.0000 
     36 H         -28.0143  -26.6890   10.3103 H         1 SAH801      0.0000 
     37 H         -30.6641  -25.4216    9.8880 H         1 SAH801      0.0000 
     38 H         -26.9681  -24.7180    8.9761 H         1 SAH801      0.0000 
     39 H         -28.7834  -24.6626    3.2717 H         1 SAH801      0.0000 
     40 H         -27.7282  -23.7297    4.3861 H         1 SAH801      0.0000 
     41 H         -32.5431  -25.2396    5.8059 H         1 SAH801      0.0000 
     42 H         -31.3805  -22.0360   14.5434 H         1 SAH801      0.0000 
     43 H         -32.1707  -21.1439   15.6233 H         1 SAH801      0.0000 
     44 H         -30.5647  -21.0920   15.5581 H         1 SAH801      0.0000 
     45 H         -31.1634  -26.7665   11.8566 H         1 SAH801      0.0000 
     46 H         -30.7122  -27.4326    9.8042 H         1 SAH801      0.0000 
@<TRIPOS>BOND
     1    2    1 1    
     2   42    1 1    
     3   43    1 1    
     4   44    1 1    
     5    3    2 1    
     6    6    2 1    
     7   27    2 1    
     8    4    3 1    
     9   28    3 1    
    10   29    3 1    
    11    5    4 1    
    12   30    4 1    
    13   31    4 1    
    14    9    5 1    
    15    7    6 ar   
    16    8    6 ar   
    17   10    9 1    
    18   32    9 1    
    19   33    9 1    
    20   11   10 1    
    21   12   10 1    
    22   34   10 1    
    23   16   11 1    
    24   13   12 1    
    25   14   12 1    
    26   35   12 1    
    27   45   13 1    
    28   15   14 1    
    29   16   14 1    
    30   36   14 1    
    31   46   15 1    
    32   17   16 1    
    33   37   16 1    
    34   18   17 1    
    35   26   17 1    
    36   19   18 2    
    37   38   18 1    
    38   20   19 1    
    39   21   20 ar   
    40   26   20 ar   
    41   22   21 1    
    42   23   21 ar   
    43   39   22 1    
    44   40   22 1    
    45   24   23 ar   
    46   25   24 ar   
    47   41   24 1    
    48   26   25 ar   
@<TRIPOS>SUBSTRUCTURE
     1 SAH801      1 GROUP   
@<TRIPOS>SET

