#    Name: 3pgq_GY3_3_INTS_M
#    Modification time : Tue Mar 25 06:33:38 2014

@<TRIPOS>MOLECULE
3pgq_GY3_3_INTS_M
   78     0     6     0     0
SMALL
NO_CHARGES


@<TRIPOS>ATOM
      1 CA         45.3160  -33.4410   67.7475 C.3       2 GLC5        0.0000 
      2 CA         44.4460  -35.0790   67.2350 C.3       6 GLL5        0.0000 
      3 CA         46.1860  -31.8030   68.2600 C.3       4 GLP5        0.0000 
      4 CA         43.2425  -36.3705   64.4320 C.3       2 GLC5        0.0000 
      5 CA         44.2400  -35.0740   65.7170 C.3       6 GLL5        0.0000 
      6 CA         42.2450  -37.6670   63.1470 C.3       4 GLP5        0.0000 
      7 CA         48.9285  -36.7290   66.1485 C.3       2 GLC5        0.0000 
      8 CA         47.1290  -36.2970   66.3010 C.3       6 GLL5        0.0000 
      9 CA         50.7280  -37.1610   65.9960 C.3       4 GLP5        0.0000 
     10 CA         48.8350  -35.0965   67.0830 C.3       2 GLC5        0.0000 
     11 CA         50.5410  -33.8960   67.8650 C.3       4 GLP5        0.0000 
     12 CA         47.3140  -38.2710   65.2865 C.3       2 GLC5        0.0000 
     13 CA         47.4990  -40.2450   64.2720 C.3       4 GLP5        0.0000 
     14 CA         46.3730  -33.9280   67.9825 C.3       2 GLC5        0.0000 
     15 CA         46.5600  -36.0530   67.7050 C.3       6 GLL5        0.0000 
     16 CA         46.2820  -34.9425   69.5970 C.3       2 GLC5        0.0000 
     17 CA         46.0040  -33.8320   71.4890 C.3       4 GLP5        0.0000 
     18 N          44.9325  -32.3510   62.8840 N.am      1 SEC2        0.0000 
     19 N          44.6170  -33.4320   63.5280 N.am      5 SEL2        0.0000 
     20 N          45.2480  -31.2700   62.2400 N.am      3 SEP2        0.0000 
     21 N          49.5810  -35.0570   65.6625 N.am      1 SEC2        0.0000 
     22 N          48.8940  -35.0880   64.3220 N.am      5 SEL2        0.0000 
     23 N          50.2680  -35.0260   67.0030 N.am      3 SEP2        0.0000 
     24 N          49.5950  -35.1735   63.0465 N.am      1 SEC2        0.0000 
     25 N          50.2960  -35.2590   61.7710 N.am      3 SEP2        0.0000 
     26 CA         49.4740  -34.0940   61.8310 C.3       2 GLC5        0.0000 
     27 CA         47.3880  -33.4600   62.3610 C.3       6 GLL5        0.0000 
     28 CA         51.5600  -34.7280   61.3010 C.3       4 GLP5        0.0000 
     29 CA         44.3290  -33.3855   58.4305 C.3       2 GLC5        0.0000 
     30 CA         44.5310  -34.3900   60.1030 C.3       6 GLL5        0.0000 
     31 CA         44.1270  -32.3810   56.7580 C.3       4 GLP5        0.0000 
     32 CA         45.1735  -32.7985   60.5025 C.3       2 GLC5        0.0000 
     33 CA         45.8160  -31.2070   60.9020 C.3       4 GLP5        0.0000 
     34 CA         49.0780  -30.5600   57.2395 C.3       2 GLC5        0.0000 
     35 CA         49.2750  -31.8910   58.8040 C.3       6 GLL5        0.0000 
     36 CA         48.8810  -29.2290   55.6750 C.3       4 GLP5        0.0000 
     37 CA         51.2560  -32.2465   59.5280 C.3       2 GLC5        0.0000 
     38 CA         53.2370  -32.6020   60.2520 C.3       4 GLP5        0.0000 
     39 CA         49.1625  -33.2035   57.7630 C.3       2 GLC5        0.0000 
     40 CA         49.0500  -34.5160   56.7220 C.3       4 GLP5        0.0000 
     41 CA         50.8005  -30.9995   63.5815 C.3       2 GLC5        0.0000 
     42 CA         49.0520  -32.1130   63.8090 C.3       6 GLL5        0.0000 
     43 CA         52.5490  -29.8860   63.3540 C.3       4 GLP5        0.0000 
     44 CA         46.4765  -30.8350   64.4790 C.3       2 GLC5        0.0000 
     45 CA         48.1230  -31.0870   64.4480 C.3       6 GLL5        0.0000 
     46 CA         44.8300  -30.5830   64.5100 C.3       4 GLP5        0.0000 
     47 CA         47.1545  -31.4450   66.3540 C.3       2 GLC5        0.0000 
     48 CA         42.7740  -34.8067   67.5170 C.3       2 GLC5        0.0000 
     49 CA         41.2050  -34.5370   68.5580 C.3       4 GLP5        0.0000 
     50 CA         45.9808  -32.1587   63.7280 C.3       2 GLC5        0.0000 
     51 CA         46.8750  -34.0090   63.5310 C.3       6 GLL5        0.0000 
     52 CA         46.4738  -32.4708   61.9240 C.3       2 GLC5        0.0000 
     53 CA         47.2983  -31.7830   61.3923 C.3       2 GLC5        0.0000 
     54 CA         48.4820  -32.5960   62.4670 C.3       6 GLL5        0.0000 
     55 CA         49.3203  -30.7330   61.9423 C.3       2 GLC5        0.0000 
     56 CA         49.8600  -29.1070   62.0020 C.3       4 GLP5        0.0000 
     57 CA         48.1619  -35.0181   62.2592 C.3       2 GLC5        0.0000 
     58 CA         48.5170  -36.8710   61.8120 C.3       4 GLP5        0.0000 
     59 CA         50.4885  -33.0752   62.7235 C.3       2 GLC5        0.0000 
     60 CA         52.2100  -33.7960   62.3090 C.3       4 GLP5        0.0000 
     61 CA         49.7525  -30.8400   59.5212 C.3       2 GLC5        0.0000 
     62 CA         48.6090  -32.4990   60.0470 C.3       6 GLL5        0.0000 
     63 CA         50.5630  -29.4850   59.6170 C.3       4 GLP5        0.0000 
     64 CA         49.8785  -33.7949   60.8071 C.3       2 GLC5        0.0000 
     65 CA         47.5500  -33.4130   59.9540 C.3       6 GLL5        0.0000 
     66 CA         46.0715  -32.8145   60.9567 C.3       2 GLC5        0.0000 
     67 CA         46.9180  -33.9160   61.1050 C.3       6 GLL5        0.0000 
     68 CA         47.5010  -35.5836   61.2679 C.3       2 GLC5        0.0000 
     69 CA         44.7882  -36.4675   59.6513 C.3       2 GLC5        0.0000 
     70 CA         45.7360  -34.9280   60.9180 C.3       6 GLL5        0.0000 
     71 CA         44.4430  -38.2760   58.7920 C.3       4 GLP5        0.0000 
     72 CA         47.2466  -31.8153   60.1521 C.3       2 GLC5        0.0000 
     73 CA         47.2017  -31.4035   62.5152 C.3       2 GLC5        0.0000 
     74 CA         49.2238  -30.3535   63.0652 C.3       2 GLC5        0.0000 
     75 CA         49.1553  -32.1475   65.7823 C.3       2 GLC5        0.0000 
     76 CA         49.7230  -32.6950   67.4360 C.3       4 GLP5        0.0000 
     77 CA         48.2527  -29.9915   64.9712 C.3       2 GLC5        0.0000 
     78 CA         47.9180  -28.3830   65.8140 C.3       4 GLP5        0.0000 
@<TRIPOS>BOND
@<TRIPOS>SUBSTRUCTURE
     1 SEC2       18 GROUP        1 X    SEC  0     ROOT SEC X 2
     2 GLC5        1 GROUP        1 X    GLC  0     **** GLC X 6
     3 SEP2       20 GROUP        1 Y    SEP  0     ROOT SEP Y 9
     4 GLP5        3 GROUP        1 Y    GLP  0     **** GLP Y 13
     5 SEL2       19 GROUP        1 Z    SEL  0     ROOT SEL Z 16
     6 GLL5        2 GROUP        1 Z    GLL  0     **** GLL Z 20
@<TRIPOS>SET

