#    Name: 3pgq_GY3_3_ligand
#    Modification time : Tue Mar 25 06:33:39 2014

@<TRIPOS>MOLECULE
3pgq_GY3_3_ligand
   42    44     1     0     0
SMALL
NO_CHARGES


@<TRIPOS>ATOM
      1 O1         45.1490  -36.2970   67.6500 O.3       1 GY32240     0.0000 
      2 C2         44.4460  -35.0790   67.2350 C.3       1 GY32240     0.0000 
      3 C3         44.2400  -35.0740   65.7170 C.3       1 GY32240     0.0000 
      4 N4         45.5310  -34.8650   65.0290 N.am      1 GY32240     0.0000 
      5 C5         45.5660  -34.0840   63.9550 C.2       1 GY32240     0.0000 
      6 C6         46.8750  -34.0090   63.5310 C.ar      1 GY32240     0.0000 
      7 C7         47.5500  -34.8650   64.3630 C.2       1 GY32240     0.0000 
      8 N8         46.6770  -35.3070   65.2800 N.am      1 GY32240     0.0000 
      9 C9         47.1290  -36.2970   66.3010 C.3       1 GY32240     0.0000 
     10 C10        46.5600  -36.0530   67.7050 C.3       1 GY32240     0.0000 
     11 O11        44.6170  -33.4320   63.5280 O.2       1 GY32240     0.0000 
     12 O12        48.8940  -35.0880   64.3220 O.2       1 GY32240     0.0000 
     13 C19        47.3880  -33.4600   62.3610 C.ar      1 GY32240     0.0000 
     14 C20        48.4820  -32.5960   62.4670 C.ar      1 GY32240     0.0000 
     15 C21        49.0790  -32.1220   61.2980 C.ar      1 GY32240     0.0000 
     16 C22        48.6090  -32.4990   60.0470 C.ar      1 GY32240     0.0000 
     17 C23        47.5500  -33.4130   59.9540 C.ar      1 GY32240     0.0000 
     18 C24        46.9180  -33.9160   61.1050 C.ar      1 GY32240     0.0000 
     19 C25        45.7360  -34.9280   60.9180 C.2       1 GY32240     0.0000 
     20 C26        44.5310  -34.3900   60.1030 C.2       1 GY32240     0.0000 
     21 C27        49.2750  -31.8910   58.8040 C.3       1 GY32240     0.0000 
     22 C28        49.0520  -32.1130   63.8090 C.3       1 GY32240     0.0000 
     23 C29        48.1230  -31.0870   64.4480 C.3       1 GY32240     0.0000 
     24 H          45.0188  -34.1877   67.5052 H         1 GY32240     0.0000 
     25 H          43.4649  -35.0136   67.7133 H         1 GY32240     0.0000 
     26 H          43.5381  -34.2768   65.4668 H         1 GY32240     0.0000 
     27 H          43.7998  -36.0289   65.4255 H         1 GY32240     0.0000 
     28 H          48.2330  -36.2878   66.3698 H         1 GY32240     0.0000 
     29 H          46.8435  -37.3182   65.9858 H         1 GY32240     0.0000 
     30 H          47.0632  -36.7287   68.3907 H         1 GY32240     0.0000 
     31 H          46.7849  -35.0270   67.9821 H         1 GY32240     0.0000 
     32 H          49.8871  -31.4775   61.3681 H         1 GY32240     0.0000 
     33 H          47.2268  -33.7237   59.0239 H         1 GY32240     0.0000 
     34 H          45.7627  -35.7912   61.2746 H         1 GY32240     0.0000 
     35 H          50.0271  -31.6632   63.6389 H         1 GY32240     0.0000 
     36 H          49.1635  -32.9656   64.4744 H         1 GY32240     0.0000 
     37 H          50.2508  -32.1058   58.7630 H         1 GY32240     0.0000 
     38 H          48.8641  -32.2317   57.9584 H         1 GY32240     0.0000 
     39 H          49.1933  -30.8945   58.7888 H         1 GY32240     0.0000 
     40 H          48.4779  -30.7591   65.3235 H         1 GY32240     0.0000 
     41 H          47.9974  -30.2851   63.8639 H         1 GY32240     0.0000 
     42 H          47.2148  -31.4669   64.6236 H         1 GY32240     0.0000 
@<TRIPOS>BOND
     1    2    1 1    
     2   10    1 1    
     3    3    2 1    
     4   24    2 1    
     5   25    2 1    
     6    4    3 1    
     7   26    3 1    
     8   27    3 1    
     9    5    4 am   
    10    8    4 1    
    11    6    5 1    
    12   11    5 2    
    13    7    6 1    
    14   13    6 1    
    15    8    7 am   
    16   12    7 2    
    17    9    8 1    
    18   10    9 1    
    19   28    9 1    
    20   29    9 1    
    21   30   10 1    
    22   31   10 1    
    23   14   13 ar   
    24   18   13 ar   
    25   15   14 ar   
    26   22   14 1    
    27   16   15 ar   
    28   32   15 1    
    29   17   16 ar   
    30   21   16 1    
    31   18   17 ar   
    32   33   17 1    
    33   19   18 1    
    34   20   19 2    
    35   34   19 1    
    36   37   21 1    
    37   38   21 1    
    38   39   21 1    
    39   23   22 1    
    40   35   22 1    
    41   36   22 1    
    42   40   23 1    
    43   41   23 1    
    44   42   23 1    
@<TRIPOS>SUBSTRUCTURE
     1 GY32240     1 GROUP   
@<TRIPOS>SET

