#    Name: 3op5_REB_3_INTS_M
#    Modification time : Tue Mar 25 04:56:55 2014

@<TRIPOS>MOLECULE
3op5_REB_3_INTS_M
   53     0     9     0     0
SMALL
NO_CHARGES


@<TRIPOS>ATOM
      1 CA        -18.7240   -6.5795   95.9710 C.3       3 GLC5        0.0000 
      2 CA        -19.4370   -4.9190   97.1930 C.3       9 GLL5        0.0000 
      3 CA        -18.0110   -8.2400   94.7490 C.3       6 GLP5        0.0000 
      4 CA        -14.0910   -0.0040   98.1140 C.3       3 GLC5        0.0000 
      5 CA        -15.7410    0.8350   98.2820 C.3       9 GLL5        0.0000 
      6 CA        -12.4410   -0.8430   97.9460 C.3       6 GLP5        0.0000 
      7 CA        -16.6950    2.3610   97.7510 C.3       3 GLC5        0.0000 
      8 CA        -17.6490    3.8870   97.2200 C.3       6 GLP5        0.0000 
      9 O         -17.3015   -0.5315  102.3680 O.2       1 ALC1        0.0000 
     10 O         -17.6350   -0.7850  100.9430 O.2       7 ALL1        0.0000 
     11 O         -16.9680   -0.2780  103.7930 O.2       4 ALP1        0.0000 
     12 CA        -19.2590   -5.2565  100.0690 C.3       3 GLC5        0.0000 
     13 CA        -19.4530   -3.4520   99.4630 C.3       9 GLL5        0.0000 
     14 CA        -19.0650   -7.0610  100.6750 C.3       6 GLP5        0.0000 
     15 N         -19.8715   -1.9580  102.5240 N.am      2 SEC2        0.0000 
     16 N         -19.2090   -2.5110  101.4010 N.am      8 SEL2        0.0000 
     17 N         -20.5340   -1.4050  103.6470 N.am      5 SEP2        0.0000 
     18 CA        -20.8540   -1.9140   97.8880 C.3       3 GLC5        0.0000 
     19 CA        -20.4910   -3.8700   97.1850 C.3       9 GLL5        0.0000 
     20 CA        -21.2170    0.0420   98.5910 C.3       6 GLP5        0.0000 
     21 CA        -18.3555   -6.1120   94.1490 C.3       3 GLC5        0.0000 
     22 CA        -18.7000   -3.9840   93.5490 C.3       9 GLL5        0.0000 
     23 CA        -17.1045   -3.9840   94.7145 C.3       3 GLC5        0.0000 
     24 CA        -15.5090   -3.9840   95.8800 C.3       6 GLP5        0.0000 
     25 CA        -17.3342   -4.3295   99.0380 C.3       3 GLC5        0.0000 
     26 CA        -18.5560   -2.4400   99.3010 C.3       9 GLL5        0.0000 
     27 CA        -15.6640   -5.7130   98.6940 C.3       6 GLP5        0.0000 
     28 CA        -17.9258   -3.8790  100.9990 C.3       3 GLC5        0.0000 
     29 CA        -16.8470   -4.8120  102.6160 C.3       6 GLP5        0.0000 
     30 CA        -20.1107   -1.4520   98.9865 C.3       3 GLC5        0.0000 
     31 CA        -19.3760   -5.8492   99.2498 C.3       3 GLC5        0.0000 
     32 CA        -19.9370   -4.3560   98.4560 C.3       9 GLL5        0.0000 
     33 CA        -17.6755   -5.1753   98.2593 C.3       3 GLC5        0.0000 
     34 CA        -16.4952   -2.7625   94.9820 C.3       3 GLC5        0.0000 
     35 CA        -18.1310   -1.7820   94.2470 C.3       9 GLL5        0.0000 
     36 CA        -16.9183   -2.5490   95.9590 C.3       3 GLC5        0.0000 
     37 CA        -18.7260   -1.5070   95.5790 C.3       9 GLL5        0.0000 
     38 CA        -19.7722   -0.5360   97.3145 C.3       3 GLC5        0.0000 
     39 CA        -15.7573   -1.1353  101.4485 C.3       3 GLC5        0.0000 
     40 CA        -16.6930    0.1830  100.3790 C.3       9 GLL5        0.0000 
     41 CA        -15.1910   -2.9680  102.1910 C.3       6 GLP5        0.0000 
     42 CA        -15.6678    3.4123  101.6223 C.3       3 GLC5        0.0000 
     43 CA        -15.9540    1.2120  101.0330 C.3       9 GLL5        0.0000 
     44 CA        -15.8040    5.2070  102.5990 C.3       6 GLP5        0.0000 
     45 CA        -14.6096    0.5791  101.6011 C.3       3 GLC5        0.0000 
     46 CA        -15.1090    2.0230  100.2580 C.3       9 GLL5        0.0000 
     47 CA        -13.1070    0.2580  102.6900 C.3       6 GLP5        0.0000 
     48 CA        -17.1956    2.3021   99.5556 C.3       3 GLC5        0.0000 
     49 CA        -18.2790    3.7040   98.5990 C.3       6 GLP5        0.0000 
     50 CA        -15.9305   -2.1943   95.6767 C.3       3 GLC5        0.0000 
     51 CA        -16.6160   -0.2610   96.1000 C.3       9 GLL5        0.0000 
     52 CA        -17.9067    1.3980   96.2163 C.3       3 GLC5        0.0000 
     53 CA        -18.5410    3.2870   96.1340 C.3       6 GLP5        0.0000 
@<TRIPOS>BOND
@<TRIPOS>SUBSTRUCTURE
     1 ALC1        9 GROUP        1 X    ALC  0     ROOT ALC X 1
     2 SEC2       15 GROUP        1 X    SEC  0     **** SEC X 2
     3 GLC5        1 GROUP        1 X    GLC  0     **** GLC X 6
     4 ALP1       11 GROUP        1 Y    ALP  0     ROOT ALP Y 8
     5 SEP2       17 GROUP        1 Y    SEP  0     **** SEP Y 9
     6 GLP5        3 GROUP        1 Y    GLP  0     **** GLP Y 13
     7 ALL1       10 GROUP        1 Z    ALL  0     ROOT ALL Z 15
     8 SEL2       16 GROUP        1 Z    SEL  0     **** SEL Z 16
     9 GLL5        2 GROUP        1 Z    GLL  0     **** GLL Z 20
@<TRIPOS>SET

