#    Name: 3op5_REB_3_ligand
#    Modification time : Tue Mar 25 04:56:55 2014

@<TRIPOS>MOLECULE
3op5_REB_3_ligand
   42    45     1     0     0
SMALL
NO_CHARGES


@<TRIPOS>ATOM
      1 C10       -18.5560   -2.4400   99.3010 C.2       1 REB365      0.0000 
      2 N12       -19.8350   -3.4780  100.6940 N.pl3     1 REB365      0.0000 
      3 C15       -19.4370   -4.9190   97.1930 C.3       1 REB365      0.0000 
      4 C20       -16.8320   -1.3000   93.9210 C.ar      1 REB365      0.0000 
      5 C21       -18.1310   -1.7820   94.2470 C.ar      1 REB365      0.0000 
      6 C22       -18.7260   -1.5070   95.5790 C.ar      1 REB365      0.0000 
      7 C24       -18.7840   -2.5840   93.1200 C.3       1 REB365      0.0000 
      8 C02       -15.9540    1.2120  101.0330 C.ar      1 REB365      0.0000 
      9 C03       -15.1090    2.0230  100.2580 C.ar      1 REB365      0.0000 
     10 N04       -15.0180    1.8030   98.8800 N.ar      1 REB365      0.0000 
     11 C05       -15.7410    0.8350   98.2820 C.ar      1 REB365      0.0000 
     12 N06       -16.5670    0.0400   99.0720 N.ar      1 REB365      0.0000 
     13 C07       -16.6930    0.1830  100.3790 C.ar      1 REB365      0.0000 
     14 N08       -17.6350   -0.7850  100.9430 N.pl3     1 REB365      0.0000 
     15 C09       -18.4430   -1.8520  100.5960 C.2       1 REB365      0.0000 
     16 C11       -19.4530   -3.4520   99.4630 C.2       1 REB365      0.0000 
     17 N13       -19.2090   -2.5110  101.4010 N.2       1 REB365      0.0000 
     18 C14       -19.9370   -4.3560   98.4560 C.3       1 REB365      0.0000 
     19 C16       -20.4910   -3.8700   97.1850 C.3       1 REB365      0.0000 
     20 N17       -15.7840    0.4990   96.9470 N.pl3     1 REB365      0.0000 
     21 C18       -16.6160   -0.2610   96.1000 C.ar      1 REB365      0.0000 
     22 C19       -16.0880   -0.5480   94.8470 C.ar      1 REB365      0.0000 
     23 C23       -17.9290   -0.7210   96.4970 C.ar      1 REB365      0.0000 
     24 C25       -18.7000   -3.9840   93.5490 C.1       1 REB365      0.0000 
     25 N26       -18.6000   -5.0010   94.0690 N.1       1 REB365      0.0000 
     26 H         -18.1033   -2.1654   98.5447 H         1 REB365      0.0000 
     27 H         -20.4894   -4.1012  101.0974 H         1 REB365      0.0000 
     28 H         -19.8508   -5.7659   97.0417 H         1 REB365      0.0000 
     29 H         -18.6014   -4.5110   96.9770 H         1 REB365      0.0000 
     30 H         -16.4399   -1.5083   92.9954 H         1 REB365      0.0000 
     31 H         -19.6144   -1.8480   95.8085 H         1 REB365      0.0000 
     32 H         -18.2315   -2.4198   92.2156 H         1 REB365      0.0000 
     33 H         -19.8038   -2.2681   93.0187 H         1 REB365      0.0000 
     34 H         -16.0427    1.3464  102.0288 H         1 REB365      0.0000 
     35 H         -14.5665    2.7666  100.6997 H         1 REB365      0.0000 
     36 H         -17.7226   -0.5596  102.1026 H         1 REB365      0.0000 
     37 H         -20.7265   -5.0874   98.7126 H         1 REB365      0.0000 
     38 H         -21.3348   -4.2890   97.0293 H         1 REB365      0.0000 
     39 H         -20.0854   -3.0341   96.9645 H         1 REB365      0.0000 
     40 H         -14.9084    0.9581   96.3557 H         1 REB365      0.0000 
     41 H         -15.1515   -0.2128   94.5896 H         1 REB365      0.0000 
     42 H         -18.2887   -0.4947   97.4116 H         1 REB365      0.0000 
@<TRIPOS>BOND
     1   15    1 1    
     2   16    1 2    
     3   26    1 1    
     4   16    2 1    
     5   17    2 1    
     6   27    2 1    
     7   18    3 1    
     8   19    3 1    
     9   28    3 1    
    10   29    3 1    
    11    5    4 ar   
    12   22    4 ar   
    13   30    4 1    
    14    6    5 ar   
    15    7    5 1    
    16   23    6 ar   
    17   31    6 1    
    18   24    7 1    
    19   32    7 1    
    20   33    7 1    
    21    9    8 ar   
    22   13    8 ar   
    23   34    8 1    
    24   10    9 ar   
    25   35    9 1    
    26   11   10 ar   
    27   12   11 ar   
    28   20   11 1    
    29   13   12 ar   
    30   14   13 1    
    31   15   14 1    
    32   36   14 1    
    33   17   15 2    
    34   18   16 1    
    35   19   18 1    
    36   37   18 1    
    37   38   19 1    
    38   39   19 1    
    39   21   20 1    
    40   40   20 1    
    41   22   21 ar   
    42   23   21 ar   
    43   41   22 1    
    44   42   23 1    
    45   25   24 3    
@<TRIPOS>SUBSTRUCTURE
     1 REB365      1 GROUP   
@<TRIPOS>SET

