#    Name: 3o0o_TTP_1_INTS_M
#    Modification time : Tue Mar 25 03:07:10 2014

@<TRIPOS>MOLECULE
3o0o_TTP_1_INTS_M
   84     0    15     0     0
SMALL
NO_CHARGES


@<TRIPOS>ATOM
      1 Zn        -84.2700  -35.5600  -19.2580 Zn        4 ZIC7        0.0000 
      2 Zn        -84.6360  -36.6190  -19.4080 Zn       14 ZIL7        0.0000 
      3 Zn        -83.9040  -34.5010  -19.1080 Zn        9 ZIP7        0.0000 
      4 NZ        -83.7115  -38.1155  -22.0040 N.4       3 LYC4        0.0000 
      5 NZ        -84.7500  -38.4000  -21.0430 N.4      13 LYL4        0.0000 
      6 NZ        -82.6730  -37.8310  -22.9650 N.4       8 LYP4        0.0000 
      7 N         -84.7955  -39.4905  -20.0170 N.am      2 SEC2        0.0000 
      8 N         -84.7500  -38.4000  -21.0430 N.am     12 SEL2        0.0000 
      9 N         -84.8410  -40.5810  -18.9910 N.am      7 SEP2        0.0000 
     10 N         -83.7115  -38.1155  -22.0040 N.am      2 SEC2        0.0000 
     11 N         -82.6730  -37.8310  -22.9650 N.am      7 SEP2        0.0000 
     12 NZ        -83.5305  -36.4660  -23.2935 N.4       3 LYC4        0.0000 
     13 NZ        -84.3880  -35.1010  -23.6220 N.4      13 LYL4        0.0000 
     14 NZ        -83.1575  -36.1935  -22.1565 N.4       3 LYC4        0.0000 
     15 NZ        -83.6420  -34.5560  -21.3480 N.4      13 LYL4        0.0000 
     16 Zn        -83.7730  -34.5285  -20.2280 Zn        4 ZIC7        0.0000 
     17 Zn        -83.6420  -34.5560  -21.3480 Zn       14 ZIL7        0.0000 
     18 N         -86.0115  -33.2370  -23.7885 N.am      2 SEC2        0.0000 
     19 N         -85.9120  -33.6410  -22.2320 N.am     12 SEL2        0.0000 
     20 N         -86.1110  -32.8330  -25.3450 N.am      7 SEP2        0.0000 
     21 NZ        -88.3815  -32.6050  -20.3520 N.4       3 LYC4        0.0000 
     22 NZ        -87.4590  -32.0920  -21.1860 N.4      13 LYL4        0.0000 
     23 NZ        -89.0610  -33.6010  -18.3030 N.4       8 LYP4        0.0000 
     24 N         -88.3815  -32.6050  -20.3520 N.am      2 SEC2        0.0000 
     25 N         -87.4590  -32.0920  -21.1860 N.am     12 SEL2        0.0000 
     26 N         -89.3040  -33.1180  -19.5180 N.am      7 SEP2        0.0000 
     27 N         -87.8850  -31.9555  -22.5510 N.am      2 SEC2        0.0000 
     28 N         -88.3110  -31.8190  -23.9160 N.am      7 SEP2        0.0000 
     29 NZ        -86.8995  -33.5115  -18.7480 N.4       3 LYC4        0.0000 
     30 NZ        -85.9610  -33.4950  -19.7070 N.4      13 LYL4        0.0000 
     31 Zn        -84.9325  -33.9980  -19.4075 Zn        4 ZIC7        0.0000 
     32 Zn        -85.9610  -33.4950  -19.7070 Zn       14 ZIL7        0.0000 
     33 N         -87.6325  -33.3065  -19.6125 N.am      2 SEC2        0.0000 
     34 N         -85.9610  -33.4950  -19.7070 N.am     12 SEL2        0.0000 
     35 N         -86.8995  -33.5115  -18.7480 N.am      2 SEC2        0.0000 
     36 N         -87.8380  -33.5280  -17.7890 N.am      7 SEP2        0.0000 
     37 CA        -86.2835  -37.8130  -18.1670 C.3       5 GLC5        0.0000 
     38 CA        -87.6280  -36.7300  -19.1180 C.3      15 GLL5        0.0000 
     39 CA        -84.9390  -38.8960  -17.2160 C.3      10 GLP5        0.0000 
     40 CA        -90.1970  -35.8265  -18.4030 C.3       5 GLC5        0.0000 
     41 CA        -88.9760  -37.3430  -18.7460 C.3      15 GLL5        0.0000 
     42 CA        -91.4180  -34.3100  -18.0600 C.3      10 GLP5        0.0000 
     43 CA        -87.8570  -38.1550  -16.1110 C.3       5 GLC5        0.0000 
     44 CA        -88.8300  -38.6900  -18.0470 C.3      15 GLL5        0.0000 
     45 CA        -86.8840  -37.6200  -14.1750 C.3      10 GLP5        0.0000 
     46 CA        -86.8845  -38.7930  -17.6315 C.3       5 GLC5        0.0000 
     47 CA        -90.1365  -40.4805  -18.2435 C.3       5 GLC5        0.0000 
     48 CA        -91.4430  -42.2710  -18.4400 C.3      10 GLP5        0.0000 
     49 O         -89.6570  -37.9160  -16.1680 O.2       1 ALC1        0.0000 
     50 O         -89.9400  -38.8900  -17.1400 O.2      11 ALL1        0.0000 
     51 O         -89.3740  -36.9420  -15.1960 O.2       6 ALP1        0.0000 
     52 CA        -88.0530  -41.0015  -20.2645 C.3       5 GLC5        0.0000 
     53 CA        -88.9400  -39.6750  -19.2020 C.3      15 GLL5        0.0000 
     54 CA        -87.1660  -42.3280  -21.3270 C.3      10 GLP5        0.0000 
     55 CA        -89.8640  -41.2520  -19.3600 C.3       5 GLC5        0.0000 
     56 CA        -90.7880  -42.8290  -19.5180 C.3      10 GLP5        0.0000 
     57 CA        -90.4375  -37.3425  -21.3715 C.3       5 GLC5        0.0000 
     58 CA        -89.9720  -38.9920  -20.0920 C.3      15 GLL5        0.0000 
     59 CA        -90.9030  -35.6930  -22.6510 C.3      10 GLP5        0.0000 
     60 CA        -91.7715  -38.0850  -20.1425 C.3       5 GLC5        0.0000 
     61 CA        -93.5710  -37.1780  -20.1930 C.3      10 GLP5        0.0000 
     62 CA        -90.7075  -40.6315  -19.2660 C.3       5 GLC5        0.0000 
     63 N         -93.1980  -40.2340  -21.2885 N.am      2 SEC2        0.0000 
     64 N         -91.9140  -40.3300  -21.4940 N.am     12 SEL2        0.0000 
     65 N         -94.4820  -40.1380  -21.0830 N.am      7 SEP2        0.0000 
     66 O         -91.9325  -40.7835  -23.9465 O.2       1 ALC1        0.0000 
     67 O         -90.7880  -40.4810  -23.4230 O.2      11 ALL1        0.0000 
     68 O         -93.0770  -41.0860  -24.4700 O.2       6 ALP1        0.0000 
     69 N         -90.0195  -41.5390  -26.2780 N.am      2 SEC2        0.0000 
     70 N         -89.5990  -40.5950  -25.3170 N.am     12 SEL2        0.0000 
     71 N         -90.4400  -42.4830  -27.2390 N.am      7 SEP2        0.0000 
     72 CA        -87.2825  -38.2605  -26.0625 C.3       5 GLC5        0.0000 
     73 CA        -87.3060  -39.2250  -24.2820 C.3      15 GLL5        0.0000 
     74 CA        -87.2590  -37.2960  -27.8430 C.3      10 GLP5        0.0000 
     75 CA        -85.6330  -39.5720  -25.0815 C.3       5 GLC5        0.0000 
     76 CA        -83.9600  -39.9190  -25.8810 C.3      10 GLP5        0.0000 
     77 CA        -88.5335  -40.7417  -17.6968 C.3       5 GLC5        0.0000 
     78 CA        -88.1820  -42.3010  -16.7690 C.3      10 GLP5        0.0000 
     79 CA        -87.1328  -40.3548  -22.3561 C.3       5 GLC5        0.0000 
     80 CA        -88.5520  -39.5170  -23.4970 C.3      15 GLL5        0.0000 
     81 CA        -85.9610  -41.4620  -21.6830 C.3      10 GLP5        0.0000 
     82 CA        -88.4673  -37.3693  -23.3486 C.3       5 GLC5        0.0000 
     83 CA        -88.6800  -39.1240  -22.1690 C.3      15 GLL5        0.0000 
     84 CA        -88.6300  -35.4910  -23.6680 C.3      10 GLP5        0.0000 
@<TRIPOS>BOND
@<TRIPOS>SUBSTRUCTURE
     1 ALC1       49 GROUP        1 X    ALC  0     ROOT ALC X 1
     2 SEC2        7 GROUP        1 X    SEC  0     **** SEC X 2
     3 LYC4        4 GROUP        1 X    LYC  0     **** LYC X 4
     4 ZIC7        1 GROUP        1 X    ZIC  0     **** ZIC X 5
     5 GLC5       37 GROUP        1 X    GLC  0     **** GLC X 6
     6 ALP1       51 GROUP        1 Y    ALP  0     ROOT ALP Y 8
     7 SEP2        9 GROUP        1 Y    SEP  0     **** SEP Y 9
     8 LYP4        6 GROUP        1 Y    LYP  0     **** LYP Y 11
     9 ZIP7        3 GROUP        1 Y    ZIP  0     **** ZIP Y 12
    10 GLP5       39 GROUP        1 Y    GLP  0     **** GLP Y 13
    11 ALL1       50 GROUP        1 Z    ALL  0     ROOT ALL Z 15
    12 SEL2        8 GROUP        1 Z    SEL  0     **** SEL Z 16
    13 LYL4        5 GROUP        1 Z    LYL  0     **** LYL Z 18
    14 ZIL7        2 GROUP        1 Z    ZIL  0     **** ZIL Z 19
    15 GLL5       38 GROUP        1 Z    GLL  0     **** GLL Z 20
@<TRIPOS>SET

