#    Name: 3o0o_TTP_1_ligand
#    Modification time : Tue Mar 25 03:07:10 2014

@<TRIPOS>MOLECULE
3o0o_TTP_1_ligand
   42    43     1     0     0
SMALL
NO_CHARGES


@<TRIPOS>ATOM
      1 PA        -85.4460  -37.1420  -20.5580 P.3       1 TTP1001     0.0000 
      2 O1A       -84.6360  -36.6190  -19.4080 O.co2     1 TTP1001     0.0000 
      3 O2A       -84.7500  -38.4000  -21.0430 O.co2     1 TTP1001     0.0000 
      4 O3A       -85.7900  -36.0690  -21.7220 O.3       1 TTP1001     0.0000 
      5 PB        -84.8570  -34.8340  -22.2060 P.3       1 TTP1001     0.0000 
      6 O1B       -84.3880  -35.1010  -23.6220 O.co2     1 TTP1001     0.0000 
      7 O2B       -83.6420  -34.5560  -21.3480 O.co2     1 TTP1001     0.0000 
      8 O3B       -85.9120  -33.6410  -22.2320 O.3       1 TTP1001     0.0000 
      9 PG        -86.0740  -32.6620  -20.9560 P.3       1 TTP1001     0.0000 
     10 O1G       -87.4590  -32.0920  -21.1860 O.co2     1 TTP1001     0.0000 
     11 O2G       -85.9610  -33.4950  -19.7070 O.co2     1 TTP1001     0.0000 
     12 O3G       -84.9990  -31.6140  -20.8630 O.co2     1 TTP1001     0.0000 
     13 O5'       -86.9750  -37.4730  -20.1440 O.3       1 TTP1001     0.0000 
     14 C5'       -87.6280  -36.7300  -19.1180 C.3       1 TTP1001     0.0000 
     15 C4'       -88.9760  -37.3430  -18.7460 C.3       1 TTP1001     0.0000 
     16 O4'       -89.7650  -37.5640  -19.9210 O.3       1 TTP1001     0.0000 
     17 C3'       -88.8300  -38.6900  -18.0470 C.3       1 TTP1001     0.0000 
     18 O3'       -89.9400  -38.8900  -17.1400 O.3       1 TTP1001     0.0000 
     19 C2'       -88.9400  -39.6750  -19.2020 C.3       1 TTP1001     0.0000 
     20 C1'       -89.9720  -38.9920  -20.0920 C.3       1 TTP1001     0.0000 
     21 N1        -89.8130  -39.4050  -21.4980 N.am      1 TTP1001     0.0000 
     22 C2        -90.8750  -40.0870  -22.1390 C.2       1 TTP1001     0.0000 
     23 O2        -91.9140  -40.3300  -21.4940 O.2       1 TTP1001     0.0000 
     24 N3        -90.7880  -40.4810  -23.4230 N.am      1 TTP1001     0.0000 
     25 C4        -89.6840  -40.2290  -24.1330 C.2       1 TTP1001     0.0000 
     26 O4        -89.5990  -40.5950  -25.3170 O.2       1 TTP1001     0.0000 
     27 C5        -88.5520  -39.5170  -23.4970 C.2       1 TTP1001     0.0000 
     28 C5M       -87.3060  -39.2250  -24.2820 C.3       1 TTP1001     0.0000 
     29 C6        -88.6800  -39.1240  -22.1690 C.2       1 TTP1001     0.0000 
     30 H         -87.8117  -35.6851  -19.4269 H         1 TTP1001     0.0000 
     31 H         -87.0179  -36.6847  -18.1978 H         1 TTP1001     0.0000 
     32 H         -89.4894  -36.6711  -18.0708 H         1 TTP1001     0.0000 
     33 H         -87.8958  -38.7612  -17.6112 H         1 TTP1001     0.0000 
     34 H         -89.3174  -40.5955  -18.8562 H         1 TTP1001     0.0000 
     35 H         -88.0185  -39.7423  -19.7075 H         1 TTP1001     0.0000 
     36 H         -90.9481  -39.2672  -19.7238 H         1 TTP1001     0.0000 
     37 H         -91.5914  -40.9871  -23.8640 H         1 TTP1001     0.0000 
     38 H         -87.8987  -38.6203  -21.7180 H         1 TTP1001     0.0000 
     39 H         -86.6262  -38.7392  -23.7326 H         1 TTP1001     0.0000 
     40 H         -86.8710  -40.0623  -24.6133 H         1 TTP1001     0.0000 
     41 H         -87.4961  -38.6568  -25.0827 H         1 TTP1001     0.0000 
     42 H         -90.1272  -37.9855  -16.7569 H         1 TTP1001     0.0000 
@<TRIPOS>BOND
     1    2    1 ar   
     2    3    1 ar   
     3    4    1 1    
     4   13    1 1    
     5    5    4 1    
     6    6    5 ar   
     7    7    5 ar   
     8    8    5 1    
     9    9    8 1    
    10   10    9 ar   
    11   11    9 ar   
    12   12    9 ar   
    13   14   13 1    
    14   15   14 1    
    15   30   14 1    
    16   31   14 1    
    17   16   15 1    
    18   17   15 1    
    19   32   15 1    
    20   20   16 1    
    21   18   17 1    
    22   19   17 1    
    23   33   17 1    
    24   42   18 1    
    25   20   19 1    
    26   34   19 1    
    27   35   19 1    
    28   21   20 1    
    29   36   20 1    
    30   22   21 1    
    31   29   21 1    
    32   23   22 2    
    33   24   22 1    
    34   25   24 1    
    35   37   24 1    
    36   26   25 2    
    37   27   25 1    
    38   28   27 1    
    39   29   27 2    
    40   39   28 1    
    41   40   28 1    
    42   41   28 1    
    43   38   29 1    
@<TRIPOS>SUBSTRUCTURE
     1 TTP1001     1 GROUP   
@<TRIPOS>SET

