#    Name: 2fhy_A37_2_INTS_M
#    Modification time : Tue Mar 25 12:39:02 2014

@<TRIPOS>MOLECULE
2fhy_A37_2_INTS_M
   65     0     6     0     0
SMALL
NO_CHARGES


@<TRIPOS>ATOM
      1 CA         -4.9710   11.2645   11.4145 C.3       2 GLC5        0.0000 
      2 CA         -5.7210   10.9210    9.3940 C.3       6 GLL5        0.0000 
      3 CA         -4.2210   11.6080   13.4350 C.3       4 GLP5        0.0000 
      4 CA         -6.9330    9.4780   10.0315 C.3       2 GLC5        0.0000 
      5 CA         -7.1400   11.2490    9.2200 C.3       6 GLL5        0.0000 
      6 CA         -6.7260    7.7070   10.8430 C.3       4 GLP5        0.0000 
      7 N          -6.2315   10.2040   12.3935 N.am      1 SEC2        0.0000 
      8 N          -7.2940   10.9950   11.8430 N.am      5 SEL2        0.0000 
      9 N          -5.1690    9.4130   12.9440 N.am      3 SEP2        0.0000 
     10 N          -5.9805   11.5345   11.9990 N.am      1 SEC2        0.0000 
     11 N          -4.6670   12.0740   12.1550 N.am      3 SEP2        0.0000 
     12 CA         -5.3025   13.4165   13.0185 C.3       2 GLC5        0.0000 
     13 CA         -6.3840   15.2250   12.6020 C.3       6 GLL5        0.0000 
     14 CA         -4.0800   14.0770   13.5205 C.3       2 GLC5        0.0000 
     15 CA         -5.2080   15.7970   13.2010 C.3       6 GLL5        0.0000 
     16 CA         -2.9520   12.3570   13.8400 C.3       4 GLP5        0.0000 
     17 CA         -2.7730   16.9540   13.6300 C.3       2 GLC5        0.0000 
     18 CA         -3.8940   17.8640   14.4680 C.3       6 GLL5        0.0000 
     19 CA         -1.6520   16.0440   12.7920 C.3       4 GLP5        0.0000 
     20 CA         -4.6120   19.2815   13.2095 C.3       2 GLC5        0.0000 
     21 CA         -5.3300   20.6990   11.9510 C.3       4 GLP5        0.0000 
     22 CA         -3.0575   18.0720   16.3230 C.3       2 GLC5        0.0000 
     23 CA         -2.2210   18.2800   18.1780 C.3       4 GLP5        0.0000 
     24 CA         -5.9095   19.3035   12.8200 C.3       2 GLC5        0.0000 
     25 CA         -6.4890   17.9080   13.6890 C.3       6 GLL5        0.0000 
     26 CA         -2.1885   10.9065    9.6935 C.3       2 GLC5        0.0000 
     27 CA         -3.1900   10.4850    8.3870 C.3       6 GLL5        0.0000 
     28 CA         -1.1870   11.3280   11.0000 C.3       4 GLP5        0.0000 
     29 CA         -3.0775   12.1395    7.1440 C.3       2 GLC5        0.0000 
     30 CA         -2.9650   13.7940    5.9010 C.3       4 GLP5        0.0000 
     31 CA         -4.4990    8.9270    8.4690 C.3       2 GLC5        0.0000 
     32 CA         -5.8080    7.3690    8.5510 C.3       4 GLP5        0.0000 
     33 CA         -2.2455    8.9995    9.0850 C.3       2 GLC5        0.0000 
     34 CA         -1.3010    7.5140    9.7830 C.3       4 GLP5        0.0000 
     35 CA         -3.4220    9.3770    7.1340 C.3       2 GLC5        0.0000 
     36 CA         -3.6540    8.2690    5.8810 C.3       4 GLP5        0.0000 
     37 CA         -7.7185   13.1085    8.2605 C.3       2 GLC5        0.0000 
     38 CA         -9.3370   11.8850    7.6220 C.3       6 GLL5        0.0000 
     39 CA         -6.1000   14.3320    8.8990 C.3       4 GLP5        0.0000 
     40 CA         -9.2270   13.1365    6.4425 C.3       2 GLC5        0.0000 
     41 CA         -9.1170   14.3880    5.2630 C.3       4 GLP5        0.0000 
     42 CA        -10.3655   12.9220    8.7085 C.3       2 GLC5        0.0000 
     43 CA        -11.3940   13.9590    9.7950 C.3       4 GLP5        0.0000 
     44 CA         -6.1005   12.8012    7.8752 C.3       2 GLC5        0.0000 
     45 CA         -6.8040   11.4310    6.7690 C.3       6 GLL5        0.0000 
     46 CA         -8.1740   12.9252    6.2975 C.3       2 GLC5        0.0000 
     47 CA         -4.0497   12.3900    6.7435 C.3       2 GLC5        0.0000 
     48 CA         -5.3980   11.1100    6.9340 C.3       6 GLL5        0.0000 
     49 CA         -4.3942    9.6275    6.7335 C.3       2 GLC5        0.0000 
     50 CA         -4.8710   10.8620    8.2380 C.3       6 GLL5        0.0000 
     51 CA         -5.6980   12.6118    8.8575 C.3       2 GLC5        0.0000 
     52 CA         -5.6179    9.1612    8.5205 C.3       2 GLC5        0.0000 
     53 CA         -6.7495   12.8518    8.7282 C.3       2 GLC5        0.0000 
     54 CA         -6.5537   14.9755   10.7372 C.3       2 GLC5        0.0000 
     55 CA         -7.6713   13.9760   13.4192 C.3       2 GLC5        0.0000 
     56 CA         -7.6310   16.0130   12.5490 C.3       6 GLL5        0.0000 
     57 CA         -8.3350   12.3330   14.2630 C.3       4 GLP5        0.0000 
     58 CA         -3.4482   16.2585   13.1315 C.3       2 GLC5        0.0000 
     59 CA         -5.4987   17.6625   11.9310 C.3       2 GLC5        0.0000 
     60 CA         -5.7530   18.8520   10.3910 C.3       4 GLP5        0.0000 
     61 CA         -5.8301   19.3711   14.7864 C.3       2 GLC5        0.0000 
     62 CA         -6.1220   21.0350   15.6760 C.3       4 GLP5        0.0000 
     63 CA         -7.0489   17.2115   11.2604 C.3       2 GLC5        0.0000 
     64 CA         -7.6660   17.3310   13.0840 C.3       6 GLL5        0.0000 
     65 CA         -6.7610   17.9480    9.6910 C.3       4 GLP5        0.0000 
@<TRIPOS>BOND
@<TRIPOS>SUBSTRUCTURE
     1 SEC2        7 GROUP        1 X    SEC  0     ROOT SEC X 2
     2 GLC5        1 GROUP        1 X    GLC  0     **** GLC X 6
     3 SEP2        9 GROUP        1 Y    SEP  0     ROOT SEP Y 9
     4 GLP5        3 GROUP        1 Y    GLP  0     **** GLP Y 13
     5 SEL2        8 GROUP        1 Z    SEL  0     ROOT SEL Z 16
     6 GLL5        2 GROUP        1 Z    GLL  0     **** GLL Z 20
@<TRIPOS>SET

