#    Name: 2fhy_A37_2_ligand
#    Modification time : Tue Mar 25 12:39:02 2014

@<TRIPOS>MOLECULE
2fhy_A37_2_ligand
   29    31     1     0     0
SMALL
NO_CHARGES


@<TRIPOS>ATOM
      1 C          -6.8040   11.4310    6.7690 C.ar      1 A37602      0.0000 
      2 C2         -5.3980   11.1100    6.9340 C.ar      1 A37602      0.0000 
      3 C3         -4.8710   10.8620    8.2380 C.ar      1 A37602      0.0000 
      4 C4         -5.7210   10.9210    9.3940 C.ar      1 A37602      0.0000 
      5 C5         -7.1400   11.2490    9.2200 C.ar      1 A37602      0.0000 
      6 C6         -7.6580   11.4940    7.8950 C.ar      1 A37602      0.0000 
      7 S          -8.2070   11.3270   10.7120 S.o2      1 A37602      0.0000 
      8 O          -7.2940   10.9950   11.8430 O.2       1 A37602      0.0000 
      9 O9         -9.4240   10.4440   10.5150 O.2       1 A37602      0.0000 
     10 N          -8.7840   12.9010   10.8820 N.pl3     1 A37602      0.0000 
     11 C11        -8.0240   14.0010   11.5880 C.2       1 A37602      0.0000 
     12 N12        -6.6920   13.9660   11.9880 N.2       1 A37602      0.0000 
     13 C13        -6.3840   15.2250   12.6020 C.ar      1 A37602      0.0000 
     14 C14        -5.2080   15.7970   13.2010 C.ar      1 A37602      0.0000 
     15 C15        -5.2810   17.1490   13.7410 C.ar      1 A37602      0.0000 
     16 CL1        -3.8940   17.8640   14.4680 Cl        1 A37602      0.0000 
     17 C17        -6.4890   17.9080   13.6890 C.ar      1 A37602      0.0000 
     18 C18        -7.6660   17.3310   13.0840 C.ar      1 A37602      0.0000 
     19 C19        -7.6310   16.0130   12.5490 C.ar      1 A37602      0.0000 
     20 O20        -8.5990   15.2270   11.9230 O.3       1 A37602      0.0000 
     21 CL2        -3.1900   10.4850    8.3870 Cl        1 A37602      0.0000 
     22 CL3        -9.3370   11.8850    7.6220 Cl        1 A37602      0.0000 
     23 H          -7.1606   11.6085    5.8341 H         1 A37602      0.0000 
     24 H          -4.8001   11.0645    6.1191 H         1 A37602      0.0000 
     25 H          -5.3630   10.7429   10.3122 H         1 A37602      0.0000 
     26 H          -9.6761   13.0458   10.4741 H         1 A37602      0.0000 
     27 H          -4.3509   15.2831   13.2504 H         1 A37602      0.0000 
     28 H          -6.5273   18.8421   14.0705 H         1 A37602      0.0000 
     29 H          -8.5230   17.8786   13.0443 H         1 A37602      0.0000 
@<TRIPOS>BOND
     1    2    1 ar   
     2    6    1 ar   
     3   23    1 1    
     4    3    2 ar   
     5   24    2 1    
     6    4    3 ar   
     7   21    3 1    
     8    5    4 ar   
     9   25    4 1    
    10    6    5 ar   
    11    7    5 1    
    12   22    6 1    
    13    8    7 2    
    14    9    7 2    
    15   10    7 1    
    16   11   10 1    
    17   26   10 1    
    18   12   11 2    
    19   20   11 1    
    20   13   12 1    
    21   14   13 ar   
    22   19   13 ar   
    23   15   14 ar   
    24   27   14 1    
    25   16   15 1    
    26   17   15 ar   
    27   18   17 ar   
    28   28   17 1    
    29   19   18 ar   
    30   29   18 1    
    31   20   19 1    
@<TRIPOS>SUBSTRUCTURE
     1 A37602      1 GROUP   
@<TRIPOS>SET

