#    Name: 1ly4_COQ_1_INTS_M
#    Modification time : Tue Mar 25 11:19:00 2014

@<TRIPOS>MOLECULE
1ly4_COQ_1_INTS_M
   56     0     6     0     0
SMALL
NO_CHARGES


@<TRIPOS>ATOM
      1 CA         11.7300    0.6735   12.6295 C.3       2 GLC5        0.0000 
      2 CA         10.7930    2.3140   11.9000 C.3       6 GLL5        0.0000 
      3 CA         12.6670   -0.9670   13.3590 C.3       4 GLP5        0.0000 
      4 CA         10.2250    3.3650   10.4450 C.3       2 GLC5        0.0000 
      5 CA          9.6570    4.4160    8.9900 C.3       4 GLP5        0.0000 
      6 CA         10.2695    2.5030   14.8880 C.3       2 GLC5        0.0000 
      7 CA         11.2190    3.9580   13.6030 C.3       6 GLL5        0.0000 
      8 CA          9.3200    1.0480   16.1730 C.3       4 GLP5        0.0000 
      9 CA         16.7615    5.1775   13.0500 C.3       2 GLC5        0.0000 
     10 CA         14.5800    5.5040   12.8850 C.3       6 GLL5        0.0000 
     11 CA         18.9430    4.8510   13.2150 C.3       4 GLP5        0.0000 
     12 CA         16.4460    3.9255   11.6205 C.3       2 GLC5        0.0000 
     13 CA         14.8410    4.7760   11.6990 C.3       6 GLL5        0.0000 
     14 CA         18.0510    3.0750   11.5420 C.3       4 GLP5        0.0000 
     15 CA         15.3650    3.8115    9.9320 C.3       2 GLC5        0.0000 
     16 CA         15.8890    2.8470    8.1650 C.3       4 GLP5        0.0000 
     17 CA         11.2345    3.9795   10.4155 C.3       2 GLC5        0.0000 
     18 CA         12.8120    3.5430   11.8410 C.3       6 GLL5        0.0000 
     19 CA         15.0500    8.6105   14.7765 C.3       2 GLC5        0.0000 
     20 CA         15.1940    7.7850   12.7160 C.3       6 GLL5        0.0000 
     21 CA         14.9060    9.4360   16.8370 C.3       4 GLP5        0.0000 
     22 CA         17.9205    6.1815   11.9810 C.3       2 GLC5        0.0000 
     23 CA         16.8980    7.5120   10.7470 C.3       6 GLL5        0.0000 
     24 CA         17.9650    9.3090    8.4705 C.3       2 GLC5        0.0000 
     25 CA         16.2380    8.2120    8.4780 C.3       6 GLL5        0.0000 
     26 CA         19.6920   10.4060    8.4630 C.3       4 GLP5        0.0000 
     27 CA         16.6885   10.2440    7.7525 C.3       2 GLC5        0.0000 
     28 CA         17.1390   12.2760    7.0270 C.3       4 GLP5        0.0000 
     29 CA         17.3070    4.4575    8.1800 C.3       2 GLC5        0.0000 
     30 CA         18.7250    6.0680    8.1950 C.3       6 GLL5        0.0000 
     31 CA         19.2085    8.2370    8.3290 C.3       2 GLC5        0.0000 
     32 CA         16.2525   10.4685    6.2915 C.3       2 GLC5        0.0000 
     33 CA         14.8760    9.3610    6.8050 C.3       6 GLL5        0.0000 
     34 CA         17.6290   11.5760    5.7780 C.3       4 GLP5        0.0000 
     35 CA         13.3425   10.4805    7.9025 C.3       2 GLC5        0.0000 
     36 CA         11.8090   11.6000    9.0000 C.3       4 GLP5        0.0000 
     37 CA         17.7395    5.5950   13.7525 C.3       2 GLC5        0.0000 
     38 CA         16.5360    6.3390   14.2900 C.3       6 GLL5        0.0000 
     39 CA         15.7210    7.8875   15.5635 C.3       2 GLC5        0.0000 
     40 CA         15.2920    5.8750   15.9430 C.3       2 GLC5        0.0000 
     41 CA         14.0480    5.4110   17.5960 C.3       4 GLP5        0.0000 
     42 O          10.9870    0.9595   10.4745 O.2       1 ALC1        0.0000 
     43 O           9.8760    1.3830   11.5410 O.2       5 ALL1        0.0000 
     44 O          12.0980    0.5360    9.4080 O.2       3 ALP1        0.0000 
     45 O          10.0945    0.3980   10.4945 O.2       1 ALC1        0.0000 
     46 O          10.3130   -0.5870    9.4480 O.2       3 ALP1        0.0000 
     47 O           9.6635    4.0885   15.5955 O.2       1 ALC1        0.0000 
     48 O          10.6630    4.4600   14.7380 O.2       5 ALL1        0.0000 
     49 O           8.6640    3.7170   16.4530 O.2       3 ALP1        0.0000 
     50 CA         18.4522    8.8940   10.0145 C.3       2 GLC5        0.0000 
     51 CA         19.8730   10.2050    9.9720 C.3       4 GLP5        0.0000 
     52 CA         13.3483   10.0905    9.3310 C.3       2 GLC5        0.0000 
     53 CA         15.0510    8.6790    8.9970 C.3       6 GLL5        0.0000 
     54 CA         15.8503    9.6611   11.8620 C.3       2 GLC5        0.0000 
     55 CA         14.7240    8.4830   10.3270 C.3       6 GLL5        0.0000 
     56 CA         16.2610   11.2450   12.8790 C.3       4 GLP5        0.0000 
@<TRIPOS>BOND
@<TRIPOS>SUBSTRUCTURE
     1 ALC1       42 GROUP        1 X    ALC  0     ROOT ALC X 1
     2 GLC5        1 GROUP        1 X    GLC  0     **** GLC X 6
     3 ALP1       44 GROUP        1 Y    ALP  0     ROOT ALP Y 8
     4 GLP5        3 GROUP        1 Y    GLP  0     **** GLP Y 13
     5 ALL1       43 GROUP        1 Z    ALL  0     ROOT ALL Z 15
     6 GLL5        2 GROUP        1 Z    GLL  0     **** GLL Z 20
@<TRIPOS>SET

