#    Name: 1ly4_COQ_1_ligand
#    Modification time : Tue Mar 25 11:19:00 2014

@<TRIPOS>MOLECULE
1ly4_COQ_1_ligand
   43    45     1     0     0
SMALL
NO_CHARGES


@<TRIPOS>ATOM
      1 C2B        10.7930    2.3140   11.9000 C.ar      1 COQ307      0.0000 
      2 C4B        11.2190    3.9580   13.6030 C.ar      1 COQ307      0.0000 
      3 C4A        12.4520    4.2740   12.9910 C.ar      1 COQ307      0.0000 
      4 C5B        13.3450    5.2540   13.5220 C.ar      1 COQ307      0.0000 
      5 C6B        14.5800    5.5040   12.8850 C.ar      1 COQ307      0.0000 
      6 C7'        14.8410    4.7760   11.6990 C.ar      1 COQ307      0.0000 
      7 C8A        12.8120    3.5430   11.8410 C.ar      1 COQ307      0.0000 
      8 C9'        15.1940    7.7850   12.7160 C.3       1 COQ307      0.0000 
      9 C1'        15.6310    7.8760   11.2420 C.ar      1 COQ307      0.0000 
     10 C2'        16.8980    7.5120   10.7470 C.ar      1 COQ307      0.0000 
     11 C3'        17.1650    7.6540    9.3670 C.ar      1 COQ307      0.0000 
     12 C4'        16.2380    8.2120    8.4780 C.ar      1 COQ307      0.0000 
     13 C5'        15.0510    8.6790    8.9970 C.ar      1 COQ307      0.0000 
     14 C6'        14.7240    8.4830   10.3270 C.ar      1 COQ307      0.0000 
     15 C31        18.7250    6.0680    8.1950 C.3       1 COQ307      0.0000 
     16 C51        14.8760    9.3610    6.8050 C.3       1 COQ307      0.0000 
     17 CN'        16.5360    6.3390   14.2900 C.3       1 COQ307      0.0000 
     18 N1'        12.0010    2.5690   11.3420 N.ar      1 COQ307      0.0000 
     19 N2'         9.8760    1.3830   11.5410 N.pl3     1 COQ307      0.0000 
     20 N3'        10.4740    2.9910   13.0210 N.ar      1 COQ307      0.0000 
     21 N4'        10.6630    4.4600   14.7380 N.pl3     1 COQ307      0.0000 
     22 N8'        13.9930    3.7970   11.1910 N.ar      1 COQ307      0.0000 
     23 N9'        15.4340    6.4870   13.3420 N.pl3     1 COQ307      0.0000 
     24 O3'        18.4090    7.3230    8.7970 O.3       1 COQ307      0.0000 
     25 O5'        14.1360    9.2120    8.0630 O.3       1 COQ307      0.0000 
     26 H          13.0841    5.7692   14.3613 H         1 COQ307      0.0000 
     27 H          15.7281    4.9949   11.1803 H         1 COQ307      0.0000 
     28 H          14.1147    8.0469   12.7608 H         1 COQ307      0.0000 
     29 H          15.7224    8.5902   13.2709 H         1 COQ307      0.0000 
     30 H          17.6125    7.1516   11.3726 H         1 COQ307      0.0000 
     31 H          16.4442    8.2654    7.4870 H         1 COQ307      0.0000 
     32 H          13.7970    8.7803   10.6844 H         1 COQ307      0.0000 
     33 H          19.6636    6.0472    7.8505 H         1 COQ307      0.0000 
     34 H          18.6337    5.3118    8.8430 H         1 COQ307      0.0000 
     35 H          18.1244    5.8654    7.4216 H         1 COQ307      0.0000 
     36 H          15.6603    9.9731    6.9057 H         1 COQ307      0.0000 
     37 H          15.2283    8.4851    6.4753 H         1 COQ307      0.0000 
     38 H          14.3014    9.7380    6.0785 H         1 COQ307      0.0000 
     39 H          17.2272    5.6968   13.9587 H         1 COQ307      0.0000 
     40 H          17.0005    7.2085   14.4583 H         1 COQ307      0.0000 
     41 H          16.2206    5.9989   15.1759 H         1 COQ307      0.0000 
     42 H          10.2994    0.8799   10.7876 H         1 COQ307      0.0000 
     43 H           9.9353    3.8167   14.9760 H         1 COQ307      0.0000 
@<TRIPOS>BOND
     1   18    1 ar   
     2   19    1 1    
     3   20    1 ar   
     4    3    2 ar   
     5   20    2 ar   
     6   21    2 1    
     7    4    3 ar   
     8    7    3 ar   
     9    5    4 ar   
    10   26    4 1    
    11    6    5 ar   
    12   23    5 1    
    13   22    6 ar   
    14   27    6 1    
    15   18    7 ar   
    16   22    7 ar   
    17    9    8 1    
    18   23    8 1    
    19   28    8 1    
    20   29    8 1    
    21   10    9 ar   
    22   14    9 ar   
    23   11   10 ar   
    24   30   10 1    
    25   12   11 ar   
    26   24   11 1    
    27   13   12 ar   
    28   31   12 1    
    29   14   13 ar   
    30   25   13 1    
    31   32   14 1    
    32   24   15 1    
    33   33   15 1    
    34   34   15 1    
    35   35   15 1    
    36   25   16 1    
    37   36   16 1    
    38   37   16 1    
    39   38   16 1    
    40   23   17 1    
    41   39   17 1    
    42   40   17 1    
    43   41   17 1    
    44   42   19 1    
    45   43   21 1    
@<TRIPOS>SUBSTRUCTURE
     1 COQ307      1 GROUP   
@<TRIPOS>SET

