#    Name: 3qdl_FMN_2_INTS_M
#    Modification time : Tue Mar 25 09:40:44 2014

@<TRIPOS>MOLECULE
3qdl_FMN_2_INTS_M
   78     0     9     0     0
SMALL
NO_CHARGES


@<TRIPOS>ATOM
      1 N          21.8035   21.3730   -8.2485 N.am      1 SEC2        0.0000 
      2 N          22.6200   20.4830   -9.0260 N.am      7 SEL2        0.0000 
      3 N          20.9870   22.2630   -7.4710 N.am      4 SEP2        0.0000 
      4 N          25.8600   17.8465  -11.7415 N.am      1 SEC2        0.0000 
      5 N          24.3680   17.0770  -11.4550 N.am      7 SEL2        0.0000 
      6 N          27.3520   18.6160  -12.0280 N.am      4 SEP2        0.0000 
      7 N          25.2385   16.0575  -12.3175 N.am      1 SEC2        0.0000 
      8 N          26.1090   15.0380  -13.1800 N.am      4 SEP2        0.0000 
      9 N          24.2130   14.4925  -10.4710 N.am      1 SEC2        0.0000 
     10 N          22.9940   15.2170  -10.0410 N.am      7 SEL2        0.0000 
     11 N          25.4320   13.7680  -10.9010 N.am      4 SEP2        0.0000 
     12 CA         20.9690    9.3545   -7.6385 C.3       3 GLC5        0.0000 
     13 CA         21.8060   10.5570   -9.1280 C.3       9 GLL5        0.0000 
     14 CA         20.1320    8.1520   -6.1490 C.3       6 GLP5        0.0000 
     15 CA         22.5895    8.4620   -9.0630 C.3       3 GLC5        0.0000 
     16 CA         23.3730    6.3670   -8.9980 C.3       6 GLP5        0.0000 
     17 CA         20.0925    9.8340   -6.5435 C.3       3 GLC5        0.0000 
     18 CA         20.0530   11.5160   -6.9380 C.3       9 GLL5        0.0000 
     19 CA         20.7245   17.7385   -5.2340 C.3       3 GLC5        0.0000 
     20 CA         20.4600   16.6760   -6.8920 C.3       9 GLL5        0.0000 
     21 CA         20.9890   18.8010   -3.5760 C.3       6 GLP5        0.0000 
     22 CA         19.5640   17.7640   -4.7680 C.3       3 GLC5        0.0000 
     23 CA         18.1390   16.7270   -5.9600 C.3       9 GLL5        0.0000 
     24 N          17.4595   13.9985   -5.6035 N.am      1 SEC2        0.0000 
     25 N          18.2960   15.5000   -5.2800 N.am      7 SEL2        0.0000 
     26 N          16.6230   12.4970   -5.9270 N.am      4 SEP2        0.0000 
     27 CA         16.2740   14.7925   -4.1245 C.3       3 GLC5        0.0000 
     28 CA         15.9370   16.9190   -4.7480 C.3       9 GLL5        0.0000 
     29 CA         16.6110   12.6660   -3.5010 C.3       6 GLP5        0.0000 
     30 N          19.1155   18.9410   -1.7245 N.am      1 SEC2        0.0000 
     31 N          17.8540   19.0650   -2.2580 N.am      7 SEL2        0.0000 
     32 N          20.3770   18.8170   -1.1910 N.am      4 SEP2        0.0000 
     33 NZ         18.8410   16.1040   -1.8235 N.4       2 LYC4        0.0000 
     34 NZ         18.3390   16.7090   -2.8220 N.4       8 LYL4        0.0000 
     35 NZ         18.7680   14.7270    0.0770 N.4       5 LYP4        0.0000 
     36 N          18.8410   16.1040   -1.8235 N.am      1 SEC2        0.0000 
     37 N          18.3390   16.7090   -2.8220 N.am      7 SEL2        0.0000 
     38 N          19.3430   15.4990   -0.8250 N.am      4 SEP2        0.0000 
     39 N          19.5000   17.0750   -3.3170 N.am      1 SEC2        0.0000 
     40 N          20.6610   17.4410   -3.8120 N.am      4 SEP2        0.0000 
     41 NZ         17.8710   16.3610   -1.1225 N.4       2 LYC4        0.0000 
     42 NZ         16.3990   17.2230   -1.4200 N.4       8 LYL4        0.0000 
     43 NZ         15.9010   17.4520   -0.1810 N.4       2 LYC4        0.0000 
     44 NZ         15.4030   17.6810    1.0580 N.4       5 LYP4        0.0000 
     45 NZ         15.2910   16.3870   -1.7820 N.4       2 LYC4        0.0000 
     46 NZ         13.0110   15.8460   -2.6990 N.4       5 LYP4        0.0000 
     47 N          16.9280   15.8700   -0.7000 N.am      1 SEC2        0.0000 
     48 N          16.3990   17.2230   -1.4200 N.am      7 SEL2        0.0000 
     49 N          17.4570   14.5170    0.0200 N.am      4 SEP2        0.0000 
     50 N          17.8710   16.3610   -1.1225 N.am      1 SEC2        0.0000 
     51 N          15.9010   17.4520   -0.1810 N.am      1 SEC2        0.0000 
     52 N          15.4030   17.6810    1.0580 N.am      4 SEP2        0.0000 
     53 N          15.2910   16.3870   -1.7820 N.am      1 SEC2        0.0000 
     54 N          14.1830   15.5510   -2.1440 N.am      4 SEP2        0.0000 
     55 CA         24.3208   14.0750   -9.0978 C.3       3 GLC5        0.0000 
     56 CA         22.2740   14.3120   -9.2870 C.3       9 GLL5        0.0000 
     57 CA         26.3100   14.5190   -8.7690 C.3       6 GLP5        0.0000 
     58 CA         23.8547   13.3040  -10.7767 C.3       3 GLC5        0.0000 
     59 CA         25.3780   12.9770  -12.1270 C.3       6 GLP5        0.0000 
     60 CA         20.4515   11.8767  -10.3301 C.3       3 GLC5        0.0000 
     61 CA         22.3890   12.9500   -9.5660 C.3       9 GLL5        0.0000 
     62 CA         18.9850   12.2320  -11.5010 C.3       6 GLP5        0.0000 
     63 CA         22.9430   11.5207   -7.6516 C.3       3 GLC5        0.0000 
     64 CA         21.6710   12.0220   -8.8150 C.3       9 GLL5        0.0000 
     65 CA         23.9680   11.5200   -6.1440 C.3       6 GLP5        0.0000 
     66 CA         19.4108   12.5643   -8.8930 C.3       3 GLC5        0.0000 
     67 CA         18.3740   13.1350  -10.4260 C.3       6 GLP5        0.0000 
     68 CA         22.2078   11.7568   -6.7520 C.3       3 GLC5        0.0000 
     69 CA         20.8420   12.4710   -7.7820 C.3       9 GLL5        0.0000 
     70 CA         18.6449   12.3844   -7.3390 C.3       3 GLC5        0.0000 
     71 CA         16.6990   11.8570   -7.2440 C.3       6 GLP5        0.0000 
     72 CA         19.8353   13.6597   -9.2826 C.3       3 GLC5        0.0000 
     73 CA         20.7340   13.8300   -7.5080 C.3       9 GLL5        0.0000 
     74 CA         22.3985   13.5120   -6.5605 C.3       3 GLC5        0.0000 
     75 CA         23.7080   12.7260   -5.2400 C.3       6 GLP5        0.0000 
     76 CA         14.9292   16.9590   -6.9525 C.3       3 GLC5        0.0000 
     77 CA         16.6340   17.0090   -6.1040 C.3       9 GLL5        0.0000 
     78 CA         13.5730   16.9540   -8.4790 C.3       6 GLP5        0.0000 
@<TRIPOS>BOND
@<TRIPOS>SUBSTRUCTURE
     1 SEC2        1 GROUP        1 X    SEC  0     ROOT SEC X 2
     2 LYC4       33 GROUP        1 X    LYC  0     **** LYC X 4
     3 GLC5       12 GROUP        1 X    GLC  0     **** GLC X 6
     4 SEP2        3 GROUP        1 Y    SEP  0     ROOT SEP Y 9
     5 LYP4       35 GROUP        1 Y    LYP  0     **** LYP Y 11
     6 GLP5       14 GROUP        1 Y    GLP  0     **** GLP Y 13
     7 SEL2        2 GROUP        1 Z    SEL  0     ROOT SEL Z 16
     8 LYL4       34 GROUP        1 Z    LYL  0     **** LYL Z 18
     9 GLL5       13 GROUP        1 Z    GLL  0     **** GLL Z 20
@<TRIPOS>SET

