#    Name: 3qdl_FMN_2_ligand
#    Modification time : Tue Mar 25 09:40:44 2014

@<TRIPOS>MOLECULE
3qdl_FMN_2_ligand
   50    52     1     0     0
SMALL
NO_CHARGES


@<TRIPOS>ATOM
      1 N1         21.9900   18.3830   -8.5010 N.2       1 FMN300      0.0000 
      2 C2         22.7120   19.2800   -9.2620 C.2       1 FMN300      0.0000 
      3 O2         22.6200   20.4830   -9.0260 O.2       1 FMN300      0.0000 
      4 N3         23.5340   18.8300  -10.2790 N.am      1 FMN300      0.0000 
      5 C4         23.6340   17.4760  -10.5460 C.2       1 FMN300      0.0000 
      6 O4         24.3680   17.0770  -11.4550 O.2       1 FMN300      0.0000 
      7 C4A        22.9040   16.5690   -9.7810 C.2       1 FMN300      0.0000 
      8 N5         22.9940   15.2170  -10.0410 N.2       1 FMN300      0.0000 
      9 C5A        22.2740   14.3120   -9.2870 C.ar      1 FMN300      0.0000 
     10 C6         22.3890   12.9500   -9.5660 C.ar      1 FMN300      0.0000 
     11 C7         21.6710   12.0220   -8.8150 C.ar      1 FMN300      0.0000 
     12 C7M        21.8060   10.5570   -9.1280 C.3       1 FMN300      0.0000 
     13 C8         20.8420   12.4710   -7.7820 C.ar      1 FMN300      0.0000 
     14 C8M        20.0530   11.5160   -6.9380 C.3       1 FMN300      0.0000 
     15 C9         20.7340   13.8300   -7.5080 C.ar      1 FMN300      0.0000 
     16 C9A        21.4440   14.7660   -8.2540 C.ar      1 FMN300      0.0000 
     17 N10        21.3380   16.1320   -7.9920 N.pl3     1 FMN300      0.0000 
     18 C10        22.0750   17.0270   -8.7530 C.2       1 FMN300      0.0000 
     19 C1'        20.4600   16.6760   -6.8920 C.3       1 FMN300      0.0000 
     20 C2'        18.9640   16.6380   -7.2450 C.3       1 FMN300      0.0000 
     21 O2'        18.6370   17.6740   -8.1450 O.3       1 FMN300      0.0000 
     22 C3'        18.1390   16.7270   -5.9600 C.3       1 FMN300      0.0000 
     23 O3'        18.2960   15.5000   -5.2800 O.3       1 FMN300      0.0000 
     24 C4'        16.6340   17.0090   -6.1040 C.3       1 FMN300      0.0000 
     25 O4'        16.3760   18.2880   -6.6530 O.3       1 FMN300      0.0000 
     26 C5'        15.9370   16.9190   -4.7480 C.3       1 FMN300      0.0000 
     27 O5'        16.3380   17.9680   -3.8900 O.3       1 FMN300      0.0000 
     28 P          17.2430   17.7220   -2.5690 P.3       1 FMN300      0.0000 
     29 O1P        17.8540   19.0650   -2.2580 O.co2     1 FMN300      0.0000 
     30 O2P        18.3390   16.7090   -2.8220 O.co2     1 FMN300      0.0000 
     31 O3P        16.3990   17.2230   -1.4200 O.co2     1 FMN300      0.0000 
     32 H          24.0749   19.5061  -10.8410 H         1 FMN300      0.0000 
     33 H          23.0033   12.6322  -10.3254 H         1 FMN300      0.0000 
     34 H          20.1190   14.1494   -6.7410 H         1 FMN300      0.0000 
     35 H          20.7409   17.7162   -6.6756 H         1 FMN300      0.0000 
     36 H          20.6163   16.0942   -5.9729 H         1 FMN300      0.0000 
     37 H          18.7702   15.6543   -7.6847 H         1 FMN300      0.0000 
     38 H          18.5711   17.5304   -5.3425 H         1 FMN300      0.0000 
     39 H          16.2091   16.2232   -6.7326 H         1 FMN300      0.0000 
     40 H          16.1707   15.9260   -4.3226 H         1 FMN300      0.0000 
     41 H          14.8479   16.9332   -4.9357 H         1 FMN300      0.0000 
     42 H          22.7493   10.2409   -9.0263 H         1 FMN300      0.0000 
     43 H          21.2416    9.9946   -8.5237 H         1 FMN300      0.0000 
     44 H          21.5271   10.3504  -10.0658 H         1 FMN300      0.0000 
     45 H          20.6450   10.8706   -6.4553 H         1 FMN300      0.0000 
     46 H          19.5121   11.9925   -6.2449 H         1 FMN300      0.0000 
     47 H          19.4154   10.9751   -7.4865 H         1 FMN300      0.0000 
     48 H          17.7950   18.0745   -7.7836 H         1 FMN300      0.0000 
     49 H          18.3647   15.7469   -4.3134 H         1 FMN300      0.0000 
     50 H          16.7842   18.9337   -6.0076 H         1 FMN300      0.0000 
@<TRIPOS>BOND
     1    2    1 1    
     2   18    1 2    
     3    3    2 2    
     4    4    2 am   
     5    5    4 am   
     6   32    4 1    
     7    6    5 2    
     8    7    5 1    
     9    8    7 2    
    10   18    7 1    
    11    9    8 1    
    12   10    9 ar   
    13   16    9 ar   
    14   11   10 ar   
    15   33   10 1    
    16   12   11 1    
    17   13   11 ar   
    18   42   12 1    
    19   43   12 1    
    20   44   12 1    
    21   14   13 1    
    22   15   13 ar   
    23   45   14 1    
    24   46   14 1    
    25   47   14 1    
    26   16   15 ar   
    27   34   15 1    
    28   17   16 1    
    29   18   17 1    
    30   19   17 1    
    31   20   19 1    
    32   35   19 1    
    33   36   19 1    
    34   21   20 1    
    35   22   20 1    
    36   37   20 1    
    37   48   21 1    
    38   23   22 1    
    39   24   22 1    
    40   38   22 1    
    41   49   23 1    
    42   25   24 1    
    43   26   24 1    
    44   39   24 1    
    45   50   25 1    
    46   27   26 1    
    47   40   26 1    
    48   41   26 1    
    49   28   27 1    
    50   29   28 ar   
    51   30   28 ar   
    52   31   28 ar   
@<TRIPOS>SUBSTRUCTURE
     1 FMN300      1 GROUP   
@<TRIPOS>SET

