#    Name: 1los_UP6_1_INTS_M
#    Modification time : Mon Apr  7 14:14:37 2014

@<TRIPOS>MOLECULE
1los_UP6_1_INTS_M
   44     0     9     0     0
SMALL
NO_CHARGES


@<TRIPOS>ATOM
      1 O          25.5530   44.6940   24.5480 O.2       1 ALC1        0.0000 
      2 O          26.8010   44.6130   25.1510 O.2       7 ALL1        0.0000 
      3 O          24.3050   44.7750   23.9450 O.2       4 ALP1        0.0000 
      4 N          30.5270   43.8955   26.5740 N.am      2 SEC2        0.0000 
      5 N          29.1210   44.5470   26.5320 N.am      8 SEL2        0.0000 
      6 N          31.9330   43.2440   26.6160 N.am      5 SEP2        0.0000 
      7 N          24.8425   42.5440   25.7635 N.am      2 SEC2        0.0000 
      8 N          26.0420   42.8110   26.2990 N.am      8 SEL2        0.0000 
      9 N          23.6430   42.2770   25.2280 N.am      5 SEP2        0.0000 
     10 CA         31.0415   47.5980   26.8120 C.3       3 GLC5        0.0000 
     11 CA         30.0180   46.4930   25.3460 C.3       9 GLL5        0.0000 
     12 CA         32.0650   48.7030   28.2780 C.3       6 GLP5        0.0000 
     13 CA         28.2105   47.2610   26.3520 C.3       3 GLC5        0.0000 
     14 CA         26.4030   48.0290   27.3580 C.3       6 GLP5        0.0000 
     15 CA         29.5680   46.1680   22.3840 C.3       3 GLC5        0.0000 
     16 CA         30.6340   46.6540   23.9600 C.3       9 GLL5        0.0000 
     17 CA         28.5020   45.6820   20.8080 C.3       6 GLP5        0.0000 
     18 N          32.1185   45.7515   22.3905 N.am      2 SEC2        0.0000 
     19 N          31.6320   45.6680   23.6470 N.am      8 SEL2        0.0000 
     20 N          32.6050   45.8350   21.1340 N.am      5 SEP2        0.0000 
     21 O          31.5330   44.3975   23.4955 O.2       1 ALC1        0.0000 
     22 O          31.6320   45.6680   23.6470 O.2       7 ALL1        0.0000 
     23 O          31.4340   43.1270   23.3440 O.2       4 ALP1        0.0000 
     24 N          32.7080   48.0930   25.8615 N.am      2 SEC2        0.0000 
     25 N          32.4980   48.1710   24.4760 N.am      8 SEL2        0.0000 
     26 N          32.9180   48.0150   27.2470 N.am      5 SEP2        0.0000 
     27 O          33.0220   49.0605   23.7530 O.2       1 ALC1        0.0000 
     28 O          32.4980   48.1710   24.4760 O.2       7 ALL1        0.0000 
     29 O          33.5460   49.9500   23.0300 O.2       4 ALP1        0.0000 
     30 CA         30.3550   50.5935   25.0850 C.3       3 GLC5        0.0000 
     31 CA         28.8720   49.3630   24.1540 C.3       9 GLL5        0.0000 
     32 CA         31.8380   51.8240   26.0160 C.3       6 GLP5        0.0000 
     33 CA         27.6375   48.6960   25.7560 C.3       3 GLC5        0.0000 
     34 N          29.5980   53.1425   21.2060 N.am      2 SEC2        0.0000 
     35 N          29.2160   51.8420   21.1710 N.am      8 SEL2        0.0000 
     36 N          29.9800   54.4430   21.2410 N.am      5 SEP2        0.0000 
     37 N          28.2225   53.0645   23.6665 N.am      2 SEC2        0.0000 
     38 N          27.4900   52.0630   22.9590 N.am      8 SEL2        0.0000 
     39 N          28.9550   54.0660   24.3740 N.am      5 SEP2        0.0000 
     40 CA         31.2347   50.1285   25.2127 C.3       3 GLC5        0.0000 
     41 CA         30.1100   48.7720   24.8460 C.3       9 GLL5        0.0000 
     42 CA         31.3483   48.5680   26.3438 C.3       3 GLC5        0.0000 
     43 CA         29.2945   49.9887   26.3740 C.3       3 GLC5        0.0000 
     44 CA         29.0980   50.9100   28.2480 C.3       6 GLP5        0.0000 
@<TRIPOS>BOND
@<TRIPOS>SUBSTRUCTURE
     1 ALC1        1 GROUP        1 X    ALC  0     ROOT ALC X 1
     2 SEC2        4 GROUP        1 X    SEC  0     **** SEC X 2
     3 GLC5       10 GROUP        1 X    GLC  0     **** GLC X 6
     4 ALP1        3 GROUP        1 Y    ALP  0     ROOT ALP Y 8
     5 SEP2        6 GROUP        1 Y    SEP  0     **** SEP Y 9
     6 GLP5       12 GROUP        1 Y    GLP  0     **** GLP Y 13
     7 ALL1        2 GROUP        1 Z    ALL  0     ROOT ALL Z 15
     8 SEL2        5 GROUP        1 Z    SEL  0     **** SEL Z 16
     9 GLL5       11 GROUP        1 Z    GLL  0     **** GLL Z 20
@<TRIPOS>SET

