#    Name: 1los_UP6_1_ligand
#    Modification time : Mon Apr  7 14:14:37 2014

@<TRIPOS>MOLECULE
1los_UP6_1_ligand
   31    32     1     0     0
SMALL
NO_CHARGES


@<TRIPOS>ATOM
      1 N1         28.9370   45.5270   25.5640 N.am      1 UP65001     0.0000 
      2 C2         27.7270   45.5850   24.8240 C.2       1 UP65001     0.0000 
      3 N3         26.8010   44.6130   25.1510 N.am      1 UP65001     0.0000 
      4 C4         26.9500   43.5940   26.1300 C.2       1 UP65001     0.0000 
      5 C5         28.2100   43.6220   26.8270 C.2       1 UP65001     0.0000 
      6 N6         29.1210   44.5470   26.5320 N.2       1 UP65001     0.0000 
      7 O2         27.5470   46.4360   23.9770 O.2       1 UP65001     0.0000 
      8 O4         26.0420   42.8110   26.2990 O.2       1 UP65001     0.0000 
      9 C1'        30.0180   46.4930   25.3460 C.3       1 UP65001     0.0000 
     10 C2'        30.6340   46.6540   23.9600 C.3       1 UP65001     0.0000 
     11 C3'        31.1530   48.0940   23.9730 C.3       1 UP65001     0.0000 
     12 C4'        30.1100   48.7720   24.8460 C.3       1 UP65001     0.0000 
     13 O2'        31.6320   45.6680   23.6470 O.3       1 UP65001     0.0000 
     14 O3'        32.4980   48.1710   24.4760 O.3       1 UP65001     0.0000 
     15 O4'        29.6700   47.7800   25.7900 O.3       1 UP65001     0.0000 
     16 C5'        28.8720   49.3630   24.1540 C.3       1 UP65001     0.0000 
     17 O5'        29.3230   50.3020   23.1460 O.3       1 UP65001     0.0000 
     18 P          28.3670   50.9930   22.0520 P.3       1 UP65001     0.0000 
     19 O1P        27.6020   50.0680   21.1340 O.co2     1 UP65001     0.0000 
     20 O2P        29.2160   51.8420   21.1710 O.co2     1 UP65001     0.0000 
     21 O3P        27.4900   52.0630   22.9590 O.co2     1 UP65001     0.0000 
     22 H          25.8692   44.6154   24.6195 H         1 UP65001     0.0000 
     23 H          28.3614   42.9004   27.5509 H         1 UP65001     0.0000 
     24 H          30.9004   46.1680   26.0105 H         1 UP65001     0.0000 
     25 H          29.8001   46.6369   23.2506 H         1 UP65001     0.0000 
     26 H          31.0423   48.4715   22.9767 H         1 UP65001     0.0000 
     27 H          30.6050   49.5765   25.4053 H         1 UP65001     0.0000 
     28 H          28.2645   49.8508   24.9106 H         1 UP65001     0.0000 
     29 H          28.3097   48.5446   23.7140 H         1 UP65001     0.0000 
     30 H          31.1320   44.8041   23.5864 H         1 UP65001     0.0000 
     31 H          32.7802   49.1170   24.3162 H         1 UP65001     0.0000 
@<TRIPOS>BOND
     1    2    1 am   
     2    6    1 1    
     3    9    1 1    
     4    3    2 am   
     5    7    2 2    
     6    4    3 am   
     7   22    3 1    
     8    5    4 1    
     9    8    4 2    
    10    6    5 2    
    11   23    5 1    
    12   10    9 1    
    13   15    9 1    
    14   24    9 1    
    15   11   10 1    
    16   13   10 1    
    17   25   10 1    
    18   12   11 1    
    19   14   11 1    
    20   26   11 1    
    21   15   12 1    
    22   16   12 1    
    23   27   12 1    
    24   30   13 1    
    25   31   14 1    
    26   17   16 1    
    27   28   16 1    
    28   29   16 1    
    29   18   17 1    
    30   19   18 ar   
    31   20   18 ar   
    32   21   18 ar   
@<TRIPOS>SUBSTRUCTURE
     1 UP65001     1 GROUP   
@<TRIPOS>SET

