#    Name: 4J0T_1_CAVITY_N1_ALL.mol2
#    Modification time : Tue Mar 11 06:57:20 2014

@<TRIPOS>MOLECULE
4J0T_1_CAVITY_N1_ALL.mol2
  180     0     7     0     0
SMALL
NO_CHARGES


@<TRIPOS>ATOM
      1 N         -21.6041  -40.2051  -11.8383 N.2       2 ALA2        0.0000 
      2 N         -22.8019  -40.2651  -10.9374 N.2       2 ALA2        0.0000 
      3 N         -24.0359  -41.8173  -10.1839 N.2       2 ALA2        0.0000 
      4 CA        -25.2337  -41.8773   -9.2830 C.3       6 GLY6        0.0000 
      5 CZ        -19.4680  -38.7922  -11.4015 C.ar      5 PHE5        0.0000 
      6 CZ        -20.6658  -38.8522  -10.5006 C.ar      5 PHE5        0.0000 
      7 N         -21.8636  -38.9122   -9.5997 N.2       2 ALA2        0.0000 
      8 CZ        -19.5041  -40.2845  -11.5489 C.ar      5 PHE5        0.0000 
      9 DU        -20.7019  -40.3445  -10.6480 H         7 CUB7        0.0000 
     10 N         -21.8998  -40.4045   -9.7471 N.2       2 ALA2        0.0000 
     11 N         -23.0976  -40.4645   -8.8463 N.2       2 ALA2        0.0000 
     12 CA        -18.3424  -41.7169  -12.5972 C.3       6 GLY6        0.0000 
     13 N         -19.5402  -41.7768  -11.6963 N.2       2 ALA2        0.0000 
     14 O         -20.7381  -41.8368  -10.7954 O.2       2 ALA2        0.0000 
     15 O         -21.9359  -41.8968   -9.8946 O.2       2 ALA2        0.0000 
     16 DU        -23.1337  -41.9568   -8.9937 H         7 CUB7        0.0000 
     17 CA        -24.3316  -42.0167   -8.0928 C.3       6 GLY6        0.0000 
     18 N         -20.7742  -43.3291  -10.9429 N.2       2 ALA2        0.0000 
     19 CZ        -18.5297  -37.4394  -10.0638 C.ar      5 PHE5        0.0000 
     20 CZ        -19.7275  -37.4993   -9.1630 C.ar      5 PHE5        0.0000 
     21 CZ        -20.9253  -37.5593   -8.2621 C.ar      5 PHE5        0.0000 
     22 CZ        -17.3680  -38.8717  -11.1121 C.ar      5 PHE5        0.0000 
     23 CZ        -18.5658  -38.9317  -10.2113 C.ar      5 PHE5        0.0000 
     24 DU        -19.7636  -38.9916   -9.3104 H         7 CUB7        0.0000 
     25 DU        -20.9615  -39.0516   -8.4095 H         7 CUB7        0.0000 
     26 CZ        -22.1593  -39.1116   -7.5086 C.ar      5 PHE5        0.0000 
     27 CZ        -17.4041  -40.3640  -11.2595 C.ar      5 PHE5        0.0000 
     28 DU        -18.6019  -40.4240  -10.3587 H         7 CUB7        0.0000 
     29 DU        -20.9976  -40.5439   -8.5569 H         7 CUB7        0.0000 
     30 DU        -22.1955  -40.6039   -7.6560 H         7 CUB7        0.0000 
     31 CA        -23.3933  -40.6639   -6.7551 C.3       6 GLY6        0.0000 
     32 OG        -13.8467  -41.6763  -14.1096 O.2       1 SER1        0.0000 
     33 CZ        -15.0446  -41.7363  -13.2087 C.ar      5 PHE5        0.0000 
     34 CA        -16.2424  -41.7963  -12.3078 C.3       6 GLY6        0.0000 
     35 CA        -17.4402  -41.8563  -11.4070 C.3       6 GLY6        0.0000 
     36 DU        -18.6381  -41.9163  -10.5061 H         7 CUB7        0.0000 
     37 DU        -19.8359  -41.9762   -9.6052 H         7 CUB7        0.0000 
     38 DU        -21.0338  -42.0362   -8.7043 H         7 CUB7        0.0000 
     39 DU        -22.2316  -42.0962   -7.8034 H         7 CUB7        0.0000 
     40 CA        -23.4294  -42.1562   -6.9026 C.3       6 GLY6        0.0000 
     41 OG        -15.0807  -43.2286  -13.3561 O.2       1 SER1        0.0000 
     42 OG        -16.2786  -43.2886  -12.4553 O.2       1 SER1        0.0000 
     43 DU        -17.4764  -43.3486  -11.5544 H         7 CUB7        0.0000 
     44 N         -18.6742  -43.4086  -10.6535 N.2       2 ALA2        0.0000 
     45 N         -19.8721  -43.4685   -9.7526 N.2       2 ALA2        0.0000 
     46 DU        -21.0699  -43.5285   -8.8517 H         7 CUB7        0.0000 
     47 CA        -24.6634  -43.7085   -6.1491 C.3       6 GLY6        0.0000 
     48 OG        -16.4297  -37.5188   -9.7745 O.2       1 SER1        0.0000 
     49 CA        -17.6275  -37.5788   -8.8736 C.3       6 GLY6        0.0000 
     50 CA        -18.8253  -37.6388   -7.9727 C.3       6 GLY6        0.0000 
     51 CA        -20.0232  -37.6987   -7.0718 C.3       6 GLY6        0.0000 
     52 CZ        -15.2680  -38.9511  -10.8228 C.ar      5 PHE5        0.0000 
     53 CZ        -16.4658  -39.0111   -9.9219 C.ar      5 PHE5        0.0000 
     54 DU        -17.6636  -39.0711   -9.0210 H         7 CUB7        0.0000 
     55 CA        -18.8615  -39.1311   -8.1201 C.3       6 GLY6        0.0000 
     56 CA        -20.0593  -39.1910   -7.2192 C.3       6 GLY6        0.0000 
     57 CA        -21.2572  -39.2510   -6.3184 C.3       6 GLY6        0.0000 
     58 CZ        -22.4550  -39.3110   -5.4175 C.ar      5 PHE5        0.0000 
     59 CZ        -12.9084  -40.3235  -12.7719 C.ar      5 PHE5        0.0000 
     60 CZ        -14.1063  -40.3834  -11.8711 C.ar      5 PHE5        0.0000 
     61 CZ        -15.3041  -40.4434  -10.9702 C.ar      5 PHE5        0.0000 
     62 DU        -16.5020  -40.5034  -10.0693 H         7 CUB7        0.0000 
     63 DU        -17.6998  -40.5634   -9.1684 H         7 CUB7        0.0000 
     64 N         -18.8976  -40.6234   -8.2675 N.2       2 ALA2        0.0000 
     65 N         -20.0955  -40.6833   -7.3667 N.2       2 ALA2        0.0000 
     66 N         -21.2933  -40.7433   -6.4658 N.2       2 ALA2        0.0000 
     67 CZ        -22.4911  -40.8033   -5.5649 C.ar      5 PHE5        0.0000 
     68 CA        -23.6890  -40.8633   -4.6640 C.3       6 GLY6        0.0000 
     69 DU        -12.9446  -41.8158  -12.9194 H         7 CUB7        0.0000 
     70 DU        -14.1424  -41.8757  -12.0185 H         7 CUB7        0.0000 
     71 DU        -15.3403  -41.9357  -11.1176 H         7 CUB7        0.0000 
     72 DU        -16.5381  -41.9957  -10.2167 H         7 CUB7        0.0000 
     73 DU        -17.7359  -42.0557   -9.3158 H         7 CUB7        0.0000 
     74 N         -18.9338  -42.1157   -8.4150 N.2       2 ALA2        0.0000 
     75 N         -20.1316  -42.1756   -7.5141 N.2       2 ALA2        0.0000 
     76 N         -21.3294  -42.2356   -6.6132 N.2       2 ALA2        0.0000 
     77 CA        -22.5273  -42.2956   -5.7123 C.3       6 GLY6        0.0000 
     78 CA        -23.7251  -42.3556   -4.8114 C.3       6 GLY6        0.0000 
     79 OG        -12.9807  -43.3081  -13.0668 O.2       1 SER1        0.0000 
     80 OG        -14.1786  -43.3680  -12.1659 O.2       1 SER1        0.0000 
     81 DU        -15.3764  -43.4280  -11.2650 H         7 CUB7        0.0000 
     82 DU        -16.5742  -43.4880  -10.3641 H         7 CUB7        0.0000 
     83 DU        -17.7721  -43.5480   -9.4632 H         7 CUB7        0.0000 
     84 DU        -20.1677  -43.6679   -7.6615 H         7 CUB7        0.0000 
     85 DU        -21.3656  -43.7279   -6.7606 H         7 CUB7        0.0000 
     86 DU        -22.5634  -43.7879   -5.8597 H         7 CUB7        0.0000 
     87 OG        -14.2147  -44.8603  -12.3133 O.2       1 SER1        0.0000 
     88 O         -15.4125  -44.9203  -11.4124 O.2       2 ALA2        0.0000 
     89 O         -16.6104  -44.9803  -10.5115 O.2       2 ALA2        0.0000 
     90 CA        -14.3297  -37.5982   -9.4851 C.3       6 GLY6        0.0000 
     91 NZ        -15.5275  -37.6582   -8.5842 N.2       4 LYS4        0.0000 
     92 N         -13.1680  -39.0306  -10.5334 N.2       2 ALA2        0.0000 
     93 N         -14.3658  -39.0905   -9.6325 N.2       2 ALA2        0.0000 
     94 NZ        -15.5637  -39.1505   -8.7316 N.2       4 LYS4        0.0000 
     95 NZ        -16.7615  -39.2105   -7.8308 N.2       4 LYS4        0.0000 
     96 N         -17.9593  -39.2705   -6.9299 N.2       2 ALA2        0.0000 
     97 N         -19.1572  -39.3305   -6.0290 N.2       2 ALA2        0.0000 
     98 OG        -10.8084  -40.4029  -12.4826 O.2       1 SER1        0.0000 
     99 OG        -12.0063  -40.4629  -11.5817 O.2       1 SER1        0.0000 
    100 DU        -13.2041  -40.5229  -10.6808 H         7 CUB7        0.0000 
    101 DU        -14.4020  -40.5828   -9.7799 H         7 CUB7        0.0000 
    102 DU        -15.5998  -40.6428   -8.8791 H         7 CUB7        0.0000 
    103 N         -16.7976  -40.7028   -7.9782 N.2       2 ALA2        0.0000 
    104 N         -20.3911  -40.8827   -5.2755 N.2       2 ALA2        0.0000 
    105 CA        -21.5890  -40.9427   -4.3746 C.3       6 GLY6        0.0000 
    106 OG        -10.8446  -41.8952  -12.6300 O.2       1 SER1        0.0000 
    107 DU        -12.0424  -41.9552  -11.7291 H         7 CUB7        0.0000 
    108 DU        -14.4381  -42.0751   -9.9274 H         7 CUB7        0.0000 
    109 DU        -15.6359  -42.1351   -9.0265 H         7 CUB7        0.0000 
    110 N         -16.8338  -42.1951   -8.1256 N.2       2 ALA2        0.0000 
    111 N         -20.4273  -42.3750   -5.4229 N.2       2 ALA2        0.0000 
    112 N         -21.6251  -42.4350   -4.5221 N.2       2 ALA2        0.0000 
    113 N         -22.8230  -42.4950   -3.6212 N.2       2 ALA2        0.0000 
    114 DU        -12.0786  -43.4475  -11.8765 H         7 CUB7        0.0000 
    115 DU        -13.2764  -43.5075  -10.9756 H         7 CUB7        0.0000 
    116 DU        -14.4742  -43.5674  -10.0748 H         7 CUB7        0.0000 
    117 OG        -15.6721  -43.6274   -9.1739 O.2       1 SER1        0.0000 
    118 OG        -16.8699  -43.6874   -8.2730 O.2       1 SER1        0.0000 
    119 N         -19.2656  -43.8074   -6.4712 N.2       2 ALA2        0.0000 
    120 N         -20.4634  -43.8673   -5.5704 N.2       2 ALA2        0.0000 
    121 OG        -21.6613  -43.9273   -4.6695 O.2       1 SER1        0.0000 
    122 N         -22.8591  -43.9873   -3.7686 N.2       2 ALA2        0.0000 
    123 O         -13.3126  -44.9998  -11.1231 O.2       2 ALA2        0.0000 
    124 O         -15.7082  -45.1197   -9.3213 O.2       2 ALA2        0.0000 
    125 OG        -20.4996  -45.3596   -5.7178 O.2       1 SER1        0.0000 
    126 OG        -21.6974  -45.4196   -4.8169 O.2       1 SER1        0.0000 
    127 N         -13.4637  -39.2300   -8.4423 N.2       2 ALA2        0.0000 
    128 NZ        -14.6615  -39.2899   -7.5414 N.2       4 LYS4        0.0000 
    129 OG        -11.1041  -40.6023  -10.3915 O.2       1 SER1        0.0000 
    130 N         -12.3020  -40.6623   -9.4906 N.2       2 ALA2        0.0000 
    131 N         -13.4998  -40.7223   -8.5897 N.2       2 ALA2        0.0000 
    132 NZ        -14.6976  -40.7822   -7.6888 N.2       4 LYS4        0.0000 
    133 N         -20.6868  -41.0821   -3.1844 N.2       2 ALA2        0.0000 
    134 OG         -9.9424  -42.0346  -11.4398 O.2       1 SER1        0.0000 
    135 OG        -11.1403  -42.0946  -10.5389 O.2       1 SER1        0.0000 
    136 DU        -12.3381  -42.1546   -9.6380 H         7 CUB7        0.0000 
    137 NZ        -13.5360  -42.2146   -8.7371 N.2       4 LYS4        0.0000 
    138 OG        -14.7338  -42.2745   -7.8362 O.2       1 SER1        0.0000 
    139 N         -20.7230  -42.5744   -3.3318 N.2       2 ALA2        0.0000 
    140 O         -21.9208  -42.6344   -2.4309 O.2       2 ALA2        0.0000 
    141 CA         -9.9786  -43.5269  -11.5872 C.3       6 GLY6        0.0000 
    142 OG        -11.1764  -43.5869  -10.6863 O.2       1 SER1        0.0000 
    143 O         -12.3743  -43.6469   -9.7854 O.2       2 ALA2        0.0000 
    144 OG        -13.5721  -43.7069   -8.8845 O.2       1 SER1        0.0000 
    145 OG        -14.7699  -43.7668   -7.9836 O.2       1 SER1        0.0000 
    146 N         -19.5613  -44.0068   -4.3801 N.2       2 ALA2        0.0000 
    147 OG        -20.7591  -44.0667   -3.4792 O.2       1 SER1        0.0000 
    148 OG        -21.9570  -44.1267   -2.5783 O.2       1 SER1        0.0000 
    149 N         -23.1548  -44.1867   -1.6775 N.2       2 ALA2        0.0000 
    150 N         -11.3998  -40.8017   -8.3003 N.2       2 ALA2        0.0000 
    151 NZ        -12.5977  -40.8617   -7.3995 N.2       4 LYS4        0.0000 
    152 N         -19.7847  -41.2216   -1.9942 N.2       2 ALA2        0.0000 
    153 OG         -9.0403  -42.1741  -10.2495 O.2       1 SER1        0.0000 
    154 CZ        -10.2381  -42.2340   -9.3486 C.ar      5 PHE5        0.0000 
    155 NZ        -11.4360  -42.2940   -8.4477 N.2       4 LYS4        0.0000 
    156 O         -19.8208  -42.7139   -2.1416 O.2       2 ALA2        0.0000 
    157 CA        -21.0187  -42.7738   -1.2407 C.3       6 GLY6        0.0000 
    158 OD1        -9.0764  -43.6664  -10.3969 O.3       3 ASP3        0.0000 
    159 OG        -10.2743  -43.7263   -9.4960 O.2       1 SER1        0.0000 
    160 CA        -11.4721  -43.7863   -8.5952 C.3       6 GLY6        0.0000 
    161 NZ        -12.6699  -43.8463   -7.6943 N.2       4 LYS4        0.0000 
    162 OG        -21.0548  -44.2661   -1.3881 O.2       1 SER1        0.0000 
    163 OG        -22.2526  -44.3261   -0.4872 O.2       1 SER1        0.0000 
    164 CA        -23.4505  -44.3861    0.4137 C.3       6 GLY6        0.0000 
    165 O         -11.5082  -45.2786   -8.7426 O.2       2 ALA2        0.0000 
    166 N         -20.0804  -41.4210    0.0970 N.2       2 ALA2        0.0000 
    167 N         -18.9187  -42.8533   -0.9513 N.2       2 ALA2        0.0000 
    168 N         -20.1165  -42.9133   -0.0504 N.2       2 ALA2        0.0000 
    169 CA        -21.3143  -42.9732    0.8504 C.3       6 GLY6        0.0000 
    170 CA        -22.5122  -43.0332    1.7513 C.3       6 GLY6        0.0000 
    171 CA         -9.3721  -43.8658   -8.3058 C.3       6 GLY6        0.0000 
    172 CA        -10.5700  -43.9257   -7.4049 C.3       6 GLY6        0.0000 
    173 CA        -20.1527  -44.4056   -0.1979 C.3       6 GLY6        0.0000 
    174 CA        -21.3505  -44.4655    0.7030 C.3       6 GLY6        0.0000 
    175 O         -22.5483  -44.5255    1.6039 O.2       2 ALA2        0.0000 
    176 O         -23.7462  -44.5855    2.5048 O.2       2 ALA2        0.0000 
    177 OG        -21.3866  -45.9578    0.5556 O.2       1 SER1        0.0000 
    178 O         -22.5845  -46.0178    1.4565 O.2       2 ALA2        0.0000 
    179 O         -23.7823  -46.0778    2.3574 O.2       2 ALA2        0.0000 
    180 NZ        -21.6462  -44.6650    2.7942 N.2       4 LYS4        0.0000 
@<TRIPOS>BOND
@<TRIPOS>SUBSTRUCTURE
     1 SER1       32 GROUP   
     2 ALA2        1 GROUP   
     3 ASP3      158 GROUP   
     4 LYS4       91 GROUP   
     5 PHE5        5 GROUP   
     6 GLY6        4 GROUP   
     7 CUB7        9 GROUP   
@<TRIPOS>SET

