#    Name: 4j0t_6T9_1_INTS_M
#    Modification time : Tue Mar 25 04:59:12 2014

@<TRIPOS>MOLECULE
4j0t_6T9_1_INTS_M
   71     0     9     0     0
SMALL
NO_CHARGES


@<TRIPOS>ATOM
      1 CA        -16.2595  -40.2945   -5.2830 C.3       3 GLC5        0.0000 
      2 CA        -15.5480  -40.1750   -7.3170 C.3       9 GLL5        0.0000 
      3 CA        -16.9710  -40.4140   -3.2490 C.3       6 GLP5        0.0000 
      4 O         -15.9255  -37.9970   -6.8615 O.2       1 ALC1        0.0000 
      5 O         -16.0940  -39.0240   -7.6640 O.2       7 ALL1        0.0000 
      6 O         -15.7570  -36.9700   -6.0590 O.2       4 ALP1        0.0000 
      7 CA        -17.8930  -40.0945   -5.2320 C.3       3 GLC5        0.0000 
      8 CA        -18.8150  -39.7750   -7.2150 C.3       9 GLL5        0.0000 
      9 CA        -18.5360  -37.4305  -11.8165 C.3       3 GLC5        0.0000 
     10 CA        -19.2110  -37.9520  -10.3810 C.3       9 GLL5        0.0000 
     11 CA        -17.8610  -36.9090  -13.2520 C.3       6 GLP5        0.0000 
     12 CA        -20.2215  -36.7215  -10.5680 C.3       3 GLC5        0.0000 
     13 CA        -21.2320  -35.4910  -10.7550 C.3       6 GLP5        0.0000 
     14 O         -14.8995  -39.1775   -5.2945 O.2       1 ALC1        0.0000 
     15 O         -14.7270  -40.1970   -6.2310 O.2       7 ALL1        0.0000 
     16 O         -15.0720  -38.1580   -4.3580 O.2       4 ALP1        0.0000 
     17 O         -15.2420  -38.5835   -6.1450 O.2       1 ALC1        0.0000 
     18 O         -13.9085  -41.1825   -5.7375 O.2       1 ALC1        0.0000 
     19 O         -13.0900  -42.1680   -5.2440 O.2       4 ALP1        0.0000 
     20 CA        -15.0765  -36.4545   -8.7610 C.3       3 GLC5        0.0000 
     21 CA        -16.6930  -37.5560   -9.4550 C.3       9 GLL5        0.0000 
     22 CA        -13.4600  -35.3530   -8.0670 C.3       6 GLP5        0.0000 
     23 CA        -16.5975  -37.1460  -11.1745 C.3       3 GLC5        0.0000 
     24 CA        -16.5020  -36.7360  -12.8940 C.3       6 GLP5        0.0000 
     25 CA        -17.5090  -36.4690   -8.1900 C.3       3 GLC5        0.0000 
     26 CA        -18.3250  -35.3820   -6.9250 C.3       6 GLP5        0.0000 
     27 O         -19.1335  -41.2505   -5.3130 O.2       1 ALC1        0.0000 
     28 O         -20.4050  -40.6740   -5.6830 O.2       7 ALL1        0.0000 
     29 O         -17.8620  -41.8270   -4.9430 O.2       4 ALP1        0.0000 
     30 CA        -18.5825  -41.3385   -2.7345 C.3       3 GLC5        0.0000 
     31 CA        -20.1940  -42.2630   -2.2200 C.3       9 GLL5        0.0000 
     32 CA        -18.4750  -43.2510   -3.0325 C.3       3 GLC5        0.0000 
     33 CA        -16.7560  -44.2390   -3.8450 C.3       6 GLP5        0.0000 
     34 CA        -19.8920  -44.9935   -1.7220 C.3       3 GLC5        0.0000 
     35 CA        -21.0730  -43.1700   -1.6690 C.3       9 GLL5        0.0000 
     36 CA        -18.7110  -46.8170   -1.7750 C.3       6 GLP5        0.0000 
     37 CA        -24.3505  -42.0410   -4.6565 C.3       3 GLC5        0.0000 
     38 CA        -22.5400  -42.7780   -3.5680 C.3       9 GLL5        0.0000 
     39 CA        -26.1610  -41.3040   -5.7450 C.3       6 GLP5        0.0000 
     40 N         -20.8440  -45.1750   -1.4860 N.am      2 SEC2        0.0000 
     41 N         -20.6990  -43.7770   -0.4650 N.am      8 SEL2        0.0000 
     42 N         -20.9890  -46.5730   -2.5070 N.am      5 SEP2        0.0000 
     43 CA        -17.3505  -39.5645  -12.5235 C.3       3 GLC5        0.0000 
     44 CA        -17.4620  -40.0710  -10.7890 C.3       9 GLL5        0.0000 
     45 CA        -17.2390  -39.0580  -14.2580 C.3       6 GLP5        0.0000 
     46 CA        -23.6330  -45.3125   -0.1930 C.3       3 GLC5        0.0000 
     47 CA        -21.7640  -44.6020    0.0770 C.3       9 GLL5        0.0000 
     48 CA        -25.5020  -46.0230   -0.4630 C.3       6 GLP5        0.0000 
     49 CA        -22.3690  -42.6675    0.0010 C.3       3 GLC5        0.0000 
     50 CA        -22.9740  -40.7330   -0.0750 C.3       6 GLP5        0.0000 
     51 CA        -20.8855  -46.0795   -1.0875 C.3       3 GLC5        0.0000 
     52 CA        -20.0070  -47.5570   -2.2520 C.3       6 GLP5        0.0000 
     53 CA        -21.0660  -43.6270    2.7865 C.3       3 GLC5        0.0000 
     54 CA        -21.3370  -45.2050    1.4040 C.3       9 GLL5        0.0000 
     55 CA        -20.7950  -42.0490    4.1690 C.3       6 GLP5        0.0000 
     56 CA        -20.9540  -46.8370    0.1135 C.3       3 GLC5        0.0000 
     57 CA        -20.5710  -48.4690   -1.1770 C.3       6 GLP5        0.0000 
     58 CA        -15.7840  -38.8102  -11.6035 C.3       3 GLC5        0.0000 
     59 CA        -16.6250  -40.0680   -9.7280 C.3       9 GLL5        0.0000 
     60 CA        -15.5680  -37.6640  -13.2060 C.3       6 GLP5        0.0000 
     61 CA        -18.2989  -37.3840   -7.4126 C.3       3 GLC5        0.0000 
     62 CA        -20.5263  -38.5155   -5.7957 C.3       3 GLC5        0.0000 
     63 CA        -20.7060  -37.3650   -4.2380 C.3       6 GLP5        0.0000 
     64 CA        -18.8455  -36.8395   -8.3660 C.3       3 GLC5        0.0000 
     65 CA        -19.5210  -38.6420   -9.2330 C.3       9 GLL5        0.0000 
     66 CA        -24.2333  -42.7602   -2.3057 C.3       3 GLC5        0.0000 
     67 CA        -22.2870  -43.4150   -2.3510 C.3       9 GLL5        0.0000 
     68 CA        -26.0530  -42.4240   -1.6520 C.3       6 GLP5        0.0000 
     69 CA        -19.8053  -45.0643    1.3922 C.3       3 GLC5        0.0000 
     70 CA        -18.0600  -45.2250    2.0440 C.3       6 GLP5        0.0000 
     71 CA        -22.1894  -41.7629   -1.2921 C.3       3 GLC5        0.0000 
@<TRIPOS>BOND
@<TRIPOS>SUBSTRUCTURE
     1 ALC1        4 GROUP        1 X    ALC  0     ROOT ALC X 1
     2 SEC2       40 GROUP        1 X    SEC  0     **** SEC X 2
     3 GLC5        1 GROUP        1 X    GLC  0     **** GLC X 6
     4 ALP1        6 GROUP        1 Y    ALP  0     ROOT ALP Y 8
     5 SEP2       42 GROUP        1 Y    SEP  0     **** SEP Y 9
     6 GLP5        3 GROUP        1 Y    GLP  0     **** GLP Y 13
     7 ALL1        5 GROUP        1 Z    ALL  0     ROOT ALL Z 15
     8 SEL2       41 GROUP        1 Z    SEL  0     **** SEL Z 16
     9 GLL5        2 GROUP        1 Z    GLL  0     **** GLL Z 20
@<TRIPOS>SET

