#    Name: 4j0t_6T9_1_ligand
#    Modification time : Tue Mar 25 04:59:12 2014

@<TRIPOS>MOLECULE
4j0t_6T9_1_ligand
   49    51     1     0     0
SMALL
NO_CHARGES


@<TRIPOS>ATOM
      1 C1        -16.6150  -41.4590   -9.0870 C.3       1 6T9504      0.0000 
      2 C2        -16.6250  -40.0680   -9.7280 C.3       1 6T9504      0.0000 
      3 O3        -15.6300  -41.3270   -8.0360 O.3       1 6T9504      0.0000 
      4 C4        -15.5480  -40.1750   -7.3170 C.2       1 6T9504      0.0000 
      5 N5        -16.0940  -39.0240   -7.6640 N.pl3     1 6T9504      0.0000 
      6 C6        -17.0010  -38.9040   -8.7830 C.3       1 6T9504      0.0000 
      7 C7        -18.4600  -39.0900   -8.3880 C.ar      1 6T9504      0.0000 
      8 C8        -18.8150  -39.7750   -7.2150 C.ar      1 6T9504      0.0000 
      9 C9        -20.1670  -39.9590   -6.8630 C.ar      1 6T9504      0.0000 
     10 C10       -21.2020  -39.4650   -7.6680 C.ar      1 6T9504      0.0000 
     11 C11       -20.8670  -38.8290   -8.8860 C.ar      1 6T9504      0.0000 
     12 C12       -19.5210  -38.6420   -9.2330 C.ar      1 6T9504      0.0000 
     13 F13       -19.2110  -37.9520  -10.3810 F         1 6T9504      0.0000 
     14 N14       -14.7270  -40.1970   -6.2310 N.pl3     1 6T9504      0.0000 
     15 C15       -16.6930  -37.5560   -9.4550 C.3       1 6T9504      0.0000 
     16 N16       -20.4050  -40.6740   -5.6830 N.am      1 6T9504      0.0000 
     17 C17       -21.6290  -41.1210   -5.2750 C.2       1 6T9504      0.0000 
     18 C18       -21.5900  -41.8680   -4.0250 C.ar      1 6T9504      0.0000 
     19 O19       -22.6050  -40.9680   -5.9950 O.2       1 6T9504      0.0000 
     20 N20       -20.4700  -41.6810   -3.3480 N.ar      1 6T9504      0.0000 
     21 C21       -20.1940  -42.2630   -2.2200 C.ar      1 6T9504      0.0000 
     22 C22       -21.0730  -43.1700   -1.6690 C.ar      1 6T9504      0.0000 
     23 C23       -22.2870  -43.4150   -2.3510 C.ar      1 6T9504      0.0000 
     24 C24       -22.5400  -42.7780   -3.5680 C.ar      1 6T9504      0.0000 
     25 O25       -20.6990  -43.7770   -0.4650 O.3       1 6T9504      0.0000 
     26 F26       -15.3750  -39.8450  -10.2740 F         1 6T9504      0.0000 
     27 F27       -17.4620  -40.0710  -10.7890 F         1 6T9504      0.0000 
     28 C28       -21.7640  -44.6020    0.0770 C.3       1 6T9504      0.0000 
     29 C29       -21.3370  -45.2050    1.4040 C.3       1 6T9504      0.0000 
     30 H         -16.3187  -42.1698   -9.8254 H         1 6T9504      0.0000 
     31 H         -17.5885  -41.6601   -8.6994 H         1 6T9504      0.0000 
     32 H         -15.8962  -38.1354   -7.1430 H         1 6T9504      0.0000 
     33 H         -18.0777  -40.1496   -6.6009 H         1 6T9504      0.0000 
     34 H         -22.1709  -39.5583   -7.3891 H         1 6T9504      0.0000 
     35 H         -21.6102  -38.5073   -9.5103 H         1 6T9504      0.0000 
     36 H         -14.2844  -41.0713   -6.0316 H         1 6T9504      0.0000 
     37 H         -14.6389  -39.3369   -5.7285 H         1 6T9504      0.0000 
     38 H         -19.5599  -40.8774   -5.0674 H         1 6T9504      0.0000 
     39 H         -19.3057  -42.0654   -1.6977 H         1 6T9504      0.0000 
     40 H         -22.9723  -44.0574   -1.9485 H         1 6T9504      0.0000 
     41 H         -23.3789  -42.9710   -4.0941 H         1 6T9504      0.0000 
     42 H         -22.0147  -45.4198   -0.6081 H         1 6T9504      0.0000 
     43 H         -22.6722  -44.0117    0.2433 H         1 6T9504      0.0000 
     44 H         -15.7235  -37.4680   -9.6838 H         1 6T9504      0.0000 
     45 H         -17.2066  -37.4388  -10.3050 H         1 6T9504      0.0000 
     46 H         -16.9257  -36.7842   -8.8632 H         1 6T9504      0.0000 
     47 H         -20.5237  -45.7786    1.3067 H         1 6T9504      0.0000 
     48 H         -21.1196  -44.5003    2.0793 H         1 6T9504      0.0000 
     49 H         -22.0545  -45.7784    1.7994 H         1 6T9504      0.0000 
@<TRIPOS>BOND
     1    2    1 1    
     2    3    1 1    
     3   30    1 1    
     4   31    1 1    
     5    6    2 1    
     6   26    2 1    
     7   27    2 1    
     8    4    3 1    
     9    5    4 2    
    10   14    4 1    
    11    6    5 1    
    12   32    5 1    
    13    7    6 1    
    14   15    6 1    
    15    8    7 ar   
    16   12    7 ar   
    17    9    8 ar   
    18   33    8 1    
    19   10    9 ar   
    20   16    9 1    
    21   11   10 ar   
    22   34   10 1    
    23   12   11 ar   
    24   35   11 1    
    25   13   12 1    
    26   36   14 1    
    27   37   14 1    
    28   44   15 1    
    29   45   15 1    
    30   46   15 1    
    31   17   16 am   
    32   38   16 1    
    33   18   17 1    
    34   19   17 2    
    35   20   18 ar   
    36   24   18 ar   
    37   21   20 ar   
    38   22   21 ar   
    39   39   21 1    
    40   23   22 ar   
    41   25   22 1    
    42   24   23 ar   
    43   40   23 1    
    44   41   24 1    
    45   28   25 1    
    46   29   28 1    
    47   42   28 1    
    48   43   28 1    
    49   47   29 1    
    50   48   29 1    
    51   49   29 1    
@<TRIPOS>SUBSTRUCTURE
     1 6T9504      1 GROUP   
@<TRIPOS>SET

