#    Name: 1kap_GLY_SER_ASN_SER_1_INTS_M
#    Modification time : Tue Mar 25 09:45:16 2014

@<TRIPOS>MOLECULE
1kap_GLY_SER_ASN_SER_1_INTS_M
   44     0    12     0     0
SMALL
NO_CHARGES


@<TRIPOS>ATOM
      1 CA        -10.2655   24.5995  -28.9800 C.3       4 GLC5        0.0000 
      2 CA        -11.3430   23.8190  -27.2180 C.3      12 GLL5        0.0000 
      3 CA         -9.1880   25.3800  -30.7420 C.3       8 GLP5        0.0000 
      4 CA         -9.5370   24.7400  -27.1875 C.3       4 GLC5        0.0000 
      5 CA         -7.7310   25.6610  -27.1570 C.3       8 GLP5        0.0000 
      6 CA         -9.8925   29.2210  -26.3445 C.3       4 GLC5        0.0000 
      7 CA        -11.3760   27.5400  -26.4370 C.3      12 GLL5        0.0000 
      8 CA         -8.4090   30.9020  -26.2520 C.3       8 GLP5        0.0000 
      9 CA         -9.5535   26.6005  -26.7970 C.3       4 GLC5        0.0000 
     10 N         -15.1300   28.0195  -25.2430 N.am      2 SEC2        0.0000 
     11 N         -13.6690   27.7690  -25.7050 N.am     10 SEL2        0.0000 
     12 N         -16.5910   28.2700  -24.7810 N.am      6 SEP2        0.0000 
     13 CA        -10.9675   29.4160  -29.4420 C.3       4 GLC5        0.0000 
     14 CA        -11.7660   28.1650  -27.7930 C.3      12 GLL5        0.0000 
     15 CA        -10.1690   30.6670  -31.0910 C.3       8 GLP5        0.0000 
     16 O         -10.6750   27.6600  -23.5985 O.2       1 ALC1        0.0000 
     17 O         -12.0670   27.7620  -24.1340 O.2       9 ALL1        0.0000 
     18 O          -9.2830   27.5580  -23.0630 O.2       5 ALP1        0.0000 
     19 N         -10.2405   30.0020  -22.5775 N.am      2 SEC2        0.0000 
     20 N         -11.6400   29.8750  -22.4530 N.am     10 SEL2        0.0000 
     21 N          -8.8410   30.1290  -22.7020 N.am      6 SEP2        0.0000 
     22 CA        -12.0960   28.2445  -20.1445 C.3       4 GLC5        0.0000 
     23 CA        -12.6590   27.1820  -21.8160 C.3      12 GLL5        0.0000 
     24 CA        -11.5330   29.3070  -18.4730 C.3       8 GLP5        0.0000 
     25 O         -15.2045   29.8475  -22.8750 O.2       1 ALC1        0.0000 
     26 O         -13.8160   30.2900  -22.9040 O.2       9 ALL1        0.0000 
     27 O         -16.5930   29.4050  -22.8460 O.2       5 ALP1        0.0000 
     28 CA        -11.7635   31.9495  -23.0375 C.3       4 GLC5        0.0000 
     29 CA        -13.7080   31.7030  -22.5950 C.3      12 GLL5        0.0000 
     30 CA         -9.8190   32.1960  -23.4800 C.3       8 GLP5        0.0000 
     31 Zn        -14.6025   31.2105  -19.6200 Zn        3 ZIC7        0.0000 
     32 Zn        -15.0060   31.6510  -20.5700 Zn       11 ZIL7        0.0000 
     33 Zn        -14.1990   30.7700  -18.6700 Zn        7 ZIP7        0.0000 
     34 N         -16.2640   31.9330  -20.8390 N.am      2 SEC2        0.0000 
     35 N         -15.0060   31.6510  -20.5700 N.am     10 SEL2        0.0000 
     36 N         -17.5220   32.2150  -21.1080 N.am      6 SEP2        0.0000 
     37 CA        -16.4145   33.1255  -23.8220 C.3       4 GLC5        0.0000 
     38 CA        -14.7750   32.5020  -23.3540 C.3      12 GLL5        0.0000 
     39 CA        -18.0540   33.7490  -24.2900 C.3       8 GLP5        0.0000 
     40 Zn        -13.5290   31.3560  -19.5160 Zn        3 ZIC7        0.0000 
     41 Zn        -12.8590   31.9420  -20.3620 Zn       11 ZIL7        0.0000 
     42 O         -11.8790   32.8060  -20.1005 O.2       1 ALC1        0.0000 
     43 O         -12.8590   31.9420  -20.3620 O.2       9 ALL1        0.0000 
     44 O         -10.8990   33.6700  -19.8390 O.2       5 ALP1        0.0000 
@<TRIPOS>BOND
@<TRIPOS>SUBSTRUCTURE
     1 ALC1       16 GROUP        1 X    ALC  0     ROOT ALC X 1
     2 SEC2       10 GROUP        1 X    SEC  0     **** SEC X 2
     3 ZIC7       31 GROUP        1 X    ZIC  0     **** ZIC X 5
     4 GLC5        1 GROUP        1 X    GLC  0     **** GLC X 6
     5 ALP1       18 GROUP        1 Y    ALP  0     ROOT ALP Y 8
     6 SEP2       12 GROUP        1 Y    SEP  0     **** SEP Y 9
     7 ZIP7       33 GROUP        1 Y    ZIP  0     **** ZIP Y 12
     8 GLP5        3 GROUP        1 Y    GLP  0     **** GLP Y 13
     9 ALL1       17 GROUP        1 Z    ALL  0     ROOT ALL Z 15
    10 SEL2       11 GROUP        1 Z    SEL  0     **** SEL Z 16
    11 ZIL7       32 GROUP        1 Z    ZIL  0     **** ZIL Z 19
    12 GLL5        2 GROUP        1 Z    GLL  0     **** GLL Z 20
@<TRIPOS>SET

