#    Name: 1kap_GLY_SER_ASN_SER_1_ligand
#    Modification time : Tue Mar 25 09:45:16 2014

@<TRIPOS>MOLECULE
1kap_GLY_SER_ASN_SER_1_ligand
   47    46     4     0     0
SMALL
NO_CHARGES


@<TRIPOS>ATOM
      1 N         -10.9010   23.4700  -25.8330 N.4       1 GLY751      0.0000
      2 CA        -11.3430   23.8190  -27.2180 C.3       1 GLY751      0.0000
      3 C         -11.8140   25.2590  -27.2690 C.2       1 GLY751      0.0000
      4 O         -12.7740   25.5860  -27.9790 O.2       1 GLY751      0.0000
      5 HA2       -12.1611   23.1650  -27.5230 H         1 GLY751      0.0000
      6 HA3       -10.5149   23.6896  -27.9163 H         1 GLY751      0.0000
      7 HNCA      -10.5890   22.5220  -25.7705 H         1 GLY751      0.0000
      8 H         -10.1444   24.0483  -25.5278 H         1 GLY751      0.0000
      9 H         -11.6402   23.5797  -25.1685 H         1 GLY751      0.0000
     10 N         -11.0860   26.1150  -26.5500 N.am      2 SER752      0.0000
     11 CA        -11.3760   27.5400  -26.4370 C.3       2 SER752      0.0000
     12 C         -12.4760   27.7480  -25.3940 C.2       2 SER752      0.0000
     13 O         -13.6690   27.7690  -25.7050 O.2       2 SER752      0.0000
     14 CB        -11.7660   28.1650  -27.7930 C.3       2 SER752      0.0000
     15 OG        -11.8200   29.5850  -27.7320 O.3       2 SER752      0.0000
     16 HNCA      -10.2372   25.7901  -26.0109 H         2 SER752      0.0000
     17 HA        -10.4856   28.0673  -26.0755 H         2 SER752      0.0000
     18 HB2       -12.7389   27.7281  -28.0833 H         2 SER752      0.0000
     19 HB3       -11.0279   27.8126  -28.5365 H         2 SER752      0.0000
     20 HG        -10.8997   29.8675  -27.4612 H         2 SER752      0.0000
     21 N         -12.0670   27.7620  -24.1340 N.am      3 ASN753      0.0000
     22 CA        -12.9990   28.0170  -23.0530 C.3       3 ASN753      0.0000
     23 C         -12.7760   29.4790  -22.7440 C.2       3 ASN753      0.0000
     24 O         -11.6400   29.8750  -22.4530 O.2       3 ASN753      0.0000
     25 CB        -12.6590   27.1820  -21.8160 C.3       3 ASN753      0.0000
     26 CG        -13.6350   26.0600  -21.5960 C.2       3 ASN753      0.0000
     27 OD1       -14.7700   26.2860  -21.1570 O.2       3 ASN753      0.0000
     28 ND2       -13.2090   24.8350  -21.8970 N.am      3 ASN753      0.0000
     29 HNCA      -11.0809   27.5951  -23.8610 H         3 ASN753      0.0000
     30 HA        -13.9917   27.8697  -23.3456 H         3 ASN753      0.0000
     31 HB2       -12.6496   27.8423  -20.9388 H         3 ASN753      0.0000
     32 HB3       -11.6466   26.7743  -21.9354 H         3 ASN753      0.0000
     33 HD21      -12.2608   24.7625  -22.2064 H         3 ASN753      0.0000
     34 HD22      -13.8756   24.0978  -21.7866 H         3 ASN753      0.0000
     35 N         -13.8160   30.2900  -22.9040 N.am      4 SER754      0.0000
     36 CA        -13.7080   31.7030  -22.5950 C.3       4 SER754      0.0000
     37 C         -13.8790   31.8210  -21.0710 C.2       4 SER754      0.0000
     38 O         -15.0060   31.6510  -20.5700 O.2       4 SER754      0.0000
     39 CB        -14.7750   32.5020  -23.3540 C.3       4 SER754      0.0000
     40 OG        -14.6260   32.3400  -24.7670 O.3       4 SER754      0.0000
     41 OXT       -12.8590   31.9420  -20.3620 O.3       4 SER754      0.0000
     42 HNCA      -14.7352   29.9624  -23.2494 H         4 SER754      0.0000
     43 HA        -12.7358   32.0711  -22.8516 H         4 SER754      0.0000
     44 HB2       -14.6763   33.5557  -23.0530 H         4 SER754      0.0000
     45 HB3       -15.7591   32.1538  -23.0064 H         4 SER754      0.0000
     46 HG        -13.6734   32.5785  -24.9557 H         4 SER754      0.0000
     47 H         -12.6214   32.9119  -20.4141 H         4 SER754      0.0000
@<TRIPOS>BOND
     1    2    1 1
     2    7    1 1
     3    8    1 1
     4    9    1 1
     5    3    2 1
     6    5    2 1
     7    6    2 1
     8    4    3 2
     9   11   10 1
    10   16   10 1
    11   12   11 1
    12   14   11 1
    13   17   11 1
    14   13   12 2
    15   15   14 1
    16   18   14 1
    17   19   14 1
    18   20   15 1
    19   22   21 1
    20   29   21 1
    21   23   22 1
    22   25   22 1
    23   30   22 1
    24   24   23 2
    25   26   25 1
    26   31   25 1
    27   32   25 1
    28   27   26 2
    29   28   26 am
    30   33   28 1
    31   34   28 1
    32   36   35 1
    33   42   35 1
    34   37   36 1
    35   39   36 1
    36   43   36 1
    37   38   37 2
    38   41   37 1
    39   40   39 1
    40   44   39 1
    41   45   39 1
    42   46   40 1
    43   47   41 1
    44   10    3 am
    45   21   12 am
    46   35   23 am
@<TRIPOS>SUBSTRUCTURE
     1 GLY751      1 RESIDUE
     2 SER752     10 RESIDUE
     3 ASN753     21 RESIDUE
     4 SER754     35 RESIDUE
@<TRIPOS>SET

