#    Name: 3reg_GSP_1_INTS_M
#    Modification time : Tue Mar 25 11:22:58 2014

@<TRIPOS>MOLECULE
3reg_GSP_1_INTS_M
   73     0    15     0     0
SMALL
NO_CHARGES


@<TRIPOS>ATOM
      1 N          10.8015    2.7420   47.9555 N.am      2 SEC2        0.0000 
      2 N           9.4410    2.2150   48.0100 N.am     12 SEL2        0.0000 
      3 N          12.1620    3.2690   47.9010 N.am      7 SEP2        0.0000 
      4 CA         11.1830    3.5460   50.0960 C.3       5 GLC5        0.0000 
      5 CA          9.2910    3.9080   50.0530 C.3      15 GLL5        0.0000 
      6 CA         13.0750    3.1840   50.1390 C.3      10 GLP5        0.0000 
      7 CA          9.0250    5.0465   48.3525 C.3       5 GLC5        0.0000 
      8 CA          8.7590    6.1850   46.6520 C.3      10 GLP5        0.0000 
      9 CA          7.8955    5.1150   50.4310 C.3       5 GLC5        0.0000 
     10 CA          6.5000    6.3220   50.8090 C.3      10 GLP5        0.0000 
     11 CA         10.1500    4.7780   51.8620 C.3       5 GLC5        0.0000 
     12 CA         11.0090    5.6480   53.6710 C.3      10 GLP5        0.0000 
     13 Zn          6.8775    1.3660   49.0665 Zn        4 ZIC7        0.0000 
     14 Zn          7.4260    2.0740   49.6190 Zn       14 ZIL7        0.0000 
     15 Zn          6.3290    0.6580   48.5140 Zn        9 ZIP7        0.0000 
     16 N           6.3440    2.6205   50.3000 N.am      2 SEC2        0.0000 
     17 N           7.4260    2.0740   49.6190 N.am     12 SEL2        0.0000 
     18 N           5.2620    3.1670   50.9810 N.am      7 SEP2        0.0000 
     19 N          10.3620    0.1695   50.0195 N.am      2 SEC2        0.0000 
     20 N           9.6360    1.2150   50.3890 N.am     12 SEL2        0.0000 
     21 N          11.0880   -0.8760   49.6500 N.am      7 SEP2        0.0000 
     22 N           9.9755    0.9350   51.7180 N.am      2 SEC2        0.0000 
     23 N          10.3150    0.6550   53.0470 N.am      7 SEP2        0.0000 
     24 NZ         10.7755   -0.3465   48.3340 N.4       3 LYC4        0.0000 
     25 NZ         10.4630    0.1830   47.0180 N.4      13 LYL4        0.0000 
     26 NZ         11.0880   -0.8760   49.6500 N.4       8 LYP4        0.0000 
     27 N          11.0805    0.0305   45.6560 N.am      2 SEC2        0.0000 
     28 N          10.4630    0.1830   47.0180 N.am     12 SEL2        0.0000 
     29 N          11.6980   -0.1220   44.2940 N.am      7 SEP2        0.0000 
     30 N          10.1555   -0.9100   46.0875 N.am      2 SEC2        0.0000 
     31 N           9.8480   -2.0030   45.1570 N.am      7 SEP2        0.0000 
     32 N          10.7755   -0.3465   48.3340 N.am      2 SEC2        0.0000 
     33 Zn          7.1590    0.4800   47.7735 Zn        4 ZIC7        0.0000 
     34 Zn          7.9890    0.3020   47.0330 Zn       14 ZIL7        0.0000 
     35 N           7.4770   -0.8450   46.3795 N.am      2 SEC2        0.0000 
     36 N           7.9890    0.3020   47.0330 N.am     12 SEL2        0.0000 
     37 N           6.9650   -1.9920   45.7260 N.am      7 SEP2        0.0000 
     38 N           6.9285   -0.4450   43.4465 N.am      2 SEC2        0.0000 
     39 N           7.8200    0.5700   43.8570 N.am     12 SEL2        0.0000 
     40 N           6.0370   -1.4600   43.0360 N.am      7 SEP2        0.0000 
     41 N          10.5330    0.8540   44.9065 N.am      2 SEC2        0.0000 
     42 N           9.3680    1.8300   45.5190 N.am     12 SEL2        0.0000 
     43 CA         10.9280    3.7370   45.0310 C.3       5 GLC5        0.0000 
     44 CA          9.7030    3.8850   43.5930 C.3      15 GLL5        0.0000 
     45 CA         12.1530    3.5890   46.4690 C.3      10 GLP5        0.0000 
     46 CA          8.7225    4.6105   44.9250 C.3       5 GLC5        0.0000 
     47 CA          7.7420    5.3360   46.2570 C.3      10 GLP5        0.0000 
     48 CA          7.3165    2.4995   40.7570 C.3       5 GLC5        0.0000 
     49 CA          8.4940    3.9820   40.5990 C.3      15 GLL5        0.0000 
     50 CA          6.1390    1.0170   40.9150 C.3      10 GLP5        0.0000 
     51 CA         11.8230    3.0525   40.6745 C.3       5 GLC5        0.0000 
     52 CA          9.9470    3.8080   40.2090 C.3      15 GLL5        0.0000 
     53 CA         13.6990    2.2970   41.1400 C.3      10 GLP5        0.0000 
     54 CA         12.5750    0.5590   39.0230 C.3       5 GLC5        0.0000 
     55 CA         10.8080    0.7270   38.4440 C.3      15 GLL5        0.0000 
     56 CA         14.3420    0.3910   39.6020 C.3      10 GLP5        0.0000 
     57 N          10.5880   -2.3560   36.9150 N.am      2 SEC2        0.0000 
     58 N          11.4270   -1.1400   37.2400 N.am     12 SEL2        0.0000 
     59 N           9.7490   -3.5720   36.5900 N.am      7 SEP2        0.0000 
     60 O          12.7410    0.1745   35.4725 O.2       1 ALC1        0.0000 
     61 O          12.0310    0.8660   36.4050 O.2      11 ALL1        0.0000 
     62 O          13.4510   -0.5170   34.5400 O.2       6 ALP1        0.0000 
     63 O          12.8720    1.0985   34.8970 O.2       1 ALC1        0.0000 
     64 O          13.7130    1.3310   33.3890 O.2       6 ALP1        0.0000 
     65 O          13.1690    2.1465   34.4710 O.2       1 ALC1        0.0000 
     66 O          12.6250    2.9620   35.5530 O.2      11 ALL1        0.0000 
     67 CA         12.2630    2.2070   39.8405 C.3       5 GLC5        0.0000 
     68 CA         10.8270    2.1170   38.5410 C.3      15 GLL5        0.0000 
     69 CA          8.1360    5.9205   43.3195 C.3       5 GLC5        0.0000 
     70 CA          8.5750    5.0370   41.6870 C.3      15 GLL5        0.0000 
     71 CA          7.0310    6.9520   44.6200 C.3      10 GLP5        0.0000 
     72 CA          9.8733    1.4270   36.8483 C.3       5 GLC5        0.0000 
     73 CA          8.9290    1.4320   35.2040 C.3      10 GLP5        0.0000 
@<TRIPOS>BOND
@<TRIPOS>SUBSTRUCTURE
     1 ALC1       60 GROUP        1 X    ALC  0     ROOT ALC X 1
     2 SEC2        1 GROUP        1 X    SEC  0     **** SEC X 2
     3 LYC4       24 GROUP        1 X    LYC  0     **** LYC X 4
     4 ZIC7       13 GROUP        1 X    ZIC  0     **** ZIC X 5
     5 GLC5        4 GROUP        1 X    GLC  0     **** GLC X 6
     6 ALP1       62 GROUP        1 Y    ALP  0     ROOT ALP Y 8
     7 SEP2        3 GROUP        1 Y    SEP  0     **** SEP Y 9
     8 LYP4       26 GROUP        1 Y    LYP  0     **** LYP Y 11
     9 ZIP7       15 GROUP        1 Y    ZIP  0     **** ZIP Y 12
    10 GLP5        6 GROUP        1 Y    GLP  0     **** GLP Y 13
    11 ALL1       61 GROUP        1 Z    ALL  0     ROOT ALL Z 15
    12 SEL2        2 GROUP        1 Z    SEL  0     **** SEL Z 16
    13 LYL4       25 GROUP        1 Z    LYL  0     **** LYL Z 18
    14 ZIL7       14 GROUP        1 Z    ZIL  0     **** ZIL Z 19
    15 GLL5        5 GROUP        1 Z    GLL  0     **** GLL Z 20
@<TRIPOS>SET

