#    Name: 3reg_GSP_1_ligand
#    Modification time : Tue Mar 25 11:22:58 2014

@<TRIPOS>MOLECULE
3reg_GSP_1_ligand
   45    47     1     0     0
SMALL
NO_CHARGES


@<TRIPOS>ATOM
      1 PG          8.9240    2.2810   49.5430 P.3       1 GSP538      0.0000 
      2 O3B         9.4410    2.2150   48.0100 O.3       1 GSP538      0.0000 
      3 S1G         9.2910    3.9080   50.0530 S.2       1 GSP538      0.0000 
      4 O2G         7.4260    2.0740   49.6190 O.3       1 GSP538      0.0000 
      5 O3G         9.6360    1.2150   50.3890 O.3       1 GSP538      0.0000 
      6 PB          9.2570    1.0560   46.9390 P.3       1 GSP538      0.0000 
      7 O1B        10.4630    0.1830   47.0180 O.co2     1 GSP538      0.0000 
      8 O2B         7.9890    0.3020   47.0330 O.co2     1 GSP538      0.0000 
      9 PA          8.2040    1.9050   44.3930 P.3       1 GSP538      0.0000 
     10 O1A         7.8200    0.5700   43.8570 O.co2     1 GSP538      0.0000 
     11 O2A         7.0330    2.6660   44.8910 O.co2     1 GSP538      0.0000 
     12 O3A         9.3680    1.8300   45.5190 O.3       1 GSP538      0.0000 
     13 O5'         8.9840    2.7170   43.2440 O.3       1 GSP538      0.0000 
     14 C5'         9.7030    3.8850   43.5930 C.3       1 GSP538      0.0000 
     15 C4'         9.9070    4.7410   42.3510 C.3       1 GSP538      0.0000 
     16 O4'        10.7050    4.0540   41.3850 O.3       1 GSP538      0.0000 
     17 C3'         8.5750    5.0370   41.6870 C.3       1 GSP538      0.0000 
     18 O3'         8.6520    6.3390   41.1380 O.3       1 GSP538      0.0000 
     19 C2'         8.4940    3.9820   40.5990 C.3       1 GSP538      0.0000 
     20 O2'         7.7620    4.3770   39.4660 O.3       1 GSP538      0.0000 
     21 C1'         9.9470    3.8080   40.2090 C.3       1 GSP538      0.0000 
     22 N9         10.1700    2.4430   39.6980 N.pl3     1 GSP538      0.0000 
     23 C8          9.7550    1.2780   40.2950 C.2       1 GSP538      0.0000 
     24 N7         10.1510    0.2400   39.5270 N.2       1 GSP538      0.0000 
     25 C5         10.8080    0.7270   38.4440 C.2       1 GSP538      0.0000 
     26 C6         11.4200    0.0930   37.3620 C.2       1 GSP538      0.0000 
     27 O6         11.4270   -1.1400   37.2400 O.2       1 GSP538      0.0000 
     28 N1         12.0310    0.8660   36.4050 N.am      1 GSP538      0.0000 
     29 C2         12.0260    2.2510   36.5040 C.2       1 GSP538      0.0000 
     30 N2         12.6250    2.9620   35.5530 N.pl3     1 GSP538      0.0000 
     31 N3         11.4170    2.8820   37.5760 N.2       1 GSP538      0.0000 
     32 C4         10.8270    2.1170   38.5410 C.2       1 GSP538      0.0000 
     33 H          10.6926    3.6518   44.0040 H         1 GSP538      0.0000 
     34 H           9.1677    4.4923   44.3328 H         1 GSP538      0.0000 
     35 H          10.3559    5.6727   42.6343 H         1 GSP538      0.0000 
     36 H           7.8119    4.8936   42.3795 H         1 GSP538      0.0000 
     37 H           8.1710    3.0681   41.0362 H         1 GSP538      0.0000 
     38 H          10.1691    4.5331   39.4470 H         1 GSP538      0.0000 
     39 H           9.2659    1.2243   41.1204 H         1 GSP538      0.0000 
     40 H          12.5022    0.4174   35.5986 H         1 GSP538      0.0000 
     41 H          12.5992    3.9555   35.6641 H         1 GSP538      0.0000 
     42 H          13.0472    2.4390   34.8126 H         1 GSP538      0.0000 
     43 H           9.0436    0.4106   50.3437 H         1 GSP538      0.0000 
     44 H           8.4248    6.2257   40.1707 H         1 GSP538      0.0000 
     45 H           8.1952    3.9024   38.6998 H         1 GSP538      0.0000 
@<TRIPOS>BOND
     1    2    1 1    
     2    3    1 2    
     3    4    1 1    
     4    5    1 1    
     5    6    2 1    
     6   43    5 1    
     7    7    6 ar   
     8    8    6 ar   
     9   12    6 1    
    10   10    9 ar   
    11   11    9 ar   
    12   12    9 1    
    13   13    9 1    
    14   14   13 1    
    15   15   14 1    
    16   33   14 1    
    17   34   14 1    
    18   16   15 1    
    19   17   15 1    
    20   35   15 1    
    21   21   16 1    
    22   18   17 1    
    23   19   17 1    
    24   36   17 1    
    25   44   18 1    
    26   20   19 1    
    27   21   19 1    
    28   37   19 1    
    29   45   20 1    
    30   22   21 1    
    31   38   21 1    
    32   23   22 1    
    33   32   22 1    
    34   24   23 2    
    35   39   23 1    
    36   25   24 1    
    37   26   25 1    
    38   32   25 2    
    39   27   26 2    
    40   28   26 am   
    41   29   28 1    
    42   40   28 1    
    43   30   29 1    
    44   31   29 2    
    45   41   30 1    
    46   42   30 1    
    47   32   31 1    
@<TRIPOS>SUBSTRUCTURE
     1 GSP538      1 GROUP   
@<TRIPOS>SET

