#    Name: 2g7y_MO9_1_INTS_M
#    Modification time : Tue Mar 25 13:39:44 2014

@<TRIPOS>MOLECULE
2g7y_MO9_1_INTS_M
   43     0     9     0     0
SMALL
NO_CHARGES


@<TRIPOS>ATOM
      1 CA         32.0555   23.1190   21.6735 C.3       3 GLC5        0.0000 
      2 CA         32.1440   22.0850   23.5300 C.3       9 GLL5        0.0000 
      3 CA         31.9670   24.1530   19.8170 C.3       6 GLP5        0.0000 
      4 CA         34.9775   19.3825   23.8410 C.3       3 GLC5        0.0000 
      5 CA         33.9580   20.4880   25.3160 C.3       9 GLL5        0.0000 
      6 CA         35.9970   18.2770   22.3660 C.3       6 GLP5        0.0000 
      7 CA         33.5830   19.5840   27.2170 C.3       3 GLC5        0.0000 
      8 CA         33.2080   18.6800   29.1180 C.3       6 GLP5        0.0000 
      9 CA         33.3410   18.4935   25.6820 C.3       3 GLC5        0.0000 
     10 CA         32.7240   16.4990   26.0480 C.3       6 GLP5        0.0000 
     11 O          35.6170   21.0090   28.2465 O.2       1 ALC1        0.0000 
     12 O          36.7550   20.8960   27.2090 O.2       7 ALL1        0.0000 
     13 O          34.4790   21.1220   29.2840 O.2       4 ALP1        0.0000 
     14 N          37.2705   21.3790   23.6610 N.am      2 SEC2        0.0000 
     15 N          36.8870   20.7110   24.9490 N.am      8 SEL2        0.0000 
     16 N          37.6540   22.0470   22.3730 N.am      5 SEP2        0.0000 
     17 CA         37.3505   18.8290   27.4915 C.3       3 GLC5        0.0000 
     18 CA         38.0750   20.3580   27.6000 C.3       9 GLL5        0.0000 
     19 CA         36.6260   17.3000   27.3830 C.3       6 GLP5        0.0000 
     20 CA         39.2150   27.3205   22.8295 C.3       3 GLC5        0.0000 
     21 CA         37.5260   26.7130   23.7160 C.3       9 GLL5        0.0000 
     22 CA         40.9040   27.9280   21.9430 C.3       6 GLP5        0.0000 
     23 CA         38.3770   24.6550   23.9235 C.3       3 GLC5        0.0000 
     24 CA         39.2280   22.5970   24.1310 C.3       6 GLP5        0.0000 
     25 CA         35.2460   25.6515   20.7080 C.3       3 GLC5        0.0000 
     26 CA         36.3750   25.4530   22.0550 C.3       9 GLL5        0.0000 
     27 CA         34.1170   25.8500   19.3610 C.3       6 GLP5        0.0000 
     28 CA         34.1550   25.6305   21.5790 C.3       3 GLC5        0.0000 
     29 CA         35.2890   24.9550   23.0670 C.3       9 GLL5        0.0000 
     30 CA         33.0210   26.3060   20.0910 C.3       6 GLP5        0.0000 
     31 CA         29.4895   23.0888   25.4055 C.3       3 GLC5        0.0000 
     32 CA         30.8580   22.9270   23.3800 C.3       9 GLL5        0.0000 
     33 CA         28.2460   22.6900   27.0090 C.3       6 GLP5        0.0000 
     34 CA         27.0440   22.5312   22.6208 C.3       3 GLC5        0.0000 
     35 CA         28.4820   24.4360   23.0530 C.3       9 GLL5        0.0000 
     36 CA         25.4810   21.1820   22.6050 C.3       6 GLP5        0.0000 
     37 CA         28.5960   23.6532   25.2800 C.3       3 GLC5        0.0000 
     38 CA         40.1220   19.8223   27.4888 C.3       3 GLC5        0.0000 
     39 CA         41.6670   18.7490   27.3810 C.3       6 GLP5        0.0000 
     40 CA         38.9025   21.7462   25.8638 C.3       3 GLC5        0.0000 
     41 CA         39.0790   21.4330   27.5930 C.3       9 GLL5        0.0000 
     42 CA         36.4980   23.5935   21.7825 C.3       3 GLC5        0.0000 
     43 CA         37.1640   21.9830   21.0040 C.3       6 GLP5        0.0000 
@<TRIPOS>BOND
@<TRIPOS>SUBSTRUCTURE
     1 ALC1       11 GROUP        1 X    ALC  0     ROOT ALC X 1
     2 SEC2       14 GROUP        1 X    SEC  0     **** SEC X 2
     3 GLC5        1 GROUP        1 X    GLC  0     **** GLC X 6
     4 ALP1       13 GROUP        1 Y    ALP  0     ROOT ALP Y 8
     5 SEP2       16 GROUP        1 Y    SEP  0     **** SEP Y 9
     6 GLP5        3 GROUP        1 Y    GLP  0     **** GLP Y 13
     7 ALL1       12 GROUP        1 Z    ALL  0     ROOT ALL Z 15
     8 SEL2       15 GROUP        1 Z    SEL  0     **** SEL Z 16
     9 GLL5        2 GROUP        1 Z    GLL  0     **** GLL Z 20
@<TRIPOS>SET

