#    Name: 2g7y_MO9_1_ligand
#    Modification time : Tue Mar 25 13:39:44 2014

@<TRIPOS>MOLECULE
2g7y_MO9_1_ligand
   52    53     1     0     0
SMALL
NO_CHARGES


@<TRIPOS>ATOM
      1 C1         30.6080   24.0480   24.2240 C.ar      1 MO9999      0.0000 
      2 C2         30.8580   22.9270   23.3800 C.ar      1 MO9999      0.0000 
      3 C3         29.9160   22.5740   22.3830 C.ar      1 MO9999      0.0000 
      4 C4         28.7320   23.3250   22.2200 C.ar      1 MO9999      0.0000 
      5 C5         28.4820   24.4360   23.0530 C.ar      1 MO9999      0.0000 
      6 C6         29.4100   24.7970   24.0490 C.ar      1 MO9999      0.0000 
      7 C7         32.1440   22.0850   23.5300 C.3       1 MO9999      0.0000 
      8 C9         33.9580   20.4880   25.3160 C.3       1 MO9999      0.0000 
      9 C10        34.9210   21.6130   25.8110 C.3       1 MO9999      0.0000 
     10 C12        36.2490   21.0370   25.9330 C.2       1 MO9999      0.0000 
     11 S8         32.2830   21.1830   25.1190 S.o2      1 MO9999      0.0000 
     12 O11        34.9560   22.7600   24.9310 O.3       1 MO9999      0.0000 
     13 O13        31.3900   20.0870   25.0340 O.2       1 MO9999      0.0000 
     14 O14        31.9060   21.9950   26.2630 O.2       1 MO9999      0.0000 
     15 N15        36.7550   20.8960   27.2090 N.am      1 MO9999      0.0000 
     16 O16        36.8870   20.7110   24.9490 O.2       1 MO9999      0.0000 
     17 C17        38.0750   20.3580   27.6000 C.3       1 MO9999      0.0000 
     18 C18        39.0790   21.4330   27.5930 C.1       1 MO9999      0.0000 
     19 C19        35.5990   23.9140   25.3590 C.2       1 MO9999      0.0000 
     20 N20        35.8070   24.9580   24.4720 N.am      1 MO9999      0.0000 
     21 O21        35.9780   24.0290   26.5240 O.2       1 MO9999      0.0000 
     22 C22        36.5680   26.2010   24.8540 C.3       1 MO9999      0.0000 
     23 C23        37.5260   26.7130   23.7160 C.3       1 MO9999      0.0000 
     24 O24        36.8730   26.7540   22.4250 O.3       1 MO9999      0.0000 
     25 C25        36.3750   25.4530   22.0550 C.3       1 MO9999      0.0000 
     26 C26        35.2890   24.9550   23.0670 C.3       1 MO9999      0.0000 
     27 O27        31.5270   24.3780   25.2040 O.3       1 MO9999      0.0000 
     28 C28        32.0720   25.6860   25.4570 C.3       1 MO9999      0.0000 
     29 F29        33.0890   25.5870   26.3850 F         1 MO9999      0.0000 
     30 F30        31.1440   26.4240   25.9850 F         1 MO9999      0.0000 
     31 N31        39.8620   22.2880   27.5770 N.1       1 MO9999      0.0000 
     32 H          30.0969   21.7686   21.7777 H         1 MO9999      0.0000 
     33 H          28.0570   23.0642   21.4996 H         1 MO9999      0.0000 
     34 H          27.6240   24.9801   22.9323 H         1 MO9999      0.0000 
     35 H          29.2282   25.6015   24.6540 H         1 MO9999      0.0000 
     36 H          33.0436   22.6785   23.5283 H         1 MO9999      0.0000 
     37 H          32.2156   21.2860   22.8103 H         1 MO9999      0.0000 
     38 H          33.8112   19.7277   26.0273 H         1 MO9999      0.0000 
     39 H          34.1835   20.1485   24.3467 H         1 MO9999      0.0000 
     40 H          34.5701   21.9022   26.8038 H         1 MO9999      0.0000 
     41 H          36.1480   21.2018   28.0374 H         1 MO9999      0.0000 
     42 H          38.3714   19.5652   26.9018 H         1 MO9999      0.0000 
     43 H          38.0101   19.9138   28.6012 H         1 MO9999      0.0000 
     44 H          37.1807   26.0124   25.7434 H         1 MO9999      0.0000 
     45 H          35.8718   27.0138   25.0922 H         1 MO9999      0.0000 
     46 H          38.3979   26.0420   23.7103 H         1 MO9999      0.0000 
     47 H          37.8811   27.7076   24.0246 H         1 MO9999      0.0000 
     48 H          37.1708   24.6984   22.0438 H         1 MO9999      0.0000 
     49 H          35.9072   25.4610   21.0631 H         1 MO9999      0.0000 
     50 H          34.4229   25.6123   22.9772 H         1 MO9999      0.0000 
     51 H          34.9936   23.9475   22.7703 H         1 MO9999      0.0000 
     52 H          32.4525   26.0893   24.5241 H         1 MO9999      0.0000 
@<TRIPOS>BOND
     1    2    1 ar   
     2    6    1 ar   
     3   27    1 1    
     4    3    2 ar   
     5    7    2 1    
     6    4    3 ar   
     7   32    3 1    
     8    5    4 ar   
     9   33    4 1    
    10    6    5 ar   
    11   34    5 1    
    12   35    6 1    
    13   11    7 1    
    14   36    7 1    
    15   37    7 1    
    16    9    8 1    
    17   11    8 1    
    18   38    8 1    
    19   39    8 1    
    20   10    9 1    
    21   12    9 1    
    22   40    9 1    
    23   15   10 am   
    24   16   10 2    
    25   13   11 2    
    26   14   11 2    
    27   19   12 1    
    28   17   15 1    
    29   41   15 1    
    30   18   17 1    
    31   42   17 1    
    32   43   17 1    
    33   31   18 3    
    34   20   19 am   
    35   21   19 2    
    36   22   20 1    
    37   26   20 1    
    38   23   22 1    
    39   44   22 1    
    40   45   22 1    
    41   24   23 1    
    42   46   23 1    
    43   47   23 1    
    44   25   24 1    
    45   26   25 1    
    46   48   25 1    
    47   49   25 1    
    48   50   26 1    
    49   51   26 1    
    50   28   27 1    
    51   29   28 1    
    52   30   28 1    
    53   52   28 1    
@<TRIPOS>SUBSTRUCTURE
     1 MO9999      1 GROUP   
@<TRIPOS>SET

