#    Name: 3cow_52H_1_INTS_M
#    Modification time : Mon Mar 24 22:06:02 2014

@<TRIPOS>MOLECULE
3cow_52H_1_INTS_M
   90     0     9     0     0
SMALL
NO_CHARGES


@<TRIPOS>ATOM
      1 CA         11.8190    9.8770   -2.2775 C.3       3 GLC5        0.0000 
      2 CA         13.8990    9.7710   -2.5810 C.3       9 GLL5        0.0000 
      3 CA          9.7390    9.9830   -1.9740 C.3       6 GLP5        0.0000 
      4 CA         12.7335    8.0810   -2.0720 C.3       3 GLC5        0.0000 
      5 CA         11.5680    6.3910   -1.5630 C.3       6 GLP5        0.0000 
      6 CA         15.3240    8.5615   -6.2145 C.3       3 GLC5        0.0000 
      7 CA         14.8260   10.1480   -4.7550 C.3       9 GLL5        0.0000 
      8 CA         15.8220    6.9750   -7.6740 C.3       6 GLP5        0.0000 
      9 CA         13.9590   10.9115   -6.5535 C.3       3 GLC5        0.0000 
     10 CA         13.0920   11.6750   -8.3520 C.3       6 GLP5        0.0000 
     11 N          13.6045    9.4105   -6.6795 N.am      2 SEC2        0.0000 
     12 N          13.6950    9.5980   -5.2450 N.am      8 SEL2        0.0000 
     13 N          13.5140    9.2230   -8.1140 N.am      5 SEP2        0.0000 
     14 CA         15.0540    6.5410    9.1010 C.3       3 GLC5        0.0000 
     15 CA         14.7240    8.7300    9.1040 C.3       9 GLL5        0.0000 
     16 CA         15.3840    4.3520    9.0980 C.3       6 GLP5        0.0000 
     17 CA         14.5165    8.5295   10.8890 C.3       3 GLC5        0.0000 
     18 CA         14.3090    8.3290   12.6740 C.3       6 GLP5        0.0000 
     19 CA         13.1545    7.4765    9.5755 C.3       3 GLC5        0.0000 
     20 CA         11.5850    6.2230   10.0470 C.3       6 GLP5        0.0000 
     21 CA         11.8660   10.3375    7.5630 C.3       3 GLC5        0.0000 
     22 CA         13.7970   10.4470    7.6040 C.3       9 GLL5        0.0000 
     23 CA          9.9350   10.2280    7.5220 C.3       6 GLP5        0.0000 
     24 CA         13.2810   12.0080    6.6640 C.3       3 GLC5        0.0000 
     25 CA         12.7650   13.5690    5.7240 C.3       6 GLP5        0.0000 
     26 CA         11.8475    9.1200    7.2520 C.3       3 GLC5        0.0000 
     27 CA         13.7600    8.0120    6.9820 C.3       9 GLL5        0.0000 
     28 CA         12.6725    7.1175    8.5145 C.3       3 GLC5        0.0000 
     29 CA         12.4190    6.9460    6.4050 C.3       3 GLC5        0.0000 
     30 CA         11.0780    5.8800    5.8280 C.3       6 GLP5        0.0000 
     31 N          17.7855    8.1885    7.9460 N.am      2 SEC2        0.0000 
     32 N          16.6720    7.9460    7.0220 N.am      8 SEL2        0.0000 
     33 N          18.8990    8.4310    8.8700 N.am      5 SEP2        0.0000 
     34 O          16.4030    6.7045    6.4665 O.2       1 ALC1        0.0000 
     35 O          16.6720    7.9460    7.0220 O.2       7 ALL1        0.0000 
     36 O          16.1340    5.4630    5.9110 O.2       4 ALP1        0.0000 
     37 N          15.4390    7.2845    4.2930 N.am      2 SEC2        0.0000 
     38 N          15.9820    8.6990    4.5240 N.am      8 SEL2        0.0000 
     39 N          14.8960    5.8700    4.0620 N.am      5 SEP2        0.0000 
     40 N          15.3745   13.6220    5.0235 N.am      2 SEC2        0.0000 
     41 N          15.7200   12.9560    3.7950 N.am      8 SEL2        0.0000 
     42 N          15.0290   14.2880    6.2520 N.am      5 SEP2        0.0000 
     43 N          15.5500   13.5175    2.3270 N.am      2 SEC2        0.0000 
     44 N          15.3800   14.0790    0.8590 N.am      5 SEP2        0.0000 
     45 CA         13.2445   12.3490    4.3550 C.3       3 GLC5        0.0000 
     46 CA         13.7240   11.1290    2.9860 C.3       9 GLL5        0.0000 
     47 N          11.6465    7.2025    0.9305 N.am      2 SEC2        0.0000 
     48 N          12.2350    7.9230    2.0590 N.am      8 SEL2        0.0000 
     49 N          11.0580    6.4820   -0.1980 N.am      5 SEP2        0.0000 
     50 O          11.4160    8.3995    2.9940 O.2       1 ALC1        0.0000 
     51 O          12.2350    7.9230    2.0590 O.2       7 ALL1        0.0000 
     52 O          10.5970    8.8760    3.9290 O.2       4 ALP1        0.0000 
     53 N          12.6410    6.9170    0.0015 N.am      2 SEC2        0.0000 
     54 N          14.2240    7.3520    0.2010 N.am      8 SEL2        0.0000 
     55 N          13.7985    5.9815    1.0300 N.am      2 SEC2        0.0000 
     56 N          13.3730    4.6110    1.8590 N.am      5 SEP2        0.0000 
     57 O          15.5515    7.2425    0.3325 O.2       1 ALC1        0.0000 
     58 O          14.2240    7.3520    0.2010 O.2       7 ALL1        0.0000 
     59 O          16.8790    7.1330    0.4640 O.2       4 ALP1        0.0000 
     60 CA         13.6975   11.7810    0.2800 C.3       3 GLC5        0.0000 
     61 CA         13.3770    9.6020   -0.1460 C.3       9 GLL5        0.0000 
     62 CA         14.0180   13.9600    0.7060 C.3       6 GLP5        0.0000 
     63 CA         11.4915    9.7840    0.2085 C.3       3 GLC5        0.0000 
     64 CA          9.6060    9.9660    0.5630 C.3       6 GLP5        0.0000 
     65 CA         12.9720   11.1815   -4.7640 C.3       3 GLC5        0.0000 
     66 CA         12.7290    9.1120   -4.4720 C.3       9 GLL5        0.0000 
     67 CA         13.2150   13.2510   -5.0560 C.3       6 GLP5        0.0000 
     68 CA         11.2340    9.5475   -3.2230 C.3       3 GLC5        0.0000 
     69 CA         12.1485    7.7515   -3.0175 C.3       3 GLC5        0.0000 
     70 CA         14.4830    8.0085   -3.8930 C.3       3 GLC5        0.0000 
     71 CA         16.2370    6.9050   -3.3140 C.3       6 GLP5        0.0000 
     72 CA         13.0360    7.9915   -5.9870 C.3       3 GLC5        0.0000 
     73 CA         13.3430    6.8710   -7.5020 C.3       6 GLP5        0.0000 
     74 CA         12.2025   10.2865   -6.1750 C.3       3 GLC5        0.0000 
     75 CA         11.6760   11.4610   -7.8780 C.3       6 GLP5        0.0000 
     76 O          15.8870   10.5460   -7.1170 O.2       1 ALC1        0.0000 
     77 O          15.7960   10.6090   -5.5710 O.2       7 ALL1        0.0000 
     78 O          15.9780   10.4830   -8.6630 O.2       4 ALP1        0.0000 
     79 O          17.1545   10.9700   -5.2055 O.2       1 ALC1        0.0000 
     80 O          18.5130   11.3310   -4.8400 O.2       4 ALP1        0.0000 
     81 CA         13.9194   11.6686   -4.4606 C.3       3 GLC5        0.0000 
     82 CA         14.9440   10.2780   -3.3700 C.3       9 GLL5        0.0000 
     83 CA         15.4304    8.4956   -3.5896 C.3       3 GLC5        0.0000 
     84 CA         16.0171   11.1471    7.5708 C.3       3 GLC5        0.0000 
     85 CA         15.9190    9.1990    6.9080 C.3       9 GLL5        0.0000 
     86 CA         16.9900   12.8040    7.8790 C.3       6 GLP5        0.0000 
     87 CA         13.6547   12.3200    1.6150 C.3       3 GLC5        0.0000 
     88 CA         11.3570    9.7377    1.3177 C.3       3 GLC5        0.0000 
     89 CA         12.8590   10.2310    2.0620 C.3       9 GLL5        0.0000 
     90 CA         12.6700    7.7665   -0.6225 C.3       3 GLC5        0.0000 
@<TRIPOS>BOND
@<TRIPOS>SUBSTRUCTURE
     1 ALC1       34 GROUP        1 X    ALC  0     ROOT ALC X 1
     2 SEC2       11 GROUP        1 X    SEC  0     **** SEC X 2
     3 GLC5        1 GROUP        1 X    GLC  0     **** GLC X 6
     4 ALP1       36 GROUP        1 Y    ALP  0     ROOT ALP Y 8
     5 SEP2       13 GROUP        1 Y    SEP  0     **** SEP Y 9
     6 GLP5        3 GROUP        1 Y    GLP  0     **** GLP Y 13
     7 ALL1       35 GROUP        1 Z    ALL  0     ROOT ALL Z 15
     8 SEL2       12 GROUP        1 Z    SEL  0     **** SEL Z 16
     9 GLL5        2 GROUP        1 Z    GLL  0     **** GLL Z 20
@<TRIPOS>SET

