#    Name: 3cow_52H_1_ligand
#    Modification time : Mon Mar 24 22:06:02 2014

@<TRIPOS>MOLECULE
3cow_52H_1_ligand
   55    57     1     0     0
SMALL
NO_CHARGES


@<TRIPOS>ATOM
      1 C4         13.8990    9.7710   -2.5810 C.ar      1 52H401      0.0000 
      2 C5         14.9440   10.2780   -3.3700 C.ar      1 52H401      0.0000 
      3 C6         14.8260   10.1480   -4.7550 C.ar      1 52H401      0.0000 
      4 C8         15.4340   10.6060   -1.2940 C.2       1 52H401      0.0000 
      5 N1         13.6950    9.5980   -5.2450 N.ar      1 52H401      0.0000 
      6 N3         12.8020    9.2040   -3.1430 N.ar      1 52H401      0.0000 
      7 CAA        14.7240    8.7300    9.1040 C.3       1 52H401      0.0000 
      8 CBB        14.5420    9.1160    7.6300 C.3       1 52H401      0.0000 
      9 CAB        13.7970   10.4470    7.6040 C.3       1 52H401      0.0000 
     10 CAC        13.7600    8.0120    6.9820 C.3       1 52H401      0.0000 
     11 CAX        15.9190    9.1990    6.9080 C.3       1 52H401      0.0000 
     12 OAH        16.6720    7.9460    7.0220 O.3       1 52H401      0.0000 
     13 CAT        15.9110    9.5690    5.3990 C.2       1 52H401      0.0000 
     14 OAE        15.9820    8.6990    4.5240 O.2       1 52H401      0.0000 
     15 NAQ        15.9210   10.8670    5.1770 N.pl3     1 52H401      0.0000 
     16 SBE        16.0610   11.5310    3.6950 S.o2      1 52H401      0.0000 
     17 OAF        17.3990   11.2600    3.1300 O.2       1 52H401      0.0000 
     18 OAG        15.7200   12.9560    3.7950 O.2       1 52H401      0.0000 
     19 O5'        15.1560   10.9450    2.7170 O.3       1 52H401      0.0000 
     20 C5'        13.7240   11.1290    2.9860 C.3       1 52H401      0.0000 
     21 C4'        12.8590   10.2310    2.0620 C.3       1 52H401      0.0000 
     22 O4'        13.0500   10.7160    0.7080 O.3       1 52H401      0.0000 
     23 C3'        13.3570    8.7880    2.0830 C.3       1 52H401      0.0000 
     24 O3'        12.2350    7.9230    2.0590 O.3       1 52H401      0.0000 
     25 C2'        14.1670    8.6820    0.7820 C.3       1 52H401      0.0000 
     26 O2'        14.2240    7.3520    0.2010 O.3       1 52H401      0.0000 
     27 C1'        13.3770    9.6020   -0.1460 C.3       1 52H401      0.0000 
     28 N9         14.2200    9.9950   -1.3100 N.pl3     1 52H401      0.0000 
     29 N7         15.8830   10.7930   -2.5550 N.2       1 52H401      0.0000 
     30 C2         12.7290    9.1120   -4.4720 C.ar      1 52H401      0.0000 
     31 N6         15.7960   10.6090   -5.5710 N.pl3     1 52H401      0.0000 
     32 H          15.9104   10.8705   -0.4845 H         1 52H401      0.0000 
     33 H          16.5162    9.9887    7.4168 H         1 52H401      0.0000 
     34 H          15.8431   11.6089    5.8981 H         1 52H401      0.0000 
     35 H          13.4230   12.1680    2.8169 H         1 52H401      0.0000 
     36 H          13.4826   10.8703    4.0221 H         1 52H401      0.0000 
     37 H          11.8582   10.2792    2.3573 H         1 52H401      0.0000 
     38 H          13.9967    8.6638    2.8972 H         1 52H401      0.0000 
     39 H          15.1158    9.1244    0.9360 H         1 52H401      0.0000 
     40 H          12.5051    9.0821   -0.4513 H         1 52H401      0.0000 
     41 H          11.8922    8.6467   -4.9133 H         1 52H401      0.0000 
     42 H          16.5846   11.0300   -5.1229 H         1 52H401      0.0000 
     43 H          15.6402   10.4888   -6.5515 H         1 52H401      0.0000 
     44 H          15.2100    7.8617    9.2033 H         1 52H401      0.0000 
     45 H          15.2477    9.4181    9.6062 H         1 52H401      0.0000 
     46 H          13.8464    8.6299    9.5728 H         1 52H401      0.0000 
     47 H          14.3060   11.1668    8.0760 H         1 52H401      0.0000 
     48 H          13.6377   10.7652    6.6695 H         1 52H401      0.0000 
     49 H          12.9032   10.3810    8.0476 H         1 52H401      0.0000 
     50 H          13.5981    8.1916    6.0117 H         1 52H401      0.0000 
     51 H          14.2362    7.1347    7.0422 H         1 52H401      0.0000 
     52 H          12.8649    7.8897    7.4108 H         1 52H401      0.0000 
     53 H          16.5131    7.4691    6.1575 H         1 52H401      0.0000 
     54 H          11.6244    8.2715    2.7702 H         1 52H401      0.0000 
     55 H          15.1913    7.0998    0.2266 H         1 52H401      0.0000 
@<TRIPOS>BOND
     1    2    1 ar   
     2    6    1 ar   
     3   28    1 1    
     4    3    2 ar   
     5   29    2 1    
     6    5    3 ar   
     7   31    3 1    
     8   28    4 1    
     9   29    4 2    
    10   32    4 1    
    11   30    5 ar   
    12   30    6 ar   
    13    8    7 1    
    14   44    7 1    
    15   45    7 1    
    16   46    7 1    
    17    9    8 1    
    18   10    8 1    
    19   11    8 1    
    20   47    9 1    
    21   48    9 1    
    22   49    9 1    
    23   50   10 1    
    24   51   10 1    
    25   52   10 1    
    26   12   11 1    
    27   13   11 1    
    28   33   11 1    
    29   53   12 1    
    30   14   13 2    
    31   15   13 am   
    32   16   15 1    
    33   34   15 1    
    34   17   16 2    
    35   18   16 2    
    36   19   16 1    
    37   20   19 1    
    38   21   20 1    
    39   35   20 1    
    40   36   20 1    
    41   22   21 1    
    42   23   21 1    
    43   37   21 1    
    44   27   22 1    
    45   24   23 1    
    46   25   23 1    
    47   38   23 1    
    48   54   24 1    
    49   26   25 1    
    50   27   25 1    
    51   39   25 1    
    52   55   26 1    
    53   28   27 1    
    54   40   27 1    
    55   41   30 1    
    56   42   31 1    
    57   43   31 1    
@<TRIPOS>SUBSTRUCTURE
     1 52H401      1 GROUP   
@<TRIPOS>SET

