#    Name: 4hmx_FMN_2_INTS_M
#    Modification time : Tue Mar 25 01:26:19 2014

@<TRIPOS>MOLECULE
4hmx_FMN_2_INTS_M
   77     0    12     0     0
SMALL
NO_CHARGES


@<TRIPOS>ATOM
      1 N         -31.2090   14.8280    9.6115 N.am      2 SEC2        0.0000 
      2 N         -31.6970   15.9470    8.9630 N.am     10 SEL2        0.0000 
      3 N         -30.7210   13.7090   10.2600 N.am      6 SEP2        0.0000 
      4 N         -32.9470   15.2615    8.3420 N.am      2 SEC2        0.0000 
      5 N         -34.1970   14.5760    7.7210 N.am      6 SEP2        0.0000 
      6 O         -30.3630   17.7025   10.4400 O.2       1 ALC1        0.0000 
      7 O         -30.8190   18.0110    9.1300 O.2       9 ALL1        0.0000 
      8 O         -29.9070   17.3940   11.7500 O.2       5 ALP1        0.0000 
      9 N         -29.0635   21.2040    6.8155 N.am      2 SEC2        0.0000 
     10 N         -30.4980   20.5990    6.6220 N.am     10 SEL2        0.0000 
     11 N         -27.6290   21.8090    7.0090 N.am      6 SEP2        0.0000 
     12 CA        -29.5820   23.6065    0.7405 C.3       4 GLC5        0.0000 
     13 CA        -30.1800   23.3260    2.5610 C.3      12 GLL5        0.0000 
     14 CA        -28.9840   23.8870   -1.0800 C.3       8 GLP5        0.0000 
     15 CA        -29.2675   20.3915    1.3880 C.3       4 GLC5        0.0000 
     16 CA        -31.1300   21.1040    0.9770 C.3      12 GLL5        0.0000 
     17 CA        -27.4050   19.6790    1.7990 C.3       8 GLP5        0.0000 
     18 CA        -30.2870   21.9875   -0.4625 C.3       4 GLC5        0.0000 
     19 CA        -29.4440   22.8710   -1.9020 C.3       8 GLP5        0.0000 
     20 CA        -32.6990   20.7360    0.5715 C.3       4 GLC5        0.0000 
     21 CA        -34.2680   20.3680    0.1660 C.3       8 GLP5        0.0000 
     22 CA        -29.3565   19.7135    2.4345 C.3       4 GLC5        0.0000 
     23 CA        -31.3080   19.7480    3.0700 C.3      12 GLL5        0.0000 
     24 N         -30.4980   17.0540    1.5740 N.am      2 SEC2        0.0000 
     25 N         -30.2010   16.8070    2.9680 N.am     10 SEL2        0.0000 
     26 N         -30.7950   17.3010    0.1800 N.am      6 SEP2        0.0000 
     27 O         -29.3220   17.4830    3.6430 O.2       1 ALC1        0.0000 
     28 O         -30.2010   16.8070    2.9680 O.2       9 ALL1        0.0000 
     29 O         -28.4430   18.1590    4.3180 O.2       5 ALP1        0.0000 
     30 O         -31.8025   14.3025    1.6500 O.2       1 ALC1        0.0000 
     31 O         -32.4270   14.9270    2.6720 O.2       9 ALL1        0.0000 
     32 O         -31.1780   13.6780    0.6280 O.2       5 ALP1        0.0000 
     33 N         -30.8500   13.5625    6.9410 N.am      2 SEC2        0.0000 
     34 N         -31.4050   14.5770    6.1360 N.am     10 SEL2        0.0000 
     35 N         -30.2950   12.5480    7.7460 N.am      6 SEP2        0.0000 
     36 NZ        -30.3600   11.4155    6.9505 N.4       3 LYC4        0.0000 
     37 NZ        -30.4250   10.2830    6.1550 N.4      11 LYL4        0.0000 
     38 NZ        -30.2950   12.5480    7.7460 N.4       7 LYP4        0.0000 
     39 N         -32.0475    9.9360    5.7300 N.am      2 SEC2        0.0000 
     40 N         -30.4250   10.2830    6.1550 N.am     10 SEL2        0.0000 
     41 N         -33.6700    9.5890    5.3050 N.am      6 SEP2        0.0000 
     42 N         -29.5425    9.3775    6.7740 N.am      2 SEC2        0.0000 
     43 N         -28.6600    8.4720    7.3930 N.am      6 SEP2        0.0000 
     44 N         -30.3600   11.4155    6.9505 N.am      2 SEC2        0.0000 
     45 NZ        -32.3665   10.4510    2.9535 N.4       3 LYC4        0.0000 
     46 NZ        -31.5630    9.8920    4.0180 N.4      11 LYL4        0.0000 
     47 NZ        -34.3750   11.5230    2.0950 N.4       7 LYP4        0.0000 
     48 N         -32.6165    9.7405    4.6615 N.am      2 SEC2        0.0000 
     49 N         -31.5630    9.8920    4.0180 N.am     10 SEL2        0.0000 
     50 N         -32.3665   10.4510    2.9535 N.am      2 SEC2        0.0000 
     51 N         -33.1700   11.0100    1.8890 N.am      6 SEP2        0.0000 
     52 NZ        -28.0080   11.3395    4.2400 N.4       3 LYC4        0.0000 
     53 NZ        -29.1370   10.5490    3.9900 N.4      11 LYL4        0.0000 
     54 NZ        -26.0210   11.1280    4.6320 N.4       7 LYP4        0.0000 
     55 N         -28.0080   11.3395    4.2400 N.am      2 SEC2        0.0000 
     56 N         -29.1370   10.5490    3.9900 N.am     10 SEL2        0.0000 
     57 N         -26.8790   12.1300    4.4900 N.am      6 SEP2        0.0000 
     58 N         -27.7945   10.2155    4.2350 N.am      2 SEC2        0.0000 
     59 N         -26.4520    9.8820    4.4800 N.am      6 SEP2        0.0000 
     60 CA        -28.8623   21.1833    3.6582 C.3       4 GLC5        0.0000 
     61 CA        -30.6720   20.6780    5.2270 C.3      12 GLL5        0.0000 
     62 CA        -27.1900   21.0900    2.4210 C.3       8 GLP5        0.0000 
     63 CA        -28.7672   20.4147    5.6008 C.3       4 GLC5        0.0000 
     64 CA        -30.3970   21.8750    4.5640 C.3      12 GLL5        0.0000 
     65 CA        -27.0000   19.5530    6.3060 C.3       8 GLP5        0.0000 
     66 CA        -29.5378   22.6788    6.0533 C.3       4 GLC5        0.0000 
     67 CA        -28.5410   24.0810    7.2110 C.3       8 GLP5        0.0000 
     68 CA        -28.9378   21.4496    2.5475 C.3       4 GLC5        0.0000 
     69 CA        -30.5220   22.0030    3.2050 C.3      12 GLL5        0.0000 
     70 CA        -29.6943   14.6374    4.2809 C.3       4 GLC5        0.0000 
     71 CA        -30.9640   16.2730    4.0660 C.3      12 GLL5        0.0000 
     72 CA        -27.7150   14.3960    4.1270 C.3       8 GLP5        0.0000 
     73 CA        -30.5568   13.2667    6.1132 C.3       4 GLC5        0.0000 
     74 CA        -32.1270   14.1800    4.9610 C.3      12 GLL5        0.0000 
     75 CA        -28.9930   13.1200    7.3690 C.3       8 GLP5        0.0000 
     76 CA        -33.5538   12.8568    6.0947 C.3       4 GLC5        0.0000 
     77 CA        -34.9870   12.3000    7.3320 C.3       8 GLP5        0.0000 
@<TRIPOS>BOND
@<TRIPOS>SUBSTRUCTURE
     1 ALC1        6 GROUP        1 X    ALC  0     ROOT ALC X 1
     2 SEC2        1 GROUP        1 X    SEC  0     **** SEC X 2
     3 LYC4       36 GROUP        1 X    LYC  0     **** LYC X 4
     4 GLC5       12 GROUP        1 X    GLC  0     **** GLC X 6
     5 ALP1        8 GROUP        1 Y    ALP  0     ROOT ALP Y 8
     6 SEP2        3 GROUP        1 Y    SEP  0     **** SEP Y 9
     7 LYP4       38 GROUP        1 Y    LYP  0     **** LYP Y 11
     8 GLP5       14 GROUP        1 Y    GLP  0     **** GLP Y 13
     9 ALL1        7 GROUP        1 Z    ALL  0     ROOT ALL Z 15
    10 SEL2        2 GROUP        1 Z    SEL  0     **** SEL Z 16
    11 LYL4       37 GROUP        1 Z    LYL  0     **** LYL Z 18
    12 GLL5       13 GROUP        1 Z    GLL  0     **** GLL Z 20
@<TRIPOS>SET

