#    Name: 4hmx_FMN_2_ligand
#    Modification time : Tue Mar 25 01:26:20 2014

@<TRIPOS>MOLECULE
4hmx_FMN_2_ligand
   50    52     1     0     0
SMALL
NO_CHARGES


@<TRIPOS>ATOM
      1 N1        -31.6050   17.1170    7.0610 N.2       1 FMN301      0.0000 
      2 C2        -31.3780   16.9820    8.4050 C.2       1 FMN301      0.0000 
      3 O2        -31.6970   15.9470    8.9630 O.2       1 FMN301      0.0000 
      4 N3        -30.8190   18.0110    9.1300 N.am      1 FMN301      0.0000 
      5 C4        -30.5200   19.2180    8.5870 C.2       1 FMN301      0.0000 
      6 O4        -29.9970   20.1470    9.2690 O.2       1 FMN301      0.0000 
      7 C4A       -30.7520   19.3810    7.2150 C.2       1 FMN301      0.0000 
      8 N5        -30.4980   20.5990    6.6220 N.2       1 FMN301      0.0000 
      9 C5A       -30.6720   20.6780    5.2270 C.ar      1 FMN301      0.0000 
     10 C6        -30.3970   21.8750    4.5640 C.ar      1 FMN301      0.0000 
     11 C7        -30.5220   22.0030    3.2050 C.ar      1 FMN301      0.0000 
     12 C7M       -30.1800   23.3260    2.5610 C.3       1 FMN301      0.0000 
     13 C8        -31.0200   20.9540    2.4650 C.ar      1 FMN301      0.0000 
     14 C8M       -31.1300   21.1040    0.9770 C.3       1 FMN301      0.0000 
     15 C9        -31.3080   19.7480    3.0700 C.ar      1 FMN301      0.0000 
     16 C9A       -31.1720   19.6320    4.4810 C.ar      1 FMN301      0.0000 
     17 N10       -31.5130   18.4570    5.1160 N.pl3     1 FMN301      0.0000 
     18 C10       -31.2870   18.3250    6.4760 C.2       1 FMN301      0.0000 
     19 C1'       -32.0640   17.2730    4.4080 C.3       1 FMN301      0.0000 
     20 C2'       -30.9640   16.2730    4.0660 C.3       1 FMN301      0.0000 
     21 O2'       -30.2010   16.8070    2.9680 O.3       1 FMN301      0.0000 
     22 C3'       -31.4760   14.8820    3.7510 C.3       1 FMN301      0.0000 
     23 O3'       -32.4270   14.9270    2.6720 O.3       1 FMN301      0.0000 
     24 C4'       -32.1270   14.1800    4.9610 C.3       1 FMN301      0.0000 
     25 O4'       -31.4050   14.5770    6.1360 O.3       1 FMN301      0.0000 
     26 C5'       -32.1140   12.6470    4.7540 C.3       1 FMN301      0.0000 
     27 O5'       -30.7790   12.2090    4.5990 O.3       1 FMN301      0.0000 
     28 P         -30.4490   10.6580    4.6890 P.3       1 FMN301      0.0000 
     29 O1P       -30.4250   10.2830    6.1550 O.co2     1 FMN301      0.0000 
     30 O2P       -31.5630    9.8920    4.0180 O.co2     1 FMN301      0.0000 
     31 O3P       -29.1370   10.5490    3.9900 O.co2     1 FMN301      0.0000 
     32 H         -30.6173   17.8447   10.1535 H         1 FMN301      0.0000 
     33 H         -30.0857   22.6961    5.1329 H         1 FMN301      0.0000 
     34 H         -31.6152   18.9403    2.5306 H         1 FMN301      0.0000 
     35 H         -32.5557   17.5826    3.4794 H         1 FMN301      0.0000 
     36 H         -32.8099   16.7713    5.0340 H         1 FMN301      0.0000 
     37 H         -30.3090   16.2025    4.9509 H         1 FMN301      0.0000 
     38 H         -30.6178   14.2637    3.4494 H         1 FMN301      0.0000 
     39 H         -33.1557   14.5073    5.0047 H         1 FMN301      0.0000 
     40 H         -32.7286   12.4359    3.8736 H         1 FMN301      0.0000 
     41 H         -32.6025   12.2005    5.6254 H         1 FMN301      0.0000 
     42 H         -29.2295   23.5867    2.7302 H         1 FMN301      0.0000 
     43 H         -30.3046   23.2995    1.5691 H         1 FMN301      0.0000 
     44 H         -30.7537   24.0676    2.9087 H         1 FMN301      0.0000 
     45 H         -30.2404   21.2776    0.5545 H         1 FMN301      0.0000 
     46 H         -31.5031   20.2817    0.5474 H         1 FMN301      0.0000 
     47 H         -31.7282   21.8642    0.7236 H         1 FMN301      0.0000 
     48 H         -29.8404   17.6776    3.3028 H         1 FMN301      0.0000 
     49 H         -31.9722   14.4708    1.9071 H         1 FMN301      0.0000 
     50 H         -31.8664   15.4045    6.4560 H         1 FMN301      0.0000 
@<TRIPOS>BOND
     1    2    1 1    
     2   18    1 2    
     3    3    2 2    
     4    4    2 am   
     5    5    4 am   
     6   32    4 1    
     7    6    5 2    
     8    7    5 1    
     9    8    7 2    
    10   18    7 1    
    11    9    8 1    
    12   10    9 ar   
    13   16    9 ar   
    14   11   10 ar   
    15   33   10 1    
    16   12   11 1    
    17   13   11 ar   
    18   42   12 1    
    19   43   12 1    
    20   44   12 1    
    21   14   13 1    
    22   15   13 ar   
    23   45   14 1    
    24   46   14 1    
    25   47   14 1    
    26   16   15 ar   
    27   34   15 1    
    28   17   16 1    
    29   18   17 1    
    30   19   17 1    
    31   20   19 1    
    32   35   19 1    
    33   36   19 1    
    34   21   20 1    
    35   22   20 1    
    36   37   20 1    
    37   48   21 1    
    38   23   22 1    
    39   24   22 1    
    40   38   22 1    
    41   49   23 1    
    42   25   24 1    
    43   26   24 1    
    44   39   24 1    
    45   50   25 1    
    46   27   26 1    
    47   40   26 1    
    48   41   26 1    
    49   28   27 1    
    50   29   28 ar   
    51   30   28 ar   
    52   31   28 ar   
@<TRIPOS>SUBSTRUCTURE
     1 FMN301      1 GROUP   
@<TRIPOS>SET

