#    Name: 1sd1_FMC_1_INTS_M
#    Modification time : Tue Mar 25 02:17:39 2014

@<TRIPOS>MOLECULE
1sd1_FMC_1_INTS_M
   43     0     9     0     0
SMALL
NO_CHARGES


@<TRIPOS>ATOM
      1 CA         58.9290   21.3710   26.9230 C.3       3 GLC5        0.0000 
      2 CA         59.4890   19.6340   26.4600 C.3       9 GLL5        0.0000 
      3 CA         58.3690   23.1080   27.3860 C.3       6 GLP5        0.0000 
      4 CA         60.1990   20.8830   25.1730 C.3       3 GLC5        0.0000 
      5 CA         60.9090   22.1320   23.8860 C.3       6 GLP5        0.0000 
      6 CA         61.4280   19.8675   26.6245 C.3       3 GLC5        0.0000 
      7 CA         63.3670   20.1010   26.7890 C.3       6 GLP5        0.0000 
      8 CA         58.7030   19.7865   28.2455 C.3       3 GLC5        0.0000 
      9 CA         57.9170   19.9390   30.0310 C.3       6 GLP5        0.0000 
     10 CA         61.8180   18.7810   26.8075 C.3       3 GLC5        0.0000 
     11 CA         60.2690   17.4610   26.8260 C.3       9 GLL5        0.0000 
     12 CA         59.7800   19.0595   23.5975 C.3       3 GLC5        0.0000 
     13 CA         58.8530   17.9580   24.8510 C.3       9 GLL5        0.0000 
     14 CA         60.7070   20.1610   22.3440 C.3       6 GLP5        0.0000 
     15 O          58.1280   16.4240   22.9880 O.2       1 ALC1        0.0000 
     16 O          58.2050   17.6160   23.7320 O.2       7 ALL1        0.0000 
     17 O          58.0510   15.2320   22.2440 O.2       4 ALP1        0.0000 
     18 O          57.3115   18.5960   23.1285 O.2       1 ALC1        0.0000 
     19 O          56.4180   19.5760   22.5250 O.2       4 ALP1        0.0000 
     20 O          59.3590   14.7450   24.6180 O.2       1 ALC1        0.0000 
     21 O          59.8610   15.6700   25.5190 O.2       7 ALL1        0.0000 
     22 O          58.8570   13.8200   23.7170 O.2       4 ALP1        0.0000 
     23 CA         62.6775   14.4875   28.1180 C.3       3 GLC5        0.0000 
     24 CA         61.7290   16.2070   28.6090 C.3       9 GLL5        0.0000 
     25 CA         63.6260   12.7680   27.6270 C.3       6 GLP5        0.0000 
     26 CA         62.5540   18.7180   28.2525 C.3       3 GLC5        0.0000 
     27 CA         61.7410   17.3350   29.7160 C.3       9 GLL5        0.0000 
     28 CA         61.1500   19.0940   29.9965 C.3       3 GLC5        0.0000 
     29 CA         60.5590   20.8530   30.2770 C.3       6 GLP5        0.0000 
     30 N          63.1810   19.3440   29.4755 N.am      2 SEC2        0.0000 
     31 N          63.0580   17.9880   29.8030 N.am      8 SEL2        0.0000 
     32 N          63.3040   20.7000   29.1480 N.am      5 SEP2        0.0000 
     33 CA         60.2710   18.4045   31.1875 C.3       3 GLC5        0.0000 
     34 CA         61.3520   16.6430   31.1000 C.3       9 GLL5        0.0000 
     35 CA         59.1900   20.1660   31.2750 C.3       6 GLP5        0.0000 
     36 CA         57.8160   16.1790   29.0165 C.3       3 GLC5        0.0000 
     37 CA         59.1680   15.4230   30.3290 C.3       9 GLL5        0.0000 
     38 CA         56.4640   16.9350   27.7040 C.3       6 GLP5        0.0000 
     39 CA         61.7605   16.5723   25.3415 C.3       3 GLC5        0.0000 
     40 CA         63.5810   15.9140   24.4480 C.3       6 GLP5        0.0000 
     41 CA         60.0825   16.9940   23.5418 C.3       3 GLC5        0.0000 
     42 CA         59.6110   17.0000   25.6440 C.3       9 GLL5        0.0000 
     43 CA         60.9330   16.5090   21.8360 C.3       6 GLP5        0.0000 
@<TRIPOS>BOND
@<TRIPOS>SUBSTRUCTURE
     1 ALC1       15 GROUP        1 X    ALC  0     ROOT ALC X 1
     2 SEC2       30 GROUP        1 X    SEC  0     **** SEC X 2
     3 GLC5        1 GROUP        1 X    GLC  0     **** GLC X 6
     4 ALP1       17 GROUP        1 Y    ALP  0     ROOT ALP Y 8
     5 SEP2       32 GROUP        1 Y    SEP  0     **** SEP Y 9
     6 GLP5        3 GROUP        1 Y    GLP  0     **** GLP Y 13
     7 ALL1       16 GROUP        1 Z    ALL  0     ROOT ALL Z 15
     8 SEL2       31 GROUP        1 Z    SEL  0     **** SEL Z 16
     9 GLL5        2 GROUP        1 Z    GLL  0     **** GLL Z 20
@<TRIPOS>SET

