#    Name: 1sd1_FMC_1_ligand
#    Modification time : Tue Mar 25 02:17:39 2014

@<TRIPOS>MOLECULE
1sd1_FMC_1_ligand
   32    34     1     0     0
SMALL
NO_CHARGES


@<TRIPOS>ATOM
      1 N1         58.8340   19.2580   25.3170 N.ar      1 FMC1330     0.0000 
      2 C2         59.4890   19.6340   26.4600 C.ar      1 FMC1330     0.0000 
      3 N3         60.2200   18.8200   27.2670 N.ar      1 FMC1330     0.0000 
      4 C4         60.2690   17.4610   26.8260 C.ar      1 FMC1330     0.0000 
      5 C5         59.6110   17.0000   25.6440 C.ar      1 FMC1330     0.0000 
      6 C6         58.8530   17.9580   24.8510 C.ar      1 FMC1330     0.0000 
      7 N6         58.2050   17.6160   23.7320 N.pl3     1 FMC1330     0.0000 
      8 N7         59.8610   15.6700   25.5190 N.pl3     1 FMC1330     0.0000 
      9 N8         60.6370   15.2380   26.5470 N.2       1 FMC1330     0.0000 
     10 C9         60.9160   16.2700   27.3680 C.2       1 FMC1330     0.0000 
     11 C1'        61.7290   16.2070   28.6090 C.3       1 FMC1330     0.0000 
     12 C2'        61.7410   17.3350   29.7160 C.3       1 FMC1330     0.0000 
     13 O2'        63.0580   17.9880   29.8030 O.3       1 FMC1330     0.0000 
     14 C3'        61.3520   16.6430   31.1000 C.3       1 FMC1330     0.0000 
     15 O3'        62.5310   16.4150   31.9780 O.3       1 FMC1330     0.0000 
     16 C4'        60.6990   15.3660   30.6130 C.3       1 FMC1330     0.0000 
     17 O4'        61.3530   15.0130   29.3600 O.3       1 FMC1330     0.0000 
     18 C5'        59.1680   15.4230   30.3290 C.3       1 FMC1330     0.0000 
     19 O5'        58.5040   14.3180   29.8690 O.3       1 FMC1330     0.0000 
     20 H          59.4155   20.6727   26.7423 H         1 FMC1330     0.0000 
     21 H          58.2916   16.6612   23.4477 H         1 FMC1330     0.0000 
     22 H          57.6920   18.3458   23.2801 H         1 FMC1330     0.0000 
     23 H          59.5309   15.1073   24.7957 H         1 FMC1330     0.0000 
     24 H          62.8095   16.0477   28.3427 H         1 FMC1330     0.0000 
     25 H          60.9608   18.0268   29.4811 H         1 FMC1330     0.0000 
     26 H          60.6104   17.2613   31.5414 H         1 FMC1330     0.0000 
     27 H          60.8793   14.5734   31.3298 H         1 FMC1330     0.0000 
     28 H          59.0342   16.3256   29.6310 H         1 FMC1330     0.0000 
     29 H          58.7061   15.8280   31.2998 H         1 FMC1330     0.0000 
     30 H          63.5249   17.5291   30.5589 H         1 FMC1330     0.0000 
     31 H          62.3783   17.0012   32.7737 H         1 FMC1330     0.0000 
     32 H          59.1924   13.7916   29.3700 H         1 FMC1330     0.0000 
@<TRIPOS>BOND
     1    2    1 ar   
     2    6    1 ar   
     3    3    2 ar   
     4   20    2 1    
     5    4    3 ar   
     6    5    4 ar   
     7   10    4 1    
     8    6    5 ar   
     9    8    5 1    
    10    7    6 1    
    11   21    7 1    
    12   22    7 1    
    13    9    8 1    
    14   23    8 1    
    15   10    9 2    
    16   11   10 1    
    17   12   11 1    
    18   17   11 1    
    19   24   11 1    
    20   13   12 1    
    21   14   12 1    
    22   25   12 1    
    23   30   13 1    
    24   15   14 1    
    25   16   14 1    
    26   26   14 1    
    27   31   15 1    
    28   17   16 1    
    29   18   16 1    
    30   27   16 1    
    31   19   18 1    
    32   28   18 1    
    33   29   18 1    
    34   32   19 1    
@<TRIPOS>SUBSTRUCTURE
     1 FMC1330     1 GROUP   
@<TRIPOS>SET

