#    Name: 1kjj_AGS_2_INTS_M
#    Modification time : Tue Mar 25 10:12:05 2014

@<TRIPOS>MOLECULE
1kjj_AGS_2_INTS_M
   67     0    15     0     0
SMALL
NO_CHARGES


@<TRIPOS>ATOM
      1 CA         18.6805    6.5300   -1.7375 C.3       5 GLC5        0.0000 
      2 CA         18.9900    8.2420   -2.5680 C.3      15 GLL5        0.0000 
      3 CA         18.3710    4.8180   -0.9070 C.3      10 GLP5        0.0000 
      4 Zn         18.5505    9.3005   -5.9625 Zn        4 ZIC7        0.0000 
      5 Zn         18.5130    9.1480   -4.9900 Zn       14 ZIL7        0.0000 
      6 Zn         18.5880    9.4530   -6.9350 Zn        9 ZIP7        0.0000 
      7 N          18.4460   10.5670   -5.6385 N.am      2 SEC2        0.0000 
      8 N          18.5130    9.1480   -4.9900 N.am     12 SEL2        0.0000 
      9 N          18.3790   11.9860   -6.2870 N.am      7 SEP2        0.0000 
     10 Zn         15.8025    8.5540   -4.5395 Zn        4 ZIC7        0.0000 
     11 Zn         16.4860    8.4590   -3.6340 Zn       14 ZIL7        0.0000 
     12 Zn         15.1190    8.6490   -5.4450 Zn        9 ZIP7        0.0000 
     13 N          15.3895    4.6170   -5.3335 N.am      2 SEC2        0.0000 
     14 N          16.5950    4.6320   -4.2900 N.am     12 SEL2        0.0000 
     15 N          14.1840    4.6020   -6.3770 N.am      7 SEP2        0.0000 
     16 N          17.4175    3.9705   -3.5295 N.am      2 SEC2        0.0000 
     17 N          18.2400    3.3090   -2.7690 N.am      7 SEP2        0.0000 
     18 NZ         14.9520    5.6035   -5.9145 N.4       3 LYC4        0.0000 
     19 NZ         15.7200    6.6050   -5.4520 N.4      13 LYL4        0.0000 
     20 NZ         13.5600    4.8240   -7.5270 N.4       8 LYP4        0.0000 
     21 Zn         15.4195    7.6270   -5.4485 Zn        4 ZIC7        0.0000 
     22 Zn         15.7200    6.6050   -5.4520 Zn       14 ZIL7        0.0000 
     23 N          14.9015    6.1490   -6.9230 N.am      2 SEC2        0.0000 
     24 N          15.7200    6.6050   -5.4520 N.am     12 SEL2        0.0000 
     25 N          14.0830    5.6930   -8.3940 N.am      7 SEP2        0.0000 
     26 N          14.9520    5.6035   -5.9145 N.am      2 SEC2        0.0000 
     27 NZ         17.2130    5.0360  -10.1575 N.4       3 LYC4        0.0000 
     28 NZ         17.2770    5.9640   -8.9810 N.4      13 LYL4        0.0000 
     29 NZ         17.1490    4.1080  -11.3340 N.4       8 LYP4        0.0000 
     30 N          15.6800    5.8285   -8.6875 N.am      2 SEC2        0.0000 
     31 N          17.2770    5.9640   -8.9810 N.am     12 SEL2        0.0000 
     32 N          17.2130    5.0360  -10.1575 N.am      2 SEC2        0.0000 
     33 N          17.1490    4.1080  -11.3340 N.am      7 SEP2        0.0000 
     34 Zn         18.4990    8.5370   -7.2560 Zn        4 ZIC7        0.0000 
     35 Zn         18.4100    7.6210   -7.5770 Zn       14 ZIL7        0.0000 
     36 N          17.5505    3.6850   -6.7030 N.am      2 SEC2        0.0000 
     37 N          17.6600    5.4120   -6.5140 N.am     12 SEL2        0.0000 
     38 N          17.4410    1.9580   -6.8920 N.am      7 SEP2        0.0000 
     39 O          23.0300    8.8200   -8.8235 O.2       1 ALC1        0.0000 
     40 O          22.5490    7.9970   -7.9800 O.2      11 ALL1        0.0000 
     41 O          23.5110    9.6430   -9.6670 O.2       6 ALP1        0.0000 
     42 CA         22.8910    7.6330  -11.4655 C.3       5 GLC5        0.0000 
     43 CA         23.0200    6.4290   -9.8890 C.3      15 GLL5        0.0000 
     44 CA         22.7620    8.8370  -13.0420 C.3      10 GLP5        0.0000 
     45 O          23.9385    7.9955   -9.5460 O.2       1 ALC1        0.0000 
     46 O          24.3660    6.3480   -9.4250 O.2      11 ALL1        0.0000 
     47 O          24.9575    7.5260   -9.3725 O.2       1 ALC1        0.0000 
     48 O          25.5490    8.7040   -9.3200 O.2       6 ALP1        0.0000 
     49 N          18.3435    4.3835  -11.7935 N.am      2 SEC2        0.0000 
     50 N          19.5380    4.6590  -12.2530 N.am     12 SEL2        0.0000 
     51 CA         20.9835    3.0460  -16.1940 C.3       5 GLC5        0.0000 
     52 CA         20.4800    4.3490  -14.6300 C.3      15 GLL5        0.0000 
     53 CA         21.4870    1.7430  -17.7580 C.3      10 GLP5        0.0000 
     54 O          18.0580    4.2700  -14.7035 O.2       1 ALC1        0.0000 
     55 O          19.4700    4.2280  -15.4170 O.2      11 ALL1        0.0000 
     56 O          16.6460    4.3120  -13.9900 O.2       6 ALP1        0.0000 
     57 N          22.0990    4.1060  -16.6730 N.am      2 SEC2        0.0000 
     58 N          21.7440    4.3180  -15.1820 N.am     12 SEL2        0.0000 
     59 N          22.4540    3.8940  -18.1640 N.am      7 SEP2        0.0000 
     60 CA         23.4070    2.8025  -15.8800 C.3       5 GLC5        0.0000 
     61 CA         22.9270    4.4340  -14.4770 C.3      15 GLL5        0.0000 
     62 CA         23.8870    1.1710  -17.2830 C.3      10 GLP5        0.0000 
     63 CA         22.6960    5.3720  -16.4800 C.3       5 GLC5        0.0000 
     64 CA         22.4650    6.3100  -18.4830 C.3      10 GLP5        0.0000 
     65 CA         20.8686    2.5514  -13.6395 C.3       5 GLC5        0.0000 
     66 CA         20.5490    4.5020  -13.2220 C.3      15 GLL5        0.0000 
     67 CA         20.5760    0.5740  -14.0330 C.3      10 GLP5        0.0000 
@<TRIPOS>BOND
@<TRIPOS>SUBSTRUCTURE
     1 ALC1       39 GROUP        1 X    ALC  0     ROOT ALC X 1
     2 SEC2        7 GROUP        1 X    SEC  0     **** SEC X 2
     3 LYC4       18 GROUP        1 X    LYC  0     **** LYC X 4
     4 ZIC7        4 GROUP        1 X    ZIC  0     **** ZIC X 5
     5 GLC5        1 GROUP        1 X    GLC  0     **** GLC X 6
     6 ALP1       41 GROUP        1 Y    ALP  0     ROOT ALP Y 8
     7 SEP2        9 GROUP        1 Y    SEP  0     **** SEP Y 9
     8 LYP4       20 GROUP        1 Y    LYP  0     **** LYP Y 11
     9 ZIP7        6 GROUP        1 Y    ZIP  0     **** ZIP Y 12
    10 GLP5        3 GROUP        1 Y    GLP  0     **** GLP Y 13
    11 ALL1       40 GROUP        1 Z    ALL  0     ROOT ALL Z 15
    12 SEL2        8 GROUP        1 Z    SEL  0     **** SEL Z 16
    13 LYL4       19 GROUP        1 Z    LYL  0     **** LYL Z 18
    14 ZIL7        5 GROUP        1 Z    ZIL  0     **** ZIL Z 19
    15 GLL5        2 GROUP        1 Z    GLL  0     **** GLL Z 20
@<TRIPOS>SET

