#    Name: 1kjj_AGS_2_ligand
#    Modification time : Tue Mar 25 10:12:05 2014

@<TRIPOS>MOLECULE
1kjj_AGS_2_ligand
   42    44     1     0     0
SMALL
NO_CHARGES


@<TRIPOS>ATOM
      1 PG         18.0170    8.1820   -3.9330 P.3       1 AGS395      0.0000 
      2 S1G        18.9900    8.2420   -2.5680 S.3       1 AGS395      0.0000 
      3 O2G        18.5130    9.1480   -4.9900 O.co2     1 AGS395      0.0000 
      4 O3G        16.4860    8.4590   -3.6340 O.co2     1 AGS395      0.0000 
      5 PB         16.9650    5.8320   -5.1370 P.3       1 AGS395      0.0000 
      6 O1B        16.5950    4.6320   -4.2900 O.co2     1 AGS395      0.0000 
      7 O2B        15.7200    6.6050   -5.4520 O.co2     1 AGS395      0.0000 
      8 O3B        18.0920    6.6930   -4.4420 O.3       1 AGS395      0.0000 
      9 PA         18.1750    6.1580   -7.7920 P.3       1 AGS395      0.0000 
     10 O1A        17.2770    5.9640   -8.9810 O.co2     1 AGS395      0.0000 
     11 O2A        18.4100    7.6210   -7.5770 O.co2     1 AGS395      0.0000 
     12 O3A        17.6600    5.4120   -6.5140 O.3       1 AGS395      0.0000 
     13 O5'        19.5800    5.5050   -8.1280 O.3       1 AGS395      0.0000 
     14 C5'        20.6130    5.6050   -7.1180 C.3       1 AGS395      0.0000 
     15 C4'        21.9030    5.7000   -7.9410 C.3       1 AGS395      0.0000 
     16 O4'        21.9950    4.6160   -8.9140 O.3       1 AGS395      0.0000 
     17 C3'        22.0580    6.9410   -8.8070 C.3       1 AGS395      0.0000 
     18 O3'        22.5490    7.9970   -7.9800 O.3       1 AGS395      0.0000 
     19 C2'        23.0200    6.4290   -9.8890 C.3       1 AGS395      0.0000 
     20 O2'        24.3660    6.3480   -9.4250 O.3       1 AGS395      0.0000 
     21 C1'        22.5620    4.9990  -10.1190 C.3       1 AGS395      0.0000 
     22 N9         21.5670    4.8350  -11.1940 N.pl3     1 AGS395      0.0000 
     23 C8         20.1990    4.8270  -11.0710 C.2       1 AGS395      0.0000 
     24 N7         19.5380    4.6590  -12.2530 N.2       1 AGS395      0.0000 
     25 C5         20.5490    4.5020  -13.2220 C.ar      1 AGS395      0.0000 
     26 C6         20.4800    4.3490  -14.6300 C.ar      1 AGS395      0.0000 
     27 N6         19.4700    4.2280  -15.4170 N.pl3     1 AGS395      0.0000 
     28 N1         21.7440    4.3180  -15.1820 N.ar      1 AGS395      0.0000 
     29 C2         22.9270    4.4340  -14.4770 C.ar      1 AGS395      0.0000 
     30 N3         23.0190    4.5920  -13.1680 N.ar      1 AGS395      0.0000 
     31 C4         21.8080    4.6320  -12.5660 C.ar      1 AGS395      0.0000 
     32 H          20.6634    4.7288   -6.5103 H         1 AGS395      0.0000 
     33 H          20.5172    6.4945   -6.5356 H         1 AGS395      0.0000 
     34 H          22.7635    5.6441   -7.2840 H         1 AGS395      0.0000 
     35 H          21.1164    7.1305   -9.2515 H         1 AGS395      0.0000 
     36 H          22.8905    6.9702  -10.7659 H         1 AGS395      0.0000 
     37 H          23.4414    4.4026  -10.3278 H         1 AGS395      0.0000 
     38 H          19.7364    4.9343  -10.1975 H         1 AGS395      0.0000 
     39 H          23.8304    4.3893  -15.0610 H         1 AGS395      0.0000 
     40 H          22.4737    8.8213   -8.5411 H         1 AGS395      0.0000 
     41 H          24.5214    7.2037   -8.9313 H         1 AGS395      0.0000 
     42 H          18.6689    4.3071  -14.8238 H         1 AGS395      0.0000 
@<TRIPOS>BOND
     1    2    1 1    
     2    3    1 ar   
     3    4    1 ar   
     4    8    1 1    
     5    6    5 ar   
     6    7    5 ar   
     7    8    5 1    
     8   12    5 1    
     9   10    9 ar   
    10   11    9 ar   
    11   12    9 1    
    12   13    9 1    
    13   14   13 1    
    14   15   14 1    
    15   32   14 1    
    16   33   14 1    
    17   16   15 1    
    18   17   15 1    
    19   34   15 1    
    20   21   16 1    
    21   18   17 1    
    22   19   17 1    
    23   35   17 1    
    24   40   18 1    
    25   20   19 1    
    26   21   19 1    
    27   36   19 1    
    28   41   20 1    
    29   22   21 1    
    30   37   21 1    
    31   23   22 1    
    32   31   22 1    
    33   24   23 2    
    34   38   23 1    
    35   25   24 1    
    36   26   25 ar   
    37   31   25 ar   
    38   27   26 1    
    39   28   26 ar   
    40   42   27 1    
    41   29   28 ar   
    42   30   29 ar   
    43   39   29 1    
    44   31   30 ar   
@<TRIPOS>SUBSTRUCTURE
     1 AGS395      1 GROUP   
@<TRIPOS>SET

