#    Name: 1o1t_2NH_1_INTS_M
#    Modification time : Mon Mar 24 19:29:03 2014

@<TRIPOS>MOLECULE
1o1t_2NH_1_INTS_M
   99     0     6     0     0
SMALL
NO_CHARGES


@<TRIPOS>ATOM
      1 CA        181.9510  124.2210   32.5105 C.3       2 GLC5        0.0000 
      2 CA        183.5790  125.1670   32.9440 C.3       6 GLL5        0.0000 
      3 CA        180.3230  123.2750   32.0770 C.3       4 GLP5        0.0000 
      4 CA        186.1060  125.0970   34.5485 C.3       2 GLC5        0.0000 
      5 CA        186.5930  124.6200   32.8360 C.3       6 GLL5        0.0000 
      6 CA        185.6190  125.5740   36.2610 C.3       4 GLP5        0.0000 
      7 CA        187.8565  125.5170   28.7290 C.3       2 GLC5        0.0000 
      8 CA        186.6040  125.5050   30.4640 C.3       6 GLL5        0.0000 
      9 CA        189.1090  125.5290   26.9940 C.3       4 GLP5        0.0000 
     10 CA        188.7925  121.8640   36.1545 C.3       2 GLC5        0.0000 
     11 CA        189.7370  123.0730   34.8150 C.3       6 GLL5        0.0000 
     12 CA        187.8480  120.6550   37.4940 C.3       4 GLP5        0.0000 
     13 CA        187.1570  121.1735   34.9080 C.3       2 GLC5        0.0000 
     14 CA        188.4280  121.5460   33.3900 C.3       6 GLL5        0.0000 
     15 CA        185.8860  120.8010   36.4260 C.3       4 GLP5        0.0000 
     16 CA        187.3820  121.1750   29.4265 C.3       2 GLC5        0.0000 
     17 CA        188.6340  121.3770   30.9170 C.3       6 GLL5        0.0000 
     18 CA        186.1300  120.9730   27.9360 C.3       4 GLP5        0.0000 
     19 CA        189.6440  120.5185   29.3840 C.3       2 GLC5        0.0000 
     20 CA        190.6540  119.6600   27.8510 C.3       4 GLP5        0.0000 
     21 CA        186.2835  119.8775   30.1985 C.3       2 GLC5        0.0000 
     22 CA        186.6430  120.3070   32.2010 C.3       6 GLL5        0.0000 
     23 CA        185.9240  119.4480   28.1960 C.3       4 GLP5        0.0000 
     24 CA        185.7155  118.5440   31.6405 C.3       2 GLC5        0.0000 
     25 CA        184.7880  116.7810   31.0800 C.3       4 GLP5        0.0000 
     26 CA        185.8005  121.0815   29.8925 C.3       2 GLC5        0.0000 
     27 CA        185.4710  121.1900   31.8490 C.3       6 GLL5        0.0000 
     28 CA        181.7770  122.8085   30.4730 C.3       2 GLC5        0.0000 
     29 CA        183.1270  121.6840   30.0720 C.3       6 GLL5        0.0000 
     30 CA        180.4270  123.9330   30.8740 C.3       4 GLP5        0.0000 
     31 CA        184.6285  121.3285   29.0040 C.3       2 GLC5        0.0000 
     32 CA        181.5820  120.5615   28.9355 C.3       2 GLC5        0.0000 
     33 CA        180.0370  119.4390   27.7990 C.3       4 GLP5        0.0000 
     34 CA        180.1050  119.9940   32.1760 C.3       2 GLC5        0.0000 
     35 CA        181.9010  119.6910   31.2400 C.3       6 GLL5        0.0000 
     36 CA        178.3090  120.2970   33.1120 C.3       4 GLP5        0.0000 
     37 CA        181.4405  117.9590   31.2850 C.3       2 GLC5        0.0000 
     38 CA        180.9800  116.2270   31.3300 C.3       4 GLP5        0.0000 
     39 CA        180.9690  119.5650   29.5195 C.3       2 GLC5        0.0000 
     40 CA        189.6545  127.2590   28.1395 C.3       2 GLC5        0.0000 
     41 CA        190.2000  128.9890   29.2850 C.3       6 GLL5        0.0000 
     42 N         185.3430  123.8805   27.5500 N.am      1 SEC2        0.0000 
     43 N         185.3040  124.4480   28.7230 N.am      5 SEL2        0.0000 
     44 N         185.3820  123.3130   26.3770 N.am      3 SEP2        0.0000 
     45 CA        187.2525  126.5795   26.4805 C.3       2 GLC5        0.0000 
     46 CA        185.4260  126.7270   27.0380 C.3       6 GLL5        0.0000 
     47 CA        189.0790  126.4320   25.9230 C.3       4 GLP5        0.0000 
     48 CA        180.8190  129.5285   28.5830 C.3       2 GLC5        0.0000 
     49 CA        181.3030  127.8440   27.2260 C.3       6 GLL5        0.0000 
     50 CA        180.3350  131.2130   29.9400 C.3       4 GLP5        0.0000 
     51 CA        180.4470  127.6165   28.7310 C.3       2 GLC5        0.0000 
     52 CA        179.5910  127.3890   30.2360 C.3       4 GLP5        0.0000 
     53 CA        181.0230  125.9990   27.1725 C.3       2 GLC5        0.0000 
     54 CA        180.7430  124.1540   27.1190 C.3       4 GLP5        0.0000 
     55 CA        180.4105  129.1140   24.0405 C.3       2 GLC5        0.0000 
     56 CA        181.0060  128.4700   25.5690 C.3       6 GLL5        0.0000 
     57 CA        179.8150  129.7580   22.5120 C.3       4 GLP5        0.0000 
     58 CA        180.5190  127.0200   24.0450 C.3       2 GLC5        0.0000 
     59 CA        180.0320  125.5700   22.5210 C.3       4 GLP5        0.0000 
     60 N         185.7355  128.7135   23.8900 N.am      1 SEC2        0.0000 
     61 N         185.6420  128.2670   25.2240 N.am      5 SEL2        0.0000 
     62 N         185.8290  129.1600   22.5560 N.am      3 SEP2        0.0000 
     63 N         185.3100  126.8930   24.6855 N.am      1 SEC2        0.0000 
     64 N         184.9780  125.5190   24.1470 N.am      3 SEP2        0.0000 
     65 CA        183.0105  126.8490   33.4555 C.3       2 GLC5        0.0000 
     66 CA        184.5450  125.7870   31.9420 C.3       6 GLL5        0.0000 
     67 CA        181.9590  128.2210   34.4680 C.3       4 GLP5        0.0000 
     68 CA        184.8405  125.5255   34.3520 C.3       2 GLC5        0.0000 
     69 CA        189.1015  127.0555   36.8927 C.3       2 GLC5        0.0000 
     70 CA        190.0970  127.7740   35.7650 C.3       6 GLL5        0.0000 
     71 CA        187.3730  126.5800   37.5520 C.3       4 GLP5        0.0000 
     72 CA        190.8723  125.4825   37.5530 C.3       2 GLC5        0.0000 
     73 CA        191.5630  127.2880   36.7020 C.3       6 GLL5        0.0000 
     74 CA        189.8520  124.3280   38.9460 C.3       4 GLP5        0.0000 
     75 CA        188.5023  124.6252   35.7785 C.3       2 GLC5        0.0000 
     76 CA        190.5020  124.3800   34.7050 C.3       6 GLL5        0.0000 
     77 CA        186.8850  125.5240   36.7970 C.3       4 GLP5        0.0000 
     78 CA        190.0985  124.0692   36.9710 C.3       2 GLC5        0.0000 
     79 CA        191.5330  122.6037   35.9295 C.3       2 GLC5        0.0000 
     80 CA        191.4040  124.7160   35.6490 C.3       6 GLL5        0.0000 
     81 CA        192.7210  121.3970   36.8630 C.3       4 GLP5        0.0000 
     82 CA        189.2018  120.0463   33.7177 C.3       2 GLC5        0.0000 
     83 CA        189.7190  122.3590   33.4670 C.3       6 GLL5        0.0000 
     84 CA        189.3300  118.1400   34.0070 C.3       4 GLP5        0.0000 
     85 CA        188.3113  119.4240   33.1107 C.3       2 GLC5        0.0000 
     86 CA        187.9420  121.1090   32.2280 C.3       6 GLL5        0.0000 
     87 CA        185.3985  120.9912   33.8875 C.3       2 GLC5        0.0000 
     88 CA        184.7400  121.2340   35.7500 C.3       4 GLP5        0.0000 
     89 CA        184.7937  119.9622   29.8510 C.3       2 GLC5        0.0000 
     90 CA        184.1910  120.3680   31.9070 C.3       6 GLL5        0.0000 
     91 CA        183.7432  120.3787   33.4435 C.3       2 GLC5        0.0000 
     92 CA        183.8230  120.2810   35.3810 C.3       4 GLP5        0.0000 
     93 CA        181.4207  121.7065   31.6247 C.3       2 GLC5        0.0000 
     94 CA        183.1360  120.5850   31.1050 C.3       6 GLL5        0.0000 
     95 CA        183.7851  118.4324   31.2265 C.3       2 GLC5        0.0000 
     96 CA        182.1185  125.7262   27.1585 C.3       2 GLC5        0.0000 
     97 CA        183.8750  126.6480   27.0650 C.3       6 GLL5        0.0000 
     98 CA        179.7593  127.0725   26.1777 C.3       2 GLC5        0.0000 
     99 CA        178.3640  125.9880   25.9580 C.3       4 GLP5        0.0000 
@<TRIPOS>BOND
@<TRIPOS>SUBSTRUCTURE
     1 SEC2       42 GROUP        1 X    SEC  0     ROOT SEC X 2
     2 GLC5        1 GROUP        1 X    GLC  0     **** GLC X 6
     3 SEP2       44 GROUP        1 Y    SEP  0     ROOT SEP Y 9
     4 GLP5        3 GROUP        1 Y    GLP  0     **** GLP Y 13
     5 SEL2       43 GROUP        1 Z    SEL  0     ROOT SEL Z 16
     6 GLL5        2 GROUP        1 Z    GLL  0     **** GLL Z 20
@<TRIPOS>SET

