#    Name: 1o1t_2NH_1_ligand
#    Modification time : Mon Mar 24 19:29:03 2014

@<TRIPOS>MOLECULE
1o1t_2NH_1_ligand
  109   108     1     0     0
SMALL
NO_CHARGES


@<TRIPOS>ATOM
      1 CD1       183.5790  125.1670   32.9440 C.3       1 2NH3001     0.0000 
      2 CG4       184.5450  125.7870   31.9420 C.3       1 2NH3001     0.0000 
      3 CB4       185.7310  124.8840   31.5990 C.3       1 2NH3001     0.0000 
      4 CG3       186.5930  124.6200   32.8360 C.3       1 2NH3001     0.0000 
      5 CA4       186.6040  125.5050   30.4640 C.3       1 2NH3001     0.0000 
      6 N3        187.0100  126.8630   30.8120 N.am      1 2NH3001     0.0000 
      7 C19       188.2820  127.2400   30.7900 C.2       1 2NH3001     0.0000 
      8 O20       189.2100  126.4730   30.5280 O.2       1 2NH3001     0.0000 
      9 CA3       188.5410  128.6830   31.1840 C.3       1 2NH3001     0.0000 
     10 N2        189.5390  128.7710   32.2600 N.am      1 2NH3001     0.0000 
     11 C17       189.2140  128.5690   33.5400 C.2       1 2NH3001     0.0000 
     12 O18       188.0650  128.3390   33.9220 O.2       1 2NH3001     0.0000 
     13 CA2       190.3480  128.6890   34.5500 C.3       1 2NH3001     0.0000 
     14 CB2       190.0970  127.7740   35.7650 C.3       1 2NH3001     0.0000 
     15 SG        191.5630  127.2880   36.7020 S.3       1 2NH3001     0.0000 
     16 C         192.2220  125.9860   35.6180 C.3       1 2NH3001     0.0000 
     17 C2        191.4040  124.7160   35.6490 C.2       1 2NH3001     0.0000 
     18 C1        190.5020  124.3800   34.7050 C.2       1 2NH3001     0.0000 
     19 C4        190.2340  125.2810   33.5350 C.3       1 2NH3001     0.0000 
     20 C3        189.7370  123.0730   34.8150 C.3       1 2NH3001     0.0000 
     21 C5        189.7190  122.3590   33.4670 C.3       1 2NH3001     0.0000 
     22 C7        188.4280  121.5460   33.3900 C.2       1 2NH3001     0.0000 
     23 C6        187.9420  121.1090   32.2280 C.2       1 2NH3001     0.0000 
     24 C8        188.6340  121.3770   30.9170 C.3       1 2NH3001     0.0000 
     25 C9        186.6430  120.3070   32.2010 C.3       1 2NH3001     0.0000 
     26 C10       185.4710  121.1900   31.8490 C.3       1 2NH3001     0.0000 
     27 C11       184.1910  120.3680   31.9070 C.2       1 2NH3001     0.0000 
     28 C12       183.1360  120.5850   31.1050 C.2       1 2NH3001     0.0000 
     29 C13       183.1270  121.6840   30.0720 C.3       1 2NH3001     0.0000 
     30 C14       181.9010  119.6910   31.2400 C.3       1 2NH3001     0.0000 
     31 N         190.5430  130.0740   34.9650 N.am      1 2NH3001     0.0000 
     32 C15       191.7560  130.6320   34.9810 C.2       1 2NH3001     0.0000 
     33 CA        191.8280  132.0780   35.4370 C.3       1 2NH3001     0.0000 
     34 O16       192.7910  130.0270   34.6510 O.2       1 2NH3001     0.0000 
     35 CB3       188.9310  129.5230   29.9290 C.3       1 2NH3001     0.0000 
     36 CG1       189.0930  130.9920   30.3060 C.3       1 2NH3001     0.0000 
     37 CG2       190.2000  128.9890   29.2850 C.3       1 2NH3001     0.0000 
     38 C22       185.8990  125.4570   29.1010 C.2       1 2NH3001     0.0000 
     39 O23       185.3040  124.4480   28.7230 O.2       1 2NH3001     0.0000 
     40 N4        186.0050  126.5670   28.3730 N.am      1 2NH3001     0.0000 
     41 CA5       185.4260  126.7270   27.0380 C.3       1 2NH3001     0.0000 
     42 CB5       183.8750  126.6480   27.0650 C.3       1 2NH3001     0.0000 
     43 CG        183.1130  127.9490   27.3310 C.3       1 2NH3001     0.0000 
     44 SD        181.3030  127.8440   27.2260 S.3       1 2NH3001     0.0000 
     45 CE        181.0060  128.4700   25.5690 C.3       1 2NH3001     0.0000 
     46 C24       185.9230  128.0460   26.4130 C.2       1 2NH3001     0.0000 
     47 OT1       185.6420  128.2670   25.2240 O.co2     1 2NH3001     0.0000 
     48 OT2       186.6220  128.8280   27.1010 O.co2     1 2NH3001     0.0000 
     49 H         184.9262  126.7358   32.3490 H         1 2NH3001     0.0000 
     50 H         183.9997  126.0253   31.0161 H         1 2NH3001     0.0000 
     51 H         185.3524  123.9333   31.2370 H         1 2NH3001     0.0000 
     52 H         187.5054  124.8686   30.3869 H         1 2NH3001     0.0000 
     53 H         186.2385  127.5111   31.0768 H         1 2NH3001     0.0000 
     54 H         187.5810  129.0967   31.5454 H         1 2NH3001     0.0000 
     55 H         190.5063  128.9992   31.9584 H         1 2NH3001     0.0000 
     56 H         191.2629  128.3221   34.0603 H         1 2NH3001     0.0000 
     57 H         189.6659  126.8167   35.4884 H         1 2NH3001     0.0000 
     58 H         189.4772  128.2427   36.5233 H         1 2NH3001     0.0000 
     59 H         193.2247  125.8691   35.9940 H         1 2NH3001     0.0000 
     60 H         192.2302  126.4770   34.6592 H         1 2NH3001     0.0000 
     61 H         191.5963  124.1062   36.4766 H         1 2NH3001     0.0000 
     62 H         188.7152  123.2753   35.1268 H         1 2NH3001     0.0000 
     63 H         190.2151  122.4333   35.5528 H         1 2NH3001     0.0000 
     64 H         190.5649  121.6977   33.3975 H         1 2NH3001     0.0000 
     65 H         189.7341  123.0855   32.6735 H         1 2NH3001     0.0000 
     66 H         187.9829  121.3745   34.3044 H         1 2NH3001     0.0000 
     67 H         186.4829  119.8576   33.1827 H         1 2NH3001     0.0000 
     68 H         186.7351  119.5071   31.4641 H         1 2NH3001     0.0000 
     69 H         185.5970  121.5854   30.8471 H         1 2NH3001     0.0000 
     70 H         185.4026  122.0088   32.5567 H         1 2NH3001     0.0000 
     71 H         184.2062  119.6169   32.6291 H         1 2NH3001     0.0000 
     72 H         189.6879  130.5915   35.2438 H         1 2NH3001     0.0000 
     73 H         188.1150  129.4404   29.2155 H         1 2NH3001     0.0000 
     74 H         186.5267  127.4112   28.7322 H         1 2NH3001     0.0000 
     75 H         185.7806  125.9132   26.3896 H         1 2NH3001     0.0000 
     76 H         183.5823  125.8961   27.8330 H         1 2NH3001     0.0000 
     77 H         183.5352  126.2245   26.0923 H         1 2NH3001     0.0000 
     78 H         183.3389  128.7315   26.6114 H         1 2NH3001     0.0000 
     79 H         183.2619  128.3337   28.3365 H         1 2NH3001     0.0000 
     80 H         184.0275  124.9611   33.8137 H         1 2NH3001     0.0000 
     81 H         182.8123  125.7762   33.1466 H         1 2NH3001     0.0000 
     82 H         183.1908  124.3103   32.6044 H         1 2NH3001     0.0000 
     83 H         187.3735  124.0311   32.6260 H         1 2NH3001     0.0000 
     84 H         186.9600  125.4670   33.2206 H         1 2NH3001     0.0000 
     85 H         186.0730  124.1697   33.5618 H         1 2NH3001     0.0000 
     86 H         191.0573  125.4353   32.9888 H         1 2NH3001     0.0000 
     87 H         189.5431  124.8980   32.9219 H         1 2NH3001     0.0000 
     88 H         189.9026  126.1786   33.8257 H         1 2NH3001     0.0000 
     89 H         189.5579  120.9948   30.8998 H         1 2NH3001     0.0000 
     90 H         188.1372  120.9777   30.1464 H         1 2NH3001     0.0000 
     91 H         188.7187  122.3567   30.7352 H         1 2NH3001     0.0000 
     92 H         183.2451  122.5857   30.4880 H         1 2NH3001     0.0000 
     93 H         183.8619  121.5712   29.4033 H         1 2NH3001     0.0000 
     94 H         182.2673  121.7070   29.5617 H         1 2NH3001     0.0000 
     95 H         182.1183  118.7296   31.0713 H         1 2NH3001     0.0000 
     96 H         181.5016  119.7451   32.1552 H         1 2NH3001     0.0000 
     97 H         181.1841  119.9476   30.5917 H         1 2NH3001     0.0000 
     98 H         192.7653  132.4261   35.4213 H         1 2NH3001     0.0000 
     99 H         191.2823  132.6791   34.8532 H         1 2NH3001     0.0000 
    100 H         191.4893  132.1901   36.3712 H         1 2NH3001     0.0000 
    101 H         189.8075  131.1224   30.9934 H         1 2NH3001     0.0000 
    102 H         189.3404  131.5531   29.5161 H         1 2NH3001     0.0000 
    103 H         188.2495  131.3736   30.6839 H         1 2NH3001     0.0000 
    104 H         190.9748  129.0110   29.9169 H         1 2NH3001     0.0000 
    105 H         190.0936  128.0411   28.9847 H         1 2NH3001     0.0000 
    106 H         190.4619  129.5234   28.4814 H         1 2NH3001     0.0000 
    107 H         181.4914  129.3285   25.4038 H         1 2NH3001     0.0000 
    108 H         181.3072  127.8234   24.8682 H         1 2NH3001     0.0000 
    109 H         180.0351  128.6464   25.4071 H         1 2NH3001     0.0000 
@<TRIPOS>BOND
     1    2    1 1    
     2   80    1 1    
     3   81    1 1    
     4   82    1 1    
     5    3    2 1    
     6   49    2 1    
     7   50    2 1    
     8    4    3 1    
     9    5    3 1    
    10   51    3 1    
    11   83    4 1    
    12   84    4 1    
    13   85    4 1    
    14    6    5 1    
    15   38    5 1    
    16   52    5 1    
    17    7    6 am   
    18   53    6 1    
    19    8    7 2    
    20    9    7 1    
    21   10    9 1    
    22   35    9 1    
    23   54    9 1    
    24   11   10 am   
    25   55   10 1    
    26   12   11 2    
    27   13   11 1    
    28   14   13 1    
    29   31   13 1    
    30   56   13 1    
    31   15   14 1    
    32   57   14 1    
    33   58   14 1    
    34   16   15 1    
    35   17   16 1    
    36   59   16 1    
    37   60   16 1    
    38   18   17 2    
    39   61   17 1    
    40   19   18 1    
    41   20   18 1    
    42   86   19 1    
    43   87   19 1    
    44   88   19 1    
    45   21   20 1    
    46   62   20 1    
    47   63   20 1    
    48   22   21 1    
    49   64   21 1    
    50   65   21 1    
    51   23   22 2    
    52   66   22 1    
    53   24   23 1    
    54   25   23 1    
    55   89   24 1    
    56   90   24 1    
    57   91   24 1    
    58   26   25 1    
    59   67   25 1    
    60   68   25 1    
    61   27   26 1    
    62   69   26 1    
    63   70   26 1    
    64   28   27 2    
    65   71   27 1    
    66   29   28 1    
    67   30   28 1    
    68   92   29 1    
    69   93   29 1    
    70   94   29 1    
    71   95   30 1    
    72   96   30 1    
    73   97   30 1    
    74   32   31 am   
    75   72   31 1    
    76   33   32 1    
    77   34   32 2    
    78   98   33 1    
    79   99   33 1    
    80  100   33 1    
    81   36   35 1    
    82   37   35 1    
    83   73   35 1    
    84  101   36 1    
    85  102   36 1    
    86  103   36 1    
    87  104   37 1    
    88  105   37 1    
    89  106   37 1    
    90   39   38 2    
    91   40   38 am   
    92   41   40 1    
    93   74   40 1    
    94   42   41 1    
    95   46   41 1    
    96   75   41 1    
    97   43   42 1    
    98   76   42 1    
    99   77   42 1    
   100   44   43 1    
   101   78   43 1    
   102   79   43 1    
   103   45   44 1    
   104  107   45 1    
   105  108   45 1    
   106  109   45 1    
   107   47   46 ar   
   108   48   46 ar   
@<TRIPOS>SUBSTRUCTURE
     1 2NH3001     1 GROUP   
@<TRIPOS>SET

