#    Name: 1hl3_NAD_2_INTS_M
#    Modification time : Tue Mar 25 05:34:47 2014

@<TRIPOS>MOLECULE
1hl3_NAD_2_INTS_M
   78     0     9     0     0
SMALL
NO_CHARGES


@<TRIPOS>ATOM
      1 N           4.9975   24.6370   25.3435 N.am      2 SEC2        0.0000 
      2 N           3.5600   23.7730   25.0030 N.am      8 SEL2        0.0000 
      3 N           6.4350   25.5010   25.6840 N.am      5 SEP2        0.0000 
      4 N           4.3435   22.7665   24.1775 N.am      2 SEC2        0.0000 
      5 N           5.1270   21.7600   23.3520 N.am      5 SEP2        0.0000 
      6 CA          3.5915   24.8210   31.5225 C.3       3 GLC5        0.0000 
      7 CA          3.1840   23.5810   29.8370 C.3       9 GLL5        0.0000 
      8 CA          3.9990   26.0610   33.2080 C.3       6 GLP5        0.0000 
      9 CA          4.9225   23.5010   28.8305 C.3       3 GLC5        0.0000 
     10 CA          3.6380   22.0870   29.6440 C.3       9 GLL5        0.0000 
     11 CA          6.2070   24.9150   28.0170 C.3       6 GLP5        0.0000 
     12 O           5.3665   22.3880   31.1280 O.2       1 ALC1        0.0000 
     13 O           5.0950   21.9980   29.6510 O.2       7 ALL1        0.0000 
     14 O           5.6380   22.7780   32.6050 O.2       4 ALP1        0.0000 
     15 O           4.4875   20.5680   32.5180 O.2       1 ALC1        0.0000 
     16 O           3.6720   20.2040   31.2910 O.2       7 ALL1        0.0000 
     17 O           5.3030   20.9320   33.7450 O.2       4 ALP1        0.0000 
     18 O           4.6550   21.4910   31.9480 O.2       1 ALC1        0.0000 
     19 CA          3.3235   24.2320   32.4930 C.3       3 GLC5        0.0000 
     20 CA          2.6480   22.4030   31.7780 C.3       9 GLL5        0.0000 
     21 CA          1.3310   23.9805   32.3350 C.3       3 GLC5        0.0000 
     22 CA          0.0140   25.5580   32.8920 C.3       6 GLP5        0.0000 
     23 N          -2.0775   20.6320   33.0635 N.am      2 SEC2        0.0000 
     24 N          -0.5220   21.3380   33.3760 N.am      8 SEL2        0.0000 
     25 N          -3.6330   19.9260   32.7510 N.am      5 SEP2        0.0000 
     26 N          -2.0880   21.8105   33.6430 N.am      2 SEC2        0.0000 
     27 N          -3.6540   22.2830   33.9100 N.am      5 SEP2        0.0000 
     28 CA         -2.3620   22.8130   35.8740 C.3       3 GLC5        0.0000 
     29 CA         -0.3760   22.4000   35.7280 C.3       9 GLL5        0.0000 
     30 CA         -4.3480   23.2260   36.0200 C.3       6 GLP5        0.0000 
     31 CA          1.4790   25.5220   36.3700 C.3       3 GLC5        0.0000 
     32 CA          1.7090   23.6390   35.9640 C.3       9 GLL5        0.0000 
     33 CA          1.2490   27.4050   36.7760 C.3       6 GLP5        0.0000 
     34 CA          2.8540   24.8500   34.5860 C.3       3 GLC5        0.0000 
     35 CA          3.7185   23.0580   36.0575 C.3       3 GLC5        0.0000 
     36 CA          5.7280   22.4770   36.1510 C.3       6 GLP5        0.0000 
     37 CA          2.7005   22.4260   36.8780 C.3       3 GLC5        0.0000 
     38 CA          3.6920   21.2130   37.7920 C.3       6 GLP5        0.0000 
     39 CA          0.8615   24.5985   34.4280 C.3       3 GLC5        0.0000 
     40 CA          2.6470   24.3030   33.5535 C.3       3 GLC5        0.0000 
     41 CA          1.2950   22.5450   33.8990 C.3       9 GLL5        0.0000 
     42 N           4.5310   27.4700   25.5455 N.am      2 SEC2        0.0000 
     43 N           3.3880   26.7050   25.9300 N.am      8 SEL2        0.0000 
     44 N           5.6740   28.2350   25.1610 N.am      5 SEP2        0.0000 
     45 CA          1.8445   28.3735   25.6770 C.3       3 GLC5        0.0000 
     46 CA          0.4930   27.1890   26.9390 C.3       9 GLL5        0.0000 
     47 CA          3.1960   29.5580   24.4150 C.3       6 GLP5        0.0000 
     48 CA         -2.1295   25.2840   28.0915 C.3       3 GLC5        0.0000 
     49 CA         -2.0180   26.6500   26.8570 C.3       9 GLL5        0.0000 
     50 CA         -2.2410   23.9180   29.3260 C.3       6 GLP5        0.0000 
     51 O          -2.5385   26.5300   29.2730 O.2       1 ALC1        0.0000 
     52 O          -2.9810   26.7230   27.9250 O.2       7 ALL1        0.0000 
     53 O          -2.0960   26.3370   30.6210 O.2       4 ALP1        0.0000 
     54 CA         -2.8390   29.7090   26.9575 C.3       3 GLC5        0.0000 
     55 CA         -2.4770   28.5780   25.4770 C.3       9 GLL5        0.0000 
     56 CA         -3.2010   30.8400   28.4380 C.3       6 GLP5        0.0000 
     57 CA         -3.2345   30.6435   26.2755 C.3       3 GLC5        0.0000 
     58 CA         -3.2680   30.4470   24.1130 C.3       9 GLL5        0.0000 
     59 O          -2.9510   33.1215   25.7615 O.2       1 ALC1        0.0000 
     60 O          -3.7740   33.4580   24.7530 O.2       7 ALL1        0.0000 
     61 O          -2.1280   32.7850   26.7700 O.2       4 ALP1        0.0000 
     62 O          -4.1720   34.8435   24.5775 O.2       1 ALC1        0.0000 
     63 O          -4.5700   36.2290   24.4020 O.2       4 ALP1        0.0000 
     64 CA         -1.9190   32.4715   20.9355 C.3       3 GLC5        0.0000 
     65 CA         -1.5840   31.6010   22.6540 C.3       9 GLL5        0.0000 
     66 CA         -2.2540   33.3420   19.2170 C.3       6 GLP5        0.0000 
     67 CA          1.1785   29.9195   23.5175 C.3       3 GLC5        0.0000 
     68 CA         -0.8390   30.2810   22.6200 C.3       9 GLL5        0.0000 
     69 CA          4.4802   24.3952   28.6532 C.3       3 GLC5        0.0000 
     70 CA          2.3230   24.1700   28.7420 C.3       9 GLL5        0.0000 
     71 CA          1.4457   24.9297   30.3603 C.3       3 GLC5        0.0000 
     72 CA          0.1380   25.9840   31.4310 C.3       6 GLP5        0.0000 
     73 CA          0.2890   23.9729   33.6811 C.3       3 GLC5        0.0000 
     74 CA          0.0420   22.0610   34.3550 C.3       9 GLL5        0.0000 
     75 CA         -2.0047   28.5965   28.2488 C.3       3 GLC5        0.0000 
     76 CA         -2.5570   30.0070   29.5400 C.3       6 GLP5        0.0000 
     77 CA         -0.0443   32.2485   23.5205 C.3       3 GLC5        0.0000 
     78 CA          1.1230   33.5560   24.4040 C.3       6 GLP5        0.0000 
@<TRIPOS>BOND
@<TRIPOS>SUBSTRUCTURE
     1 ALC1       12 GROUP        1 X    ALC  0     ROOT ALC X 1
     2 SEC2        1 GROUP        1 X    SEC  0     **** SEC X 2
     3 GLC5        6 GROUP        1 X    GLC  0     **** GLC X 6
     4 ALP1       14 GROUP        1 Y    ALP  0     ROOT ALP Y 8
     5 SEP2        3 GROUP        1 Y    SEP  0     **** SEP Y 9
     6 GLP5        8 GROUP        1 Y    GLP  0     **** GLP Y 13
     7 ALL1       13 GROUP        1 Z    ALL  0     ROOT ALL Z 15
     8 SEL2        2 GROUP        1 Z    SEL  0     **** SEL Z 16
     9 GLL5        7 GROUP        1 Z    GLL  0     **** GLL Z 20
@<TRIPOS>SET

