#    Name: 1hl3_NAD_2_ligand
#    Modification time : Tue Mar 25 05:34:47 2014

@<TRIPOS>MOLECULE
1hl3_NAD_2_ligand
   70    74     1     0     0
SMALL
NO_CHARGES


@<TRIPOS>ATOM
      1 PA          2.7820   23.3750   26.2090 P.3       1 NAD600      0.0000 
      2 O1A         1.4630   22.7250   26.3710 O.co2     1 NAD600      0.0000 
      3 O2A         3.5600   23.7730   25.0030 O.co2     1 NAD600      0.0000 
      4 O5B         3.1220   24.2380   27.5150 O.3       1 NAD600      0.0000 
      5 C5B         2.3230   24.1700   28.7420 C.3       1 NAD600      0.0000 
      6 C4B         3.1840   23.5810   29.8370 C.3       1 NAD600      0.0000 
      7 O4B         2.3140   23.5530   31.0320 O.3       1 NAD600      0.0000 
      8 C3B         3.6380   22.0870   29.6440 C.3       1 NAD600      0.0000 
      9 O3B         5.0950   21.9980   29.6510 O.3       1 NAD600      0.0000 
     10 C2B         2.9800   21.2900   30.7660 C.3       1 NAD600      0.0000 
     11 O2B         3.6720   20.2040   31.2910 O.3       1 NAD600      0.0000 
     12 C1B         2.6480   22.4030   31.7780 C.3       1 NAD600      0.0000 
     13 N9A         1.4730   22.0970   32.5830 N.pl3     1 NAD600      0.0000 
     14 C8A         0.3100   21.3630   32.3460 C.2       1 NAD600      0.0000 
     15 N7A        -0.5220   21.3380   33.3760 N.2       1 NAD600      0.0000 
     16 C5A         0.0420   22.0610   34.3550 C.ar      1 NAD600      0.0000 
     17 C6A        -0.3760   22.4000   35.7280 C.ar      1 NAD600      0.0000 
     18 N6A        -1.5180   21.9960   36.2450 N.pl3     1 NAD600      0.0000 
     19 N1A         0.5280   23.1920   36.4300 N.ar      1 NAD600      0.0000 
     20 C2A         1.7090   23.6390   35.9640 C.ar      1 NAD600      0.0000 
     21 N3A         2.1560   23.3430   34.6690 N.ar      1 NAD600      0.0000 
     22 C4A         1.2950   22.5450   33.8990 C.ar      1 NAD600      0.0000 
     23 O3          1.9030   24.6650   25.7730 O.3       1 NAD600      0.0000 
     24 PN          2.2150   26.1750   25.1660 P.3       1 NAD600      0.0000 
     25 O1N         2.2990   26.0790   23.7000 O.co2     1 NAD600      0.0000 
     26 O2N         3.3880   26.7050   25.9300 O.co2     1 NAD600      0.0000 
     27 O5D         0.8330   26.9420   25.5390 O.3       1 NAD600      0.0000 
     28 C5D         0.4930   27.1890   26.9390 C.3       1 NAD600      0.0000 
     29 C4D        -0.8870   27.7220   27.0580 C.3       1 NAD600      0.0000 
     30 O4D        -1.1390   28.7460   26.0000 O.3       1 NAD600      0.0000 
     31 C3D        -2.0180   26.6500   26.8570 C.3       1 NAD600      0.0000 
     32 O3D        -2.9810   26.7230   27.9250 O.3       1 NAD600      0.0000 
     33 C2D        -2.6620   27.0180   25.5090 C.3       1 NAD600      0.0000 
     34 O2D        -3.9900   26.5820   25.3980 O.3       1 NAD600      0.0000 
     35 C1D        -2.4770   28.5780   25.4770 C.3       1 NAD600      0.0000 
     36 N1N        -2.5860   29.1750   24.0940 N.pl3     1 NAD600      0.0000 
     37 C2N        -3.2680   30.4470   24.1130 C.ar      1 NAD600      0.0000 
     38 C3N        -2.8570   31.5510   23.4850 C.ar      1 NAD600      0.0000 
     39 C7N        -3.6600   32.8320   23.5760 C.2       1 NAD600      0.0000 
     40 O7N        -4.1970   33.2670   22.5340 O.2       1 NAD600      0.0000 
     41 N7N        -3.7740   33.4580   24.7530 N.am      1 NAD600      0.0000 
     42 C4N        -1.5840   31.6010   22.6540 C.ar      1 NAD600      0.0000 
     43 C5N        -0.8390   30.2810   22.6200 C.ar      1 NAD600      0.0000 
     44 C6N        -1.3480   29.1460   23.3210 C.ar      1 NAD600      0.0000 
     45 H           1.4517   23.5358   28.6000 H         1 NAD600      0.0000 
     46 H           1.9974   25.1617   29.0455 H         1 NAD600      0.0000 
     47 H           4.0265   24.1808   30.0341 H         1 NAD600      0.0000 
     48 H           3.2213   21.7636   28.7044 H         1 NAD600      0.0000 
     49 H           1.9762   21.0017   30.3556 H         1 NAD600      0.0000 
     50 H           3.4999   22.5749   32.3890 H         1 NAD600      0.0000 
     51 H           0.1546   20.9132   31.4706 H         1 NAD600      0.0000 
     52 H          -1.7288   22.3321   37.1629 H         1 NAD600      0.0000 
     53 H          -2.0703   21.3900   35.6725 H         1 NAD600      0.0000 
     54 H           2.3300   24.2276   36.5690 H         1 NAD600      0.0000 
     55 H           1.1993   27.9089   27.3794 H         1 NAD600      0.0000 
     56 H           0.5733   26.2571   27.5188 H         1 NAD600      0.0000 
     57 H          -1.0513   28.1794   28.0182 H         1 NAD600      0.0000 
     58 H          -1.5516   25.7077   26.7635 H         1 NAD600      0.0000 
     59 H          -1.9985   26.6306   24.7432 H         1 NAD600      0.0000 
     60 H          -3.1910   28.9962   26.1422 H         1 NAD600      0.0000 
     61 H          -4.1678   30.4624   24.6862 H         1 NAD600      0.0000 
     62 H          -4.3229   34.2939   24.7555 H         1 NAD600      0.0000 
     63 H          -3.3001   33.0338   25.5247 H         1 NAD600      0.0000 
     64 H          -1.2922   32.3701   22.2096 H         1 NAD600      0.0000 
     65 H           0.0141   30.2437   22.0905 H         1 NAD600      0.0000 
     66 H          -0.8245   28.2554   23.2876 H         1 NAD600      0.0000 
     67 H           5.3615   22.1929   30.5949 H         1 NAD600      0.0000 
     68 H           4.1588   20.5670   32.0855 H         1 NAD600      0.0000 
     69 H          -2.6507   26.0795   28.6155 H         1 NAD600      0.0000 
     70 H          -4.3126   26.4925   26.3403 H         1 NAD600      0.0000 
@<TRIPOS>BOND
     1    2    1 ar   
     2    3    1 ar   
     3    4    1 1    
     4   23    1 1    
     5    5    4 1    
     6    6    5 1    
     7   45    5 1    
     8   46    5 1    
     9    7    6 1    
    10    8    6 1    
    11   47    6 1    
    12   12    7 1    
    13    9    8 1    
    14   10    8 1    
    15   48    8 1    
    16   67    9 1    
    17   11   10 1    
    18   12   10 1    
    19   49   10 1    
    20   68   11 1    
    21   13   12 1    
    22   50   12 1    
    23   14   13 1    
    24   22   13 1    
    25   15   14 2    
    26   51   14 1    
    27   16   15 1    
    28   17   16 ar   
    29   22   16 ar   
    30   18   17 1    
    31   19   17 ar   
    32   52   18 1    
    33   53   18 1    
    34   20   19 ar   
    35   21   20 ar   
    36   54   20 1    
    37   22   21 ar   
    38   24   23 1    
    39   25   24 ar   
    40   26   24 ar   
    41   27   24 1    
    42   28   27 1    
    43   29   28 1    
    44   55   28 1    
    45   56   28 1    
    46   30   29 1    
    47   31   29 1    
    48   57   29 1    
    49   35   30 1    
    50   32   31 1    
    51   33   31 1    
    52   58   31 1    
    53   69   32 1    
    54   34   33 1    
    55   35   33 1    
    56   59   33 1    
    57   70   34 1    
    58   36   35 1    
    59   60   35 1    
    60   37   36 ar   
    61   44   36 ar   
    62   38   37 ar   
    63   61   37 1    
    64   39   38 1    
    65   42   38 ar   
    66   40   39 2    
    67   41   39 am   
    68   62   41 1    
    69   63   41 1    
    70   43   42 ar   
    71   64   42 1    
    72   44   43 ar   
    73   65   43 1    
    74   66   44 1    
@<TRIPOS>SUBSTRUCTURE
     1 NAD600      1 GROUP   
@<TRIPOS>SET

