#    Name: 2pog_WST_2_INTS_M
#    Modification time : Mon Mar 24 19:17:34 2014

@<TRIPOS>MOLECULE
2pog_WST_2_INTS_M
   56     0     9     0     0
SMALL
NO_CHARGES


@<TRIPOS>ATOM
      1 CA         28.5010   27.7080   71.0275 C.3       3 GLC5        0.0000 
      2 CA         27.2710   28.9120   69.5970 C.3       9 GLL5        0.0000 
      3 CA         29.7310   26.5040   72.4580 C.3       6 GLP5        0.0000 
      4 CA         29.8750   30.2845   70.5155 C.3       3 GLC5        0.0000 
      5 CA         27.6720   30.2050   70.1440 C.3       9 GLL5        0.0000 
      6 CA         32.0780   30.3640   70.8870 C.3       6 GLP5        0.0000 
      7 O          28.8390   32.2715   69.9265 O.2       1 ALC1        0.0000 
      8 O          28.6120   30.9370   69.6590 O.2       7 ALL1        0.0000 
      9 O          29.0660   33.6060   70.1940 O.2       4 ALP1        0.0000 
     10 CA         25.7075   32.2760   71.1985 C.3       3 GLC5        0.0000 
     11 CA         26.9320   30.6380   71.3020 C.3       9 GLL5        0.0000 
     12 CA         24.4830   33.9140   71.0950 C.3       6 GLP5        0.0000 
     13 CA         27.0050   30.3930   73.5710 C.3       3 GLC5        0.0000 
     14 CA         25.8790   29.8800   71.8920 C.3       9 GLL5        0.0000 
     15 CA         28.1310   30.9060   75.2500 C.3       6 GLP5        0.0000 
     16 CA         23.6055   28.1950   71.8870 C.3       3 GLC5        0.0000 
     17 CA         25.5130   28.6360   71.3400 C.3       9 GLL5        0.0000 
     18 CA         21.6980   27.7540   72.4340 C.3       6 GLP5        0.0000 
     19 CA         26.3390   25.2540   70.8015 C.3       3 GLC5        0.0000 
     20 CA         26.8340   26.0960   69.1510 C.3       9 GLL5        0.0000 
     21 CA         25.8440   24.4120   72.4520 C.3       6 GLP5        0.0000 
     22 CA         27.2340   28.1495   63.8230 C.3       3 GLC5        0.0000 
     23 CA         27.6120   28.0810   65.9700 C.3       9 GLL5        0.0000 
     24 CA         26.8560   28.2180   61.6760 C.3       6 GLP5        0.0000 
     25 CA         27.9410   25.3285   65.6540 C.3       3 GLC5        0.0000 
     26 CA         26.8900   26.9370   66.6530 C.3       9 GLL5        0.0000 
     27 CA         28.9920   23.7200   64.6550 C.3       6 GLP5        0.0000 
     28 CA         23.6875   24.2730   70.2395 C.3       3 GLC5        0.0000 
     29 CA         24.8690   24.5180   68.6810 C.3       9 GLL5        0.0000 
     30 CA         22.5060   24.0280   71.7980 C.3       6 GLP5        0.0000 
     31 CA         22.8080   22.7675   69.3960 C.3       3 GLC5        0.0000 
     32 CA         24.3350   23.2670   68.2720 C.3       9 GLL5        0.0000 
     33 CA         21.2810   22.2680   70.5200 C.3       6 GLP5        0.0000 
     34 N          24.2695   20.1085   68.5230 N.am      2 SEC2        0.0000 
     35 N          24.6770   21.0430   67.5010 N.am      8 SEL2        0.0000 
     36 N          23.8620   19.1740   69.5450 N.am      5 SEP2        0.0000 
     37 O          25.4580   20.4140   66.7840 O.2       1 ALC1        0.0000 
     38 O          24.6770   21.0430   67.5010 O.2       7 ALL1        0.0000 
     39 O          26.2390   19.7850   66.0670 O.2       4 ALP1        0.0000 
     40 CA         27.6300   21.0010   68.7685 C.3       3 GLC5        0.0000 
     41 CA         26.5640   22.4060   67.9190 C.3       9 GLL5        0.0000 
     42 CA         28.6960   19.5960   69.6180 C.3       6 GLP5        0.0000 
     43 CA         28.6640   30.0602   72.1740 C.3       3 GLC5        0.0000 
     44 CA         30.0260   29.6990   73.6250 C.3       6 GLP5        0.0000 
     45 CA         24.1715   30.3530   71.7215 C.3       3 GLC5        0.0000 
     46 CA         22.6470   31.4480   71.8270 C.3       6 GLP5        0.0000 
     47 CA         28.9787   25.9180   69.5207 C.3       3 GLC5        0.0000 
     48 CA         30.7370   25.3680   70.4600 C.3       6 GLP5        0.0000 
     49 CA         28.3792   29.7990   64.9733 C.3       3 GLC5        0.0000 
     50 CA         29.1080   30.9980   63.4260 C.3       6 GLP5        0.0000 
     51 CA         25.5876   27.8422   65.7719 C.3       3 GLC5        0.0000 
     52 CA         27.6890   29.1190   67.0710 C.3       9 GLL5        0.0000 
     53 CA         23.9050   27.9160   64.9570 C.3       6 GLP5        0.0000 
     54 CA         23.8987   23.1062   66.3372 C.3       3 GLC5        0.0000 
     55 CA         23.0500   23.4990   64.6030 C.3       6 GLP5        0.0000 
     56 CA         27.9187   23.3745   66.3888 C.3       3 GLC5        0.0000 
@<TRIPOS>BOND
@<TRIPOS>SUBSTRUCTURE
     1 ALC1        7 GROUP        1 X    ALC  0     ROOT ALC X 1
     2 SEC2       34 GROUP        1 X    SEC  0     **** SEC X 2
     3 GLC5        1 GROUP        1 X    GLC  0     **** GLC X 6
     4 ALP1        9 GROUP        1 Y    ALP  0     ROOT ALP Y 8
     5 SEP2       36 GROUP        1 Y    SEP  0     **** SEP Y 9
     6 GLP5        3 GROUP        1 Y    GLP  0     **** GLP Y 13
     7 ALL1        8 GROUP        1 Z    ALL  0     ROOT ALL Z 15
     8 SEL2       35 GROUP        1 Z    SEL  0     **** SEL Z 16
     9 GLL5        2 GROUP        1 Z    GLL  0     **** GLL Z 20
@<TRIPOS>SET

