#    Name: 2pog_WST_2_ligand
#    Modification time : Mon Mar 24 19:17:34 2014

@<TRIPOS>MOLECULE
2pog_WST_2_ligand
   39    42     1     0     0
SMALL
NO_CHARGES


@<TRIPOS>ATOM
      1 C1         27.2710   28.9120   69.5970 C.ar      1 WST301      0.0000 
      2 C2         27.6720   30.2050   70.1440 C.ar      1 WST301      0.0000 
      3 O3         28.6120   30.9370   69.6590 O.3       1 WST301      0.0000 
      4 C4         26.9320   30.6380   71.3020 C.ar      1 WST301      0.0000 
      5 C5         25.8790   29.8800   71.8920 C.ar      1 WST301      0.0000 
      6 C6         25.5130   28.6360   71.3400 C.ar      1 WST301      0.0000 
      7 C7         26.2010   28.1550   70.2020 C.ar      1 WST301      0.0000 
      8 O8         25.7800   26.9310   69.7180 O.3       1 WST301      0.0000 
      9 C9         26.8340   26.0960   69.1510 C.3       1 WST301      0.0000 
     10 C11        27.6070   26.8400   68.0120 C.3       1 WST301      0.0000 
     11 C13        27.9730   28.3170   68.3610 C.3       1 WST301      0.0000 
     12 C15        27.6890   29.1190   67.0710 C.3       1 WST301      0.0000 
     13 C16        27.6120   28.0810   65.9700 C.3       1 WST301      0.0000 
     14 C17        26.8900   26.9370   66.6530 C.3       1 WST301      0.0000 
     15 C18        26.2830   24.7350   68.7140 C.ar      1 WST301      0.0000 
     16 C19        24.8690   24.5180   68.6810 C.ar      1 WST301      0.0000 
     17 C20        24.3350   23.2670   68.2720 C.ar      1 WST301      0.0000 
     18 C21        25.1600   22.1600   67.8710 C.ar      1 WST301      0.0000 
     19 O22        24.6770   21.0430   67.5010 O.3       1 WST301      0.0000 
     20 C23        26.5640   22.4060   67.9190 C.ar      1 WST301      0.0000 
     21 C24        27.1270   23.6520   68.3260 C.ar      1 WST301      0.0000 
     22 H          27.1845   31.5535   71.7254 H         1 WST301      0.0000 
     23 H          25.3956   30.2434   72.7121 H         1 WST301      0.0000 
     24 H          24.7632   28.0890   71.7536 H         1 WST301      0.0000 
     25 H          27.5879   25.8939   69.9480 H         1 WST301      0.0000 
     26 H          28.5637   26.3287   67.8358 H         1 WST301      0.0000 
     27 H          29.0591   28.3461   68.5083 H         1 WST301      0.0000 
     28 H          28.4973   29.7887   66.8921 H         1 WST301      0.0000 
     29 H          26.7555   29.6214   67.1716 H         1 WST301      0.0000 
     30 H          28.5856   27.7782   65.6889 H         1 WST301      0.0000 
     31 H          27.0304   28.4478   65.1664 H         1 WST301      0.0000 
     32 H          25.8743   27.1843   66.8094 H         1 WST301      0.0000 
     33 H          27.0341   26.0382   66.1157 H         1 WST301      0.0000 
     34 H          24.2396   25.2751   68.9559 H         1 WST301      0.0000 
     35 H          23.3066   23.1395   68.2596 H         1 WST301      0.0000 
     36 H          27.2099   21.6387   67.6435 H         1 WST301      0.0000 
     37 H          28.1397   23.7695   68.3397 H         1 WST301      0.0000 
     38 H          28.3791   31.8707   69.9308 H         1 WST301      0.0000 
     39 H          25.0658   20.8807   66.5940 H         1 WST301      0.0000 
@<TRIPOS>BOND
     1    2    1 ar   
     2    7    1 ar   
     3   11    1 1    
     4    3    2 1    
     5    4    2 ar   
     6   38    3 1    
     7    5    4 ar   
     8   22    4 1    
     9    6    5 ar   
    10   23    5 1    
    11    7    6 ar   
    12   24    6 1    
    13    8    7 1    
    14    9    8 1    
    15   10    9 1    
    16   15    9 1    
    17   25    9 1    
    18   11   10 1    
    19   14   10 1    
    20   26   10 1    
    21   12   11 1    
    22   27   11 1    
    23   13   12 1    
    24   28   12 1    
    25   29   12 1    
    26   14   13 1    
    27   30   13 1    
    28   31   13 1    
    29   32   14 1    
    30   33   14 1    
    31   16   15 ar   
    32   21   15 ar   
    33   17   16 ar   
    34   34   16 1    
    35   18   17 ar   
    36   35   17 1    
    37   19   18 1    
    38   20   18 ar   
    39   39   19 1    
    40   21   20 ar   
    41   36   20 1    
    42   37   21 1    
@<TRIPOS>SUBSTRUCTURE
     1 WST301      1 GROUP   
@<TRIPOS>SET

