#    Name: 4kqr_VPP_4_INTS_M
#    Modification time : Tue Mar 25 08:21:40 2014

@<TRIPOS>MOLECULE
4kqr_VPP_4_INTS_M
   83     0    12     0     0
SMALL
NO_CHARGES


@<TRIPOS>ATOM
      1 CA         21.8510   12.6050  -17.8110 C.3       4 GLC5        0.0000 
      2 CA         21.5750   13.8950  -16.4980 C.3      12 GLL5        0.0000 
      3 CA         22.1270   11.3150  -19.1240 C.3       8 GLP5        0.0000 
      4 CA         21.7775   15.9920  -16.8060 C.3       4 GLC5        0.0000 
      5 CA         21.9800   18.0890  -17.1140 C.3       8 GLP5        0.0000 
      6 N          24.7740   16.4120  -13.7035 N.am      2 SEC2        0.0000 
      7 N          24.7870   15.0970  -13.9620 N.am     10 SEL2        0.0000 
      8 N          24.7610   17.7270  -13.4450 N.am      6 SEP2        0.0000 
      9 N          24.5825   14.4005  -12.5600 N.am      2 SEC2        0.0000 
     10 N          24.3780   13.7040  -11.1580 N.am      6 SEP2        0.0000 
     11 N          20.2630   15.7385  -11.7095 N.am      2 SEC2        0.0000 
     12 N          20.9570   14.6430  -11.9520 N.am     10 SEL2        0.0000 
     13 N          19.5690   16.8340  -11.4670 N.am      6 SEP2        0.0000 
     14 N          21.6440   13.2790  -11.7175 N.am      2 SEC2        0.0000 
     15 N          22.3310   11.9150  -11.4830 N.am      6 SEP2        0.0000 
     16 N          19.3130   15.2655  -11.9610 N.am      2 SEC2        0.0000 
     17 N          19.0570   13.6970  -12.4550 N.am     10 SEL2        0.0000 
     18 N          18.6245   13.8320  -11.0920 N.am      2 SEC2        0.0000 
     19 N          18.1920   13.9670   -9.7290 N.am      6 SEP2        0.0000 
     20 N          27.1465   13.5955  -18.1155 N.am      2 SEC2        0.0000 
     21 N          26.4540   12.6120  -17.0820 N.am     10 SEL2        0.0000 
     22 N          27.8390   14.5790  -19.1490 N.am      6 SEP2        0.0000 
     23 N          29.2465    9.4345  -13.0155 N.am      2 SEC2        0.0000 
     24 N          29.4150    9.9540  -14.3700 N.am     10 SEL2        0.0000 
     25 N          29.0780    8.9150  -11.6610 N.am      6 SEP2        0.0000 
     26 N          32.7950   13.2355  -19.6005 N.am      2 SEC2        0.0000 
     27 N          32.5010   11.8970  -18.9910 N.am     10 SEL2        0.0000 
     28 N          33.0890   14.5740  -20.2100 N.am      6 SEP2        0.0000 
     29 O          25.7585   12.5275  -13.8320 O.2       1 ALC1        0.0000 
     30 O          25.0980   12.6990  -15.1690 O.2       9 ALL1        0.0000 
     31 O          26.4190   12.3560  -12.4950 O.2       5 ALP1        0.0000 
     32 CA         23.2120   12.2860  -13.5090 C.3       4 GLC5        0.0000 
     33 CA         22.7660   13.1770  -15.3800 C.3      12 GLL5        0.0000 
     34 CA         23.6580   11.3950  -11.6380 C.3       8 GLP5        0.0000 
     35 CA         21.7155   11.4785  -14.5605 C.3       4 GLC5        0.0000 
     36 CA         20.6650    9.7800  -13.7410 C.3       8 GLP5        0.0000 
     37 CA         22.2500   12.4250  -12.8410 C.3       4 GLC5        0.0000 
     38 CA         20.8420   13.4550  -14.0440 C.3      12 GLL5        0.0000 
     39 CA         20.7535   11.6175  -13.8925 C.3       4 GLC5        0.0000 
     40 CA         21.0420   16.8435  -16.1020 C.3       4 GLC5        0.0000 
     41 CA         20.1040   15.5980  -15.0900 C.3      12 GLL5        0.0000 
     42 CA         27.0120   10.2295  -12.5455 C.3       4 GLC5        0.0000 
     43 CA         25.7800    9.4190  -14.2250 C.3      12 GLL5        0.0000 
     44 CA         28.2440   11.0400  -10.8660 C.3       8 GLP5        0.0000 
     45 CA         31.8865   11.4425  -14.0695 C.3       4 GLC5        0.0000 
     46 CA         31.9580    9.9120  -15.4290 C.3      12 GLL5        0.0000 
     47 CA         31.8150   12.9730  -12.7100 C.3       8 GLP5        0.0000 
     48 CA         31.0720    8.4660  -14.0970 C.3       4 GLC5        0.0000 
     49 CA         30.1860    7.0200  -12.7650 C.3       8 GLP5        0.0000 
     50 CA         33.0720    9.0910  -14.0590 C.3       4 GLC5        0.0000 
     51 CA         34.1860    8.2700  -12.6890 C.3       8 GLP5        0.0000 
     52 CA         33.2185   11.9910  -14.3405 C.3       4 GLC5        0.0000 
     53 CA         33.3360   10.5690  -15.7040 C.3      12 GLL5        0.0000 
     54 CA         33.1010   13.4130  -12.9770 C.3       8 GLP5        0.0000 
     55 CA         34.6085   10.2150  -14.4905 C.3       4 GLC5        0.0000 
     56 CA         35.8810    9.8610  -13.2770 C.3       8 GLP5        0.0000 
     57 CA         35.9360   13.8810  -17.9725 C.3       4 GLC5        0.0000 
     58 CA         35.4630   12.3420  -17.0650 C.3      12 GLL5        0.0000 
     59 CA         36.4090   15.4200  -18.8800 C.3       8 GLP5        0.0000 
     60 CA         35.1030   13.5770  -15.6665 C.3       4 GLC5        0.0000 
     61 CA         34.7430   14.8120  -14.2680 C.3       8 GLP5        0.0000 
     62 NZ         25.0885   17.3840  -16.9585 N.4       3 LYC4        0.0000 
     63 NZ         24.4560   15.9510  -15.9800 N.4      11 LYL4        0.0000 
     64 NZ         25.7210   18.8170  -17.9370 N.4       7 LYP4        0.0000 
     65 N          24.6085   16.8390  -14.7125 N.am      2 SEC2        0.0000 
     66 N          24.4560   15.9510  -15.9800 N.am     10 SEL2        0.0000 
     67 N          23.8135   17.0200  -16.1650 N.am      2 SEC2        0.0000 
     68 N          23.1710   18.0890  -16.3500 N.am      6 SEP2        0.0000 
     69 CA         23.4052   12.1605  -16.9295 C.3       4 GLC5        0.0000 
     70 CA         24.1750   13.6170  -15.7280 C.3      12 GLL5        0.0000 
     71 CA         23.3400   10.9240  -18.3050 C.3       8 GLP5        0.0000 
     72 CA         27.6227    8.1835  -14.2988 C.3       4 GLC5        0.0000 
     73 CA         26.4430    9.9190  -15.3680 C.3      12 GLL5        0.0000 
     74 CA         29.1340    6.6980  -13.8010 C.3       8 GLP5        0.0000 
     75 CA         24.5860    9.3893  -12.6698 C.3       4 GLC5        0.0000 
     76 CA         23.7240    9.9780  -11.0880 C.3       8 GLP5        0.0000 
     77 CA         27.1230    7.2583  -14.3345 C.3       4 GLC5        0.0000 
     78 CA         25.1160    8.1820  -14.2780 C.3      12 GLL5        0.0000 
     79 CA         24.7220    9.8401  -17.2931 C.3       4 GLC5        0.0000 
     80 CA         25.7720    7.9540  -16.6020 C.3      12 GLL5        0.0000 
     81 CA         35.7185   10.3833  -15.8365 C.3       4 GLC5        0.0000 
     82 CA         34.8290   11.0930  -17.6370 C.3      12 GLL5        0.0000 
     83 CA         36.2910    9.0490  -14.3220 C.3       8 GLP5        0.0000 
@<TRIPOS>BOND
@<TRIPOS>SUBSTRUCTURE
     1 ALC1       29 GROUP        1 X    ALC  0     ROOT ALC X 1
     2 SEC2        6 GROUP        1 X    SEC  0     **** SEC X 2
     3 LYC4       62 GROUP        1 X    LYC  0     **** LYC X 4
     4 GLC5        1 GROUP        1 X    GLC  0     **** GLC X 6
     5 ALP1       31 GROUP        1 Y    ALP  0     ROOT ALP Y 8
     6 SEP2        8 GROUP        1 Y    SEP  0     **** SEP Y 9
     7 LYP4       64 GROUP        1 Y    LYP  0     **** LYP Y 11
     8 GLP5        3 GROUP        1 Y    GLP  0     **** GLP Y 13
     9 ALL1       30 GROUP        1 Z    ALL  0     ROOT ALL Z 15
    10 SEL2        7 GROUP        1 Z    SEL  0     **** SEL Z 16
    11 LYL4       63 GROUP        1 Z    LYL  0     **** LYL Z 18
    12 GLL5        2 GROUP        1 Z    GLL  0     **** GLL Z 20
@<TRIPOS>SET

