#    Name: 4kqr_VPP_4_ligand
#    Modification time : Tue Mar 25 08:21:41 2014

@<TRIPOS>MOLECULE
4kqr_VPP_4_ligand
   63    65     1     0     0
SMALL
NO_CHARGES


@<TRIPOS>ATOM
      1 S          21.5750   13.8950  -16.4980 S.3       1 VPP601      0.0000 
      2 O01        24.7870   15.0970  -13.9620 O.co2     1 VPP601      0.0000 
      3 O02        20.9570   14.6430  -11.9520 O.co2     1 VPP601      0.0000 
      4 O03        19.0570   13.6970  -12.4550 O.co2     1 VPP601      0.0000 
      5 O06        26.4540   12.6120  -17.0820 O.2       1 VPP601      0.0000 
      6 O04        29.4150    9.9540  -14.3700 O.2       1 VPP601      0.0000 
      7 O05        30.1330   12.0490  -17.7620 O.2       1 VPP601      0.0000 
      8 O          32.5010   11.8970  -18.9910 O.2       1 VPP601      0.0000 
      9 N02        22.3240   13.5570  -14.0520 N.4       1 VPP601      0.0000 
     10 N03        25.0980   12.6990  -15.1690 N.am      1 VPP601      0.0000 
     11 N04        28.4280   11.2990  -15.9520 N.am      1 VPP601      0.0000 
     12 N01        30.8410   10.6750  -16.0340 N.am      1 VPP601      0.0000 
     13 N          33.4670   11.0370  -17.0910 N.am      1 VPP601      0.0000 
     14 C17        22.7660   13.1770  -15.3800 C.3       1 VPP601      0.0000 
     15 C19        20.2870   14.1360  -15.2970 C.3       1 VPP601      0.0000 
     16 C18        20.8420   13.4550  -14.0440 C.3       1 VPP601      0.0000 
     17 C20        24.1750   13.6170  -15.7280 C.3       1 VPP601      0.0000 
     18 C01        24.4920   14.9620  -15.1840 C.2       1 VPP601      0.0000 
     19 C02        20.1040   15.5980  -15.0900 C.3       1 VPP601      0.0000 
     20 C03        18.9790   13.4520  -15.7600 C.3       1 VPP601      0.0000 
     21 C04        20.2640   13.9620  -12.7490 C.2       1 VPP601      0.0000 
     22 C21        26.2250   12.2340  -15.9420 C.2       1 VPP601      0.0000 
     23 CA         27.1380   11.2430  -15.2980 C.3       1 VPP601      0.0000 
     24 C05        26.4430    9.9190  -15.3680 C.ar      1 VPP601      0.0000 
     25 C06        29.5540   10.5990  -15.3910 C.2       1 VPP601      0.0000 
     26 C07        25.7800    9.4190  -14.2250 C.ar      1 VPP601      0.0000 
     27 C08        26.4290    9.1980  -16.5530 C.ar      1 VPP601      0.0000 
     28 C09        31.9580    9.9120  -15.4290 C.3       1 VPP601      0.0000 
     29 C10        33.3360   10.5690  -15.7040 C.3       1 VPP601      0.0000 
     30 C11        31.0460   11.4190  -17.2430 C.2       1 VPP601      0.0000 
     31 C12        25.1160    8.1820  -14.2780 C.ar      1 VPP601      0.0000 
     32 C13        25.7720    7.9540  -16.6020 C.ar      1 VPP601      0.0000 
     33 C14        32.3530   11.4680  -17.8510 C.2       1 VPP601      0.0000 
     34 C15        34.8290   11.0930  -17.6370 C.3       1 VPP601      0.0000 
     35 C16        25.1080    7.4550  -15.4580 C.ar      1 VPP601      0.0000 
     36 C          35.4630   12.3420  -17.0650 C.3       1 VPP601      0.0000 
     37 O07        24.4560   15.9510  -15.9800 O.co2     1 VPP601      0.0000 
     38 H          24.9760   12.3582  -14.2175 H         1 VPP601      0.0000 
     39 H          28.5352   11.8321  -16.8051 H         1 VPP601      0.0000 
     40 H          22.6210   12.1258  -15.5658 H         1 VPP601      0.0000 
     41 H          20.5891   12.3750  -14.1315 H         1 VPP601      0.0000 
     42 H          24.2702   13.6398  -16.8049 H         1 VPP601      0.0000 
     43 H          27.2261   11.5296  -14.2481 H         1 VPP601      0.0000 
     44 H          25.7854    9.9621  -13.3575 H         1 VPP601      0.0000 
     45 H          26.8906    9.5601  -17.3912 H         1 VPP601      0.0000 
     46 H          31.9877    8.8897  -15.8282 H         1 VPP601      0.0000 
     47 H          31.8313    9.8402  -14.3409 H         1 VPP601      0.0000 
     48 H          33.4538   11.4031  -14.9968 H         1 VPP601      0.0000 
     49 H          34.1118    9.8263  -15.4666 H         1 VPP601      0.0000 
     50 H          24.6415    7.8256  -13.4421 H         1 VPP601      0.0000 
     51 H          25.7735    7.4074  -17.4667 H         1 VPP601      0.0000 
     52 H          34.8097   11.1682  -18.7126 H         1 VPP601      0.0000 
     53 H          35.4028   10.2335  -17.3289 H         1 VPP601      0.0000 
     54 H          24.6233    6.5527  -15.5139 H         1 VPP601      0.0000 
     55 H          20.9751   16.0623  -14.9299 H         1 VPP601      0.0000 
     56 H          19.6802   16.0352  -15.8833 H         1 VPP601      0.0000 
     57 H          19.5196   15.7912  -14.3018 H         1 VPP601      0.0000 
     58 H          19.0978   12.4664  -15.8806 H         1 VPP601      0.0000 
     59 H          18.2393   13.5794  -15.0993 H         1 VPP601      0.0000 
     60 H          18.6578   13.8176  -16.6336 H         1 VPP601      0.0000 
     61 H          36.4018   12.4631  -17.3876 H         1 VPP601      0.0000 
     62 H          34.9568   13.1658  -17.3203 H         1 VPP601      0.0000 
     63 H          35.4973   12.3169  -16.0659 H         1 VPP601      0.0000 
@<TRIPOS>BOND
     1   14    1 1    
     2   15    1 1    
     3   18    2 ar   
     4   21    3 ar   
     5   21    4 ar   
     6   22    5 2    
     7   25    6 2    
     8   30    7 2    
     9   33    8 2    
    10   14    9 1    
    11   16    9 1    
    12   17   10 1    
    13   22   10 am   
    14   38   10 1    
    15   23   11 1    
    16   25   11 am   
    17   39   11 1    
    18   25   12 am   
    19   28   12 1    
    20   30   12 am   
    21   29   13 1    
    22   33   13 am   
    23   34   13 1    
    24   17   14 1    
    25   40   14 1    
    26   16   15 1    
    27   19   15 1    
    28   20   15 1    
    29   21   16 1    
    30   41   16 1    
    31   18   17 1    
    32   42   17 1    
    33   37   18 ar   
    34   55   19 1    
    35   56   19 1    
    36   57   19 1    
    37   58   20 1    
    38   59   20 1    
    39   60   20 1    
    40   23   22 1    
    41   24   23 1    
    42   43   23 1    
    43   26   24 ar   
    44   27   24 ar   
    45   31   26 ar   
    46   44   26 1    
    47   32   27 ar   
    48   45   27 1    
    49   29   28 1    
    50   46   28 1    
    51   47   28 1    
    52   48   29 1    
    53   49   29 1    
    54   33   30 1    
    55   35   31 ar   
    56   50   31 1    
    57   35   32 ar   
    58   51   32 1    
    59   36   34 1    
    60   52   34 1    
    61   53   34 1    
    62   54   35 1    
    63   61   36 1    
    64   62   36 1    
    65   63   36 1    
@<TRIPOS>SUBSTRUCTURE
     1 VPP601      1 GROUP   
@<TRIPOS>SET

