#    Name: 3g5d_1N1_1_INTS_M
#    Modification time : Tue Mar 25 07:09:42 2014

@<TRIPOS>MOLECULE
3g5d_1N1_1_INTS_M
   76     0     9     0     0
SMALL
NO_CHARGES


@<TRIPOS>ATOM
      1 CA          6.8500  -32.4900   -7.0895 C.3       3 GLC5        0.0000 
      2 CA          7.8170  -34.4980   -6.8290 C.3       9 GLL5        0.0000 
      3 CA          5.8830  -30.4820   -7.3500 C.3       6 GLP5        0.0000 
      4 CA          8.7685  -33.0100   -5.6480 C.3       3 GLC5        0.0000 
      5 CA          9.7200  -31.5220   -4.4670 C.3       6 GLP5        0.0000 
      6 CA          0.9210  -36.0460   -9.7135 C.3       3 GLC5        0.0000 
      7 CA          1.3900  -34.2460   -9.7540 C.3       9 GLL5        0.0000 
      8 CA          0.4520  -37.8460   -9.6730 C.3       6 GLP5        0.0000 
      9 CA          0.7615  -32.4050  -10.0025 C.3       3 GLC5        0.0000 
     10 CA          0.1330  -30.5640  -10.2510 C.3       6 GLP5        0.0000 
     11 CA          5.5245  -37.3950   -9.5580 C.3       3 GLC5        0.0000 
     12 CA          4.8160  -35.6940  -10.6160 C.3       9 GLL5        0.0000 
     13 CA          6.2330  -39.0960   -8.5000 C.3       6 GLP5        0.0000 
     14 CA          6.7720  -35.7960  -10.1995 C.3       3 GLC5        0.0000 
     15 CA          8.7280  -35.8980   -9.7830 C.3       6 GLP5        0.0000 
     16 CA          5.7045  -36.9195  -11.9370 C.3       3 GLC5        0.0000 
     17 CA          6.5930  -38.1450  -13.2580 C.3       6 GLP5        0.0000 
     18 CA         10.1695  -38.7230   -5.6495 C.3       3 GLC5        0.0000 
     19 CA         10.0720  -37.5090   -4.1670 C.3       9 GLL5        0.0000 
     20 CA         10.2670  -39.9370   -7.1320 C.3       6 GLP5        0.0000 
     21 CA          8.7995  -36.3435   -3.0515 C.3       3 GLC5        0.0000 
     22 CA          7.5270  -35.1780   -1.9360 C.3       6 GLP5        0.0000 
     23 CA          9.7040  -40.2165   -4.7400 C.3       3 GLC5        0.0000 
     24 CA          8.8810  -39.3390   -3.3080 C.3       9 GLL5        0.0000 
     25 CA         10.5270  -41.0940   -6.1720 C.3       6 GLP5        0.0000 
     26 CA          9.7140  -38.2365   -1.7970 C.3       3 GLC5        0.0000 
     27 CA         10.5470  -37.1340   -0.2860 C.3       6 GLP5        0.0000 
     28 CA          8.4120  -41.0240   -4.5690 C.3       3 GLC5        0.0000 
     29 CA          7.5460  -40.0600   -3.0910 C.3       9 GLL5        0.0000 
     30 CA          9.2780  -41.9880   -6.0470 C.3       6 GLP5        0.0000 
     31 CA         13.9240  -38.2645   -4.3220 C.3       3 GLC5        0.0000 
     32 CA         13.6830  -39.2940   -2.3820 C.3       9 GLL5        0.0000 
     33 CA         14.1650  -37.2350   -6.2620 C.3       6 GLP5        0.0000 
     34 O          11.1390  -35.7020   -4.3070 O.2       1 ALC1        0.0000 
     35 O          10.0700  -36.3630   -4.8530 O.2       7 ALL1        0.0000 
     36 O          12.2080  -35.0410   -3.7610 O.2       4 ALP1        0.0000 
     37 N          10.3030  -33.9475   -6.0950 N.am      2 SEC2        0.0000 
     38 N           8.9930  -34.7500   -6.2150 N.am      8 SEL2        0.0000 
     39 N          11.6130  -33.1450   -5.9750 N.am      5 SEP2        0.0000 
     40 CA          8.1125  -36.2855   -7.7355 C.3       3 GLC5        0.0000 
     41 CA          7.4970  -36.6730   -5.6880 C.3       9 GLL5        0.0000 
     42 CA          7.1100  -35.1560   -4.7010 C.3       3 GLC5        0.0000 
     43 CA          6.7230  -33.6390   -3.7140 C.3       6 GLP5        0.0000 
     44 O           6.0130  -33.5885   -9.0020 O.2       1 ALC1        0.0000 
     45 O           5.1820  -34.4560   -8.0630 O.2       7 ALL1        0.0000 
     46 O           6.8440  -32.7210   -9.9410 O.2       4 ALP1        0.0000 
     47 CA          4.9880  -33.3295   -5.0585 C.3       3 GLC5        0.0000 
     48 CA          3.2530  -33.0200   -6.4030 C.3       9 GLL5        0.0000 
     49 CA          3.1355  -32.6175   -4.6920 C.3       3 GLC5        0.0000 
     50 CA          3.0180  -32.2150   -2.9810 C.3       6 GLP5        0.0000 
     51 CA         14.1400  -37.5060   -0.3860 C.3       3 GLC5        0.0000 
     52 CA         14.2660  -39.4650   -0.9800 C.3       9 GLL5        0.0000 
     53 CA         14.0140  -35.5470    0.2080 C.3       6 GLP5        0.0000 
     54 CA          8.0393  -35.4343   -8.2615 C.3       3 GLC5        0.0000 
     55 CA          7.0367  -34.3047   -5.2270 C.3       3 GLC5        0.0000 
     56 CA          6.7118  -37.5770   -7.3347 C.3       3 GLC5        0.0000 
     57 CA          6.8840  -35.4430   -6.6510 C.3       9 GLL5        0.0000 
     58 CA          1.6032  -34.0210  -11.8690 C.3       3 GLC5        0.0000 
     59 CA          2.4170  -34.8960  -10.4300 C.3       9 GLL5        0.0000 
     60 CA          1.3030  -33.4710  -13.6460 C.3       6 GLP5        0.0000 
     61 CA          4.5267  -33.6393  -10.5932 C.3       3 GLC5        0.0000 
     62 CA          3.6950  -34.9810   -9.8630 C.3       9 GLL5        0.0000 
     63 CA          4.7980  -31.9410  -10.9470 C.3       6 GLP5        0.0000 
     64 CA          3.1130  -36.7901  -10.8416 C.3       3 GLC5        0.0000 
     65 CA          2.2900  -38.2640  -11.3020 C.3       6 GLP5        0.0000 
     66 CA         10.8803  -39.8628   -4.7455 C.3       3 GLC5        0.0000 
     67 CA         11.2620  -38.0280   -3.6710 C.3       9 GLL5        0.0000 
     68 CA         10.7415  -37.8179   -1.8645 C.3       3 GLC5        0.0000 
     69 CA         11.2050  -39.2350   -2.9670 C.3       9 GLL5        0.0000 
     70 CA         12.2608  -38.2567   -0.9835 C.3       3 GLC5        0.0000 
     71 CA          2.0695  -31.9537   -9.0667 C.3       3 GLC5        0.0000 
     72 CA          2.9240  -33.7320   -7.9480 C.3       9 GLL5        0.0000 
     73 CA          1.8550  -30.2100   -9.9070 C.3       6 GLP5        0.0000 
     74 CA          4.4857  -31.9290   -7.2628 C.3       3 GLC5        0.0000 
     75 CA          3.7019  -33.0146   -9.8684 C.3       3 GLC5        0.0000 
     76 CA          3.9520  -34.3870   -8.6140 C.3       9 GLL5        0.0000 
@<TRIPOS>BOND
@<TRIPOS>SUBSTRUCTURE
     1 ALC1       34 GROUP        1 X    ALC  0     ROOT ALC X 1
     2 SEC2       37 GROUP        1 X    SEC  0     **** SEC X 2
     3 GLC5        1 GROUP        1 X    GLC  0     **** GLC X 6
     4 ALP1       36 GROUP        1 Y    ALP  0     ROOT ALP Y 8
     5 SEP2       39 GROUP        1 Y    SEP  0     **** SEP Y 9
     6 GLP5        3 GROUP        1 Y    GLP  0     **** GLP Y 13
     7 ALL1       35 GROUP        1 Z    ALL  0     ROOT ALL Z 15
     8 SEL2       38 GROUP        1 Z    SEL  0     **** SEL Z 16
     9 GLL5        2 GROUP        1 Z    GLL  0     **** GLL Z 20
@<TRIPOS>SET

