#    Name: 3g5d_1N1_1_ligand
#    Modification time : Tue Mar 25 07:09:42 2014

@<TRIPOS>MOLECULE
3g5d_1N1_1_ligand
   60    63     1     0     0
SMALL
NO_CHARGES


@<TRIPOS>ATOM
      1 C1          7.8170  -34.4980   -6.8290 C.2       1 1N11        0.0000 
      2 C2          6.8840  -35.4430   -6.6510 C.2       1 1N11        0.0000 
      3 C3          5.4680  -35.4380   -7.2070 C.2       1 1N11        0.0000 
      4 N6         14.1320  -40.8660   -0.5180 N.4       1 1N11        0.0000 
      5 C7          1.3900  -34.2460   -9.7540 C.ar      1 1N11        0.0000 
      6 C8          2.4170  -34.8960  -10.4300 C.ar      1 1N11        0.0000 
      7 C9          3.6950  -34.9810   -9.8630 C.ar      1 1N11        0.0000 
      8 C10         4.8160  -35.6940  -10.6160 C.3       1 1N11        0.0000 
      9 C11        10.0720  -37.5090   -4.1670 C.ar      1 1N11        0.0000 
     10 C12        11.2620  -38.0280   -3.6710 C.ar      1 1N11        0.0000 
     11 C13        11.2050  -39.2350   -2.9670 C.ar      1 1N11        0.0000 
     12 C14         8.8810  -39.3390   -3.3080 C.ar      1 1N11        0.0000 
     13 C15         7.5460  -40.0600   -3.0910 C.3       1 1N11        0.0000 
     14 C16        12.1320  -41.2480   -1.8640 C.3       1 1N11        0.0000 
     15 C19        13.6830  -39.2940   -2.3820 C.3       1 1N11        0.0000 
     16 C20        14.6020  -41.0110    0.8820 C.3       1 1N11        0.0000 
     17 C21        15.6760  -39.9760    1.2470 C.3       1 1N11        0.0000 
     18 N          10.0700  -36.3630   -4.8530 N.pl3     1 1N11        0.0000 
     19 C           9.0170  -35.9160   -5.5410 C.2       1 1N11        0.0000 
     20 N1          8.9930  -34.7500   -6.2150 N.2       1 1N11        0.0000 
     21 S           7.4970  -36.6730   -5.6880 S.3       1 1N11        0.0000 
     22 N2          5.1820  -34.4560   -8.0630 N.am      1 1N11        0.0000 
     23 C4          3.9520  -34.3870   -8.6140 C.ar      1 1N11        0.0000 
     24 C5          2.9240  -33.7320   -7.9480 C.ar      1 1N11        0.0000 
     25 C6          1.6440  -33.6630   -8.5050 C.ar      1 1N11        0.0000 
     26 CL          3.2530  -33.0200   -6.4030 Cl        1 1N11        0.0000 
     27 O           4.6560  -36.2870   -6.8390 O.2       1 1N11        0.0000 
     28 N3         10.0190  -39.8600   -2.8240 N.ar      1 1N11        0.0000 
     29 N4          8.9190  -38.1740   -3.9710 N.ar      1 1N11        0.0000 
     30 N5         12.3330  -39.8800   -2.4140 N.3       1 1N11        0.0000 
     31 C17        12.7390  -41.3330   -0.4810 C.3       1 1N11        0.0000 
     32 C18        14.2660  -39.4650   -0.9800 C.3       1 1N11        0.0000 
     33 O1         16.6660  -40.6120    2.0890 O.3       1 1N11        0.0000 
     34 H           7.6596  -33.6668   -7.3745 H         1 1N11        0.0000 
     35 H          14.7124  -41.5295   -1.1383 H         1 1N11        0.0000 
     36 H           0.4529  -34.1911  -10.1619 H         1 1N11        0.0000 
     37 H           2.2415  -35.3182  -11.3519 H         1 1N11        0.0000 
     38 H          12.1433  -37.5511   -3.8125 H         1 1N11        0.0000 
     39 H          12.6096  -41.9850   -2.5091 H         1 1N11        0.0000 
     40 H          11.0678  -41.4737   -1.8010 H         1 1N11        0.0000 
     41 H          13.6487  -38.2324   -2.6151 H         1 1N11        0.0000 
     42 H          14.3378  -39.7937   -3.0921 H         1 1N11        0.0000 
     43 H          15.0235  -42.0139    1.0402 H         1 1N11        0.0000 
     44 H          13.7608  -40.8941    1.5801 H         1 1N11        0.0000 
     45 H          15.1861  -39.1499    1.7596 H         1 1N11        0.0000 
     46 H          16.1153  -39.6071    0.3217 H         1 1N11        0.0000 
     47 H          10.9622  -35.7704   -4.8508 H         1 1N11        0.0000 
     48 H           5.9000  -33.7418   -8.3099 H         1 1N11        0.0000 
     49 H           0.8890  -33.1859   -8.0009 H         1 1N11        0.0000 
     50 H          12.1468  -40.7184    0.2017 H         1 1N11        0.0000 
     51 H          12.6915  -42.3699   -0.1389 H         1 1N11        0.0000 
     52 H          15.3200  -39.1710   -1.0040 H         1 1N11        0.0000 
     53 H          13.7397  -38.7877   -0.3001 H         1 1N11        0.0000 
     54 H           5.6743  -35.6816  -10.1031 H         1 1N11        0.0000 
     55 H           4.5936  -36.6529  -10.7922 H         1 1N11        0.0000 
     56 H           4.9979  -35.2677  -11.5021 H         1 1N11        0.0000 
     57 H           7.5497  -40.9767   -3.4907 H         1 1N11        0.0000 
     58 H           7.3341  -40.1647   -2.1193 H         1 1N11        0.0000 
     59 H           6.7837  -39.5627   -3.5053 H         1 1N11        0.0000 
     60 H          17.3661  -39.9119    2.2290 H         1 1N11        0.0000 
@<TRIPOS>BOND
     1    2    1 2    
     2   20    1 1    
     3   34    1 1    
     4    3    2 1    
     5   21    2 1    
     6   22    3 am   
     7   27    3 2    
     8   16    4 1    
     9   31    4 1    
    10   32    4 1    
    11   35    4 1    
    12    6    5 ar   
    13   25    5 ar   
    14   36    5 1    
    15    7    6 ar   
    16   37    6 1    
    17    8    7 1    
    18   23    7 ar   
    19   54    8 1    
    20   55    8 1    
    21   56    8 1    
    22   10    9 ar   
    23   18    9 1    
    24   29    9 ar   
    25   11   10 ar   
    26   38   10 1    
    27   28   11 ar   
    28   30   11 1    
    29   13   12 1    
    30   28   12 ar   
    31   29   12 ar   
    32   57   13 1    
    33   58   13 1    
    34   59   13 1    
    35   30   14 1    
    36   31   14 1    
    37   39   14 1    
    38   40   14 1    
    39   30   15 1    
    40   32   15 1    
    41   41   15 1    
    42   42   15 1    
    43   17   16 1    
    44   43   16 1    
    45   44   16 1    
    46   33   17 1    
    47   45   17 1    
    48   46   17 1    
    49   19   18 1    
    50   47   18 1    
    51   20   19 2    
    52   21   19 1    
    53   23   22 1    
    54   48   22 1    
    55   24   23 ar   
    56   25   24 ar   
    57   26   24 1    
    58   49   25 1    
    59   50   31 1    
    60   51   31 1    
    61   52   32 1    
    62   53   32 1    
    63   60   33 1    
@<TRIPOS>SUBSTRUCTURE
     1 1N11        1 GROUP   
@<TRIPOS>SET

