#    Name: 1q19_APC_3_INTS_M
#    Modification time : Mon Mar 24 22:39:25 2014

@<TRIPOS>MOLECULE
1q19_APC_3_INTS_M
   81     0    15     0     0
SMALL
NO_CHARGES


@<TRIPOS>ATOM
      1 NZ         52.5835   12.4220   70.6460 N.4       3 LYC4        0.0000 
      2 NZ         52.1550   13.2920   71.6860 N.4      13 LYL4        0.0000 
      3 NZ         53.0120   11.5520   69.6060 N.4       8 LYP4        0.0000 
      4 N          50.9030   12.7160   71.9405 N.am      2 SEC2        0.0000 
      5 N          52.1550   13.2920   71.6860 N.am     12 SEL2        0.0000 
      6 N          49.6510   12.1400   72.1950 N.am      7 SEP2        0.0000 
      7 NZ         53.6925   12.5920   71.1615 N.4       3 LYC4        0.0000 
      8 NZ         54.3730   13.6320   72.7170 N.4      13 LYL4        0.0000 
      9 N          55.1305   14.7245   71.6775 N.am      2 SEC2        0.0000 
     10 N          54.3730   13.6320   72.7170 N.am     12 SEL2        0.0000 
     11 N          55.8880   15.8170   70.6380 N.am      7 SEP2        0.0000 
     12 Zn         52.3180   14.6250   74.6790 Zn        4 ZIC7        0.0000 
     13 Zn         52.3120   13.5040   74.2090 Zn       14 ZIL7        0.0000 
     14 Zn         52.3240   15.7460   75.1490 Zn        9 ZIP7        0.0000 
     15 N          52.8175   12.7150   75.1955 N.am      2 SEC2        0.0000 
     16 N          52.3120   13.5040   74.2090 N.am     12 SEL2        0.0000 
     17 N          53.3230   11.9260   76.1820 N.am      7 SEP2        0.0000 
     18 N          52.7660   18.4980   73.4885 N.am      2 SEC2        0.0000 
     19 N          51.9510   17.9270   72.6840 N.am     12 SEL2        0.0000 
     20 N          53.5810   19.0690   74.2930 N.am      7 SEP2        0.0000 
     21 N          52.7205   18.9060   72.1140 N.am      2 SEC2        0.0000 
     22 N          53.4900   19.8850   71.5440 N.am      7 SEP2        0.0000 
     23 N          51.4450   15.1300   70.2835 N.am      2 SEC2        0.0000 
     24 N          51.2900   16.2170   71.1510 N.am     12 SEL2        0.0000 
     25 N          51.6000   14.0430   69.4160 N.am      7 SEP2        0.0000 
     26 Zn         52.5795   15.6520   74.0045 Zn        4 ZIC7        0.0000 
     27 Zn         52.8350   15.5580   72.8600 Zn       14 ZIL7        0.0000 
     28 N          48.0770   14.4785   71.9335 N.am      2 SEC2        0.0000 
     29 N          48.1090   14.5370   73.5020 N.am     12 SEL2        0.0000 
     30 N          48.0450   14.4200   70.3650 N.am      7 SEP2        0.0000 
     31 Zn         51.1210   15.6160   75.1630 Zn        4 ZIC7        0.0000 
     32 Zn         49.9180   15.4860   75.1770 Zn       14 ZIL7        0.0000 
     33 CA         48.7570   19.4175   70.3695 C.3       5 GLC5        0.0000 
     34 CA         48.8640   19.6740   72.5770 C.3      15 GLL5        0.0000 
     35 CA         48.6500   19.1610   68.1620 C.3      10 GLP5        0.0000 
     36 N          48.5805   20.0580   69.9360 N.am      2 SEC2        0.0000 
     37 N          48.8890   19.6510   71.1980 N.am     12 SEL2        0.0000 
     38 N          48.2720   20.4650   68.6740 N.am      7 SEP2        0.0000 
     39 O          49.9030   22.9365   72.3650 O.2       1 ALC1        0.0000 
     40 O          48.7590   22.0690   72.3050 O.2      11 ALL1        0.0000 
     41 O          51.0470   23.8040   72.4250 O.2       6 ALP1        0.0000 
     42 CA         46.7815   22.0905   74.7500 C.3       5 GLC5        0.0000 
     43 CA         48.2220   21.2050   74.5310 C.3      15 GLL5        0.0000 
     44 CA         45.3410   22.9760   74.9690 C.3      10 GLP5        0.0000 
     45 CA         47.3400   20.8960   76.5085 C.3       5 GLC5        0.0000 
     46 CA         46.4580   20.5870   78.4860 C.3      10 GLP5        0.0000 
     47 CA         49.0800   20.5035   78.2250 C.3       5 GLC5        0.0000 
     48 CA         50.7600   21.4390   77.3350 C.3      15 GLL5        0.0000 
     49 CA         47.4000   19.5680   79.1150 C.3      10 GLP5        0.0000 
     50 CA         50.7045   23.2945   79.4050 C.3       5 GLC5        0.0000 
     51 CA         51.7720   22.2650   78.0670 C.3      15 GLL5        0.0000 
     52 CA         49.6370   24.3240   80.7430 C.3      10 GLP5        0.0000 
     53 O          52.5140   22.5200   80.2870 O.2       1 ALC1        0.0000 
     54 O          52.4000   21.8530   79.0350 O.2      11 ALL1        0.0000 
     55 O          52.6280   23.1870   81.5390 O.2       6 ALP1        0.0000 
     56 N          52.1330   24.5305   78.8060 N.am      2 SEC2        0.0000 
     57 N          51.9310   23.5980   77.5190 N.am     12 SEL2        0.0000 
     58 N          52.3350   25.4630   80.0930 N.am      7 SEP2        0.0000 
     59 CA         50.6785   25.0060   74.8035 C.3       5 GLC5        0.0000 
     60 CA         51.2170   24.1510   76.3770 C.3      15 GLL5        0.0000 
     61 CA         50.1400   25.8610   73.2300 C.3      10 GLP5        0.0000 
     62 CA         52.4350   24.2415   74.8345 C.3       5 GLC5        0.0000 
     63 CA         53.6530   24.3320   73.2920 C.3      10 GLP5        0.0000 
     64 CA         52.7595   22.6515   75.8215 C.3       5 GLC5        0.0000 
     65 CA         54.3020   21.1520   75.2660 C.3      10 GLP5        0.0000 
     66 CA         52.3460   25.3010   77.2915 C.3       5 GLC5        0.0000 
     67 CA         53.4750   26.4510   78.2060 C.3      10 GLP5        0.0000 
     68 CA         49.6980   25.5610   76.9305 C.3       5 GLC5        0.0000 
     69 CA         48.1790   26.9710   77.4840 C.3      10 GLP5        0.0000 
     70 CA         49.4575   23.6160   74.8985 C.3       5 GLC5        0.0000 
     71 CA         50.0830   22.0660   76.1920 C.3      15 GLL5        0.0000 
     72 CA         48.8320   25.1660   73.6050 C.3      10 GLP5        0.0000 
     73 CA         45.6292   18.5263   73.1205 C.3       5 GLC5        0.0000 
     74 CA         47.6270   19.1620   73.3640 C.3      15 GLL5        0.0000 
     75 CA         43.5930   18.5380   72.6480 C.3      10 GLP5        0.0000 
     76 CA         50.7135   20.4625   71.8888 C.3       5 GLC5        0.0000 
     77 CA         52.4480   20.5740   70.8640 C.3      10 GLP5        0.0000 
     78 CA         48.7450   23.1412   73.7478 C.3       5 GLC5        0.0000 
     79 CA         49.0940   21.0280   73.2500 C.3      15 GLL5        0.0000 
     80 CA         51.9627   21.0035   76.1012 C.3       5 GLC5        0.0000 
     81 CA         53.2510   20.0480   75.2560 C.3      10 GLP5        0.0000 
@<TRIPOS>BOND
@<TRIPOS>SUBSTRUCTURE
     1 ALC1       39 GROUP        1 X    ALC  0     ROOT ALC X 1
     2 SEC2        4 GROUP        1 X    SEC  0     **** SEC X 2
     3 LYC4        1 GROUP        1 X    LYC  0     **** LYC X 4
     4 ZIC7       12 GROUP        1 X    ZIC  0     **** ZIC X 5
     5 GLC5       33 GROUP        1 X    GLC  0     **** GLC X 6
     6 ALP1       41 GROUP        1 Y    ALP  0     ROOT ALP Y 8
     7 SEP2        6 GROUP        1 Y    SEP  0     **** SEP Y 9
     8 LYP4        3 GROUP        1 Y    LYP  0     **** LYP Y 11
     9 ZIP7       14 GROUP        1 Y    ZIP  0     **** ZIP Y 12
    10 GLP5       35 GROUP        1 Y    GLP  0     **** GLP Y 13
    11 ALL1       40 GROUP        1 Z    ALL  0     ROOT ALL Z 15
    12 SEL2        5 GROUP        1 Z    SEL  0     **** SEL Z 16
    13 LYL4        2 GROUP        1 Z    LYL  0     **** LYL Z 18
    14 ZIL7       13 GROUP        1 Z    ZIL  0     **** ZIL Z 19
    15 GLL5       34 GROUP        1 Z    GLL  0     **** GLL Z 20
@<TRIPOS>SET

