#    Name: 1q19_APC_3_ligand
#    Modification time : Mon Mar 24 22:39:25 2014

@<TRIPOS>MOLECULE
1q19_APC_3_ligand
   45    47     1     0     0
SMALL
NO_CHARGES


@<TRIPOS>ATOM
      1 PG         52.9300   13.9640   72.8250 P.3       1 APC505      0.0000 
      2 O1G        52.1550   13.2920   71.6860 O.co2     1 APC505      0.0000 
      3 O2G        54.3730   13.6320   72.7170 O.co2     1 APC505      0.0000 
      4 O3G        52.3120   13.5040   74.2090 O.co2     1 APC505      0.0000 
      5 PB         51.6330   16.4670   72.5190 P.3       1 APC505      0.0000 
      6 O1B        51.9510   17.9270   72.6840 O.co2     1 APC505      0.0000 
      7 O2B        51.2900   16.2170   71.1510 O.co2     1 APC505      0.0000 
      8 O3B        52.8350   15.5580   72.8600 O.3       1 APC505      0.0000 
      9 PA         48.9990   15.7300   73.9410 P.3       1 APC505      0.0000 
     10 O1A        48.1090   14.5370   73.5020 O.co2     1 APC505      0.0000 
     11 O2A        49.9180   15.4860   75.1770 O.co2     1 APC505      0.0000 
     12 C3A        50.0680   16.1620   72.8330 C.3       1 APC505      0.0000 
     13 O5'        48.5140   16.9550   73.6990 O.3       1 APC505      0.0000 
     14 C5'        47.7040   17.8670   73.8220 C.3       1 APC505      0.0000 
     15 C4'        47.6270   19.1620   73.3640 C.3       1 APC505      0.0000 
     16 O4'        47.4080   20.0390   74.4090 O.3       1 APC505      0.0000 
     17 C3'        48.8640   19.6740   72.5770 C.3       1 APC505      0.0000 
     18 O3'        48.8890   19.6510   71.1980 O.3       1 APC505      0.0000 
     19 C2'        49.0940   21.0280   73.2500 C.3       1 APC505      0.0000 
     20 O2'        48.7590   22.0690   72.3050 O.3       1 APC505      0.0000 
     21 C1'        48.2220   21.2050   74.5310 C.3       1 APC505      0.0000 
     22 N9         49.1930   21.0920   75.7040 N.pl3     1 APC505      0.0000 
     23 C8         49.4080   20.0020   76.5710 C.2       1 APC505      0.0000 
     24 N7         50.2990   20.1470   77.5220 N.2       1 APC505      0.0000 
     25 C5         50.7600   21.4390   77.3350 C.ar      1 APC505      0.0000 
     26 C6         51.7720   22.2650   78.0670 C.ar      1 APC505      0.0000 
     27 N6         52.4000   21.8530   79.0350 N.pl3     1 APC505      0.0000 
     28 N1         51.9310   23.5980   77.5190 N.ar      1 APC505      0.0000 
     29 C2         51.2170   24.1510   76.3770 C.ar      1 APC505      0.0000 
     30 N3         50.2990   23.3990   75.7080 N.ar      1 APC505      0.0000 
     31 C4         50.0830   22.0660   76.1920 C.ar      1 APC505      0.0000 
     32 H          49.7483   15.4392   71.8515 H         1 APC505      0.0000 
     33 H          49.5021   17.1415   72.2776 H         1 APC505      0.0000 
     34 H          47.4187   17.9769   75.0321 H         1 APC505      0.0000 
     35 H          46.5654   17.4142   73.5846 H         1 APC505      0.0000 
     36 H          46.7753   19.2692   72.6384 H         1 APC505      0.0000 
     37 H          49.7161   19.0391   73.0243 H         1 APC505      0.0000 
     38 H          50.1280   21.0994   73.5396 H         1 APC505      0.0000 
     39 H          47.7387   22.0834   74.4827 H         1 APC505      0.0000 
     40 H          48.8643   19.1473   76.4249 H         1 APC505      0.0000 
     41 H          52.6181   20.8770   79.0350 H         1 APC505      0.0000 
     42 H          52.6329   22.5330   79.7302 H         1 APC505      0.0000 
     43 H          51.4357   25.1161   76.1070 H         1 APC505      0.0000 
     44 H          48.5549   18.7421   70.9483 H         1 APC505      0.0000 
     45 H          49.5365   22.6976   72.3262 H         1 APC505      0.0000 
@<TRIPOS>BOND
     1    2    1 ar   
     2    3    1 ar   
     3    4    1 ar   
     4    8    1 1    
     5    6    5 ar   
     6    7    5 ar   
     7    8    5 1    
     8   12    5 1    
     9   10    9 ar   
    10   11    9 ar   
    11   12    9 1    
    12   13    9 1    
    13   32   12 1    
    14   33   12 1    
    15   14   13 1    
    16   15   14 1    
    17   34   14 1    
    18   35   14 1    
    19   16   15 1    
    20   17   15 1    
    21   36   15 1    
    22   21   16 1    
    23   18   17 1    
    24   19   17 1    
    25   37   17 1    
    26   44   18 1    
    27   20   19 1    
    28   21   19 1    
    29   38   19 1    
    30   45   20 1    
    31   22   21 1    
    32   39   21 1    
    33   23   22 1    
    34   31   22 1    
    35   24   23 2    
    36   40   23 1    
    37   25   24 1    
    38   26   25 ar   
    39   31   25 ar   
    40   27   26 1    
    41   28   26 ar   
    42   41   27 1    
    43   42   27 1    
    44   29   28 ar   
    45   30   29 ar   
    46   43   29 1    
    47   31   30 ar   
@<TRIPOS>SUBSTRUCTURE
     1 APC505      1 GROUP   
@<TRIPOS>SET

