#    Name: 3nxt_D2E_1_INTS_M
#    Modification time : Tue Mar 25 02:55:18 2014

@<TRIPOS>MOLECULE
3nxt_D2E_1_INTS_M
   65     0     9     0     0
SMALL
NO_CHARGES


@<TRIPOS>ATOM
      1 N          16.5970    5.2320    4.8600 N.am      2 SEC2        0.0000 
      2 N          16.9650    5.9810    3.8350 N.am      8 SEL2        0.0000 
      3 N          16.2290    4.4830    5.8850 N.am      5 SEP2        0.0000 
      4 CA         18.6365    8.8010    4.0190 C.3       3 GLC5        0.0000 
      5 CA         18.0130    6.8450    3.8990 C.3       9 GLL5        0.0000 
      6 CA         19.2600   10.7570    4.1390 C.3       6 GLP5        0.0000 
      7 CA         19.9260    7.1370    3.2575 C.3       3 GLC5        0.0000 
      8 CA         21.8390    7.4290    2.6160 C.3       6 GLP5        0.0000 
      9 CA         18.9430    5.2295    4.3405 C.3       3 GLC5        0.0000 
     10 CA         19.8730    3.6140    4.7820 C.3       6 GLP5        0.0000 
     11 CA         16.2655    7.7675    3.9745 C.3       3 GLC5        0.0000 
     12 CA         14.5180    8.6900    4.0500 C.3       6 GLP5        0.0000 
     13 CA         19.8890    7.3185    2.1330 C.3       3 GLC5        0.0000 
     14 CA         17.9390    7.2080    1.6500 C.3       9 GLL5        0.0000 
     15 CA         14.5045    1.0060   -1.6910 C.3       3 GLC5        0.0000 
     16 CA         13.8190    2.0700   -2.9710 C.3       9 GLL5        0.0000 
     17 CA         15.1900   -0.0580   -0.4110 C.3       6 GLP5        0.0000 
     18 O          20.2070    7.0215    5.0175 O.2       1 ALC1        0.0000 
     19 O          18.6160    7.0160    5.0770 O.2       7 ALL1        0.0000 
     20 O          21.7980    7.0270    4.9580 O.2       4 ALP1        0.0000 
     21 O          18.0145    6.4195    6.1905 O.2       1 ALC1        0.0000 
     22 O          17.4130    5.8230    7.3040 O.2       4 ALP1        0.0000 
     23 O          15.7300    4.6995    4.2935 O.2       1 ALC1        0.0000 
     24 O          15.2310    4.9160    2.7020 O.2       7 ALL1        0.0000 
     25 O          16.2290    4.4830    5.8850 O.2       4 ALP1        0.0000 
     26 CA         10.2280    5.5750   -4.4070 C.3       3 GLC5        0.0000 
     27 CA         10.7310    4.8560   -2.6590 C.3       9 GLL5        0.0000 
     28 CA          9.7250    6.2940   -6.1550 C.3       6 GLP5        0.0000 
     29 CA         11.4510    4.0810   -4.7095 C.3       3 GLC5        0.0000 
     30 CA         11.7140    3.8650   -2.6820 C.3       9 GLL5        0.0000 
     31 CA         11.1880    4.2970   -6.7370 C.3       6 GLP5        0.0000 
     32 CA         17.6880    9.0865   -1.4845 C.3       3 GLC5        0.0000 
     33 CA         17.3470    7.2890   -0.4780 C.3       9 GLL5        0.0000 
     34 CA         18.0290   10.8840   -2.4910 C.3       6 GLP5        0.0000 
     35 CA         14.9570    8.7555   -1.9120 C.3       3 GLC5        0.0000 
     36 CA         15.3240    7.5310   -3.7280 C.3       9 GLL5        0.0000 
     37 CA         14.5900    9.9800   -0.0960 C.3       6 GLP5        0.0000 
     38 CA         16.3460    9.2780   -3.8340 C.3       3 GLC5        0.0000 
     39 CA         17.3680   11.0250   -3.9400 C.3       6 GLP5        0.0000 
     40 N          19.2310    6.4050    0.7265 N.am      2 SEC2        0.0000 
     41 N          18.2950    7.7460    0.5070 N.am      8 SEL2        0.0000 
     42 N          20.1670    5.0640    0.9460 N.am      5 SEP2        0.0000 
     43 CA         17.7160    6.0170   -3.0420 C.3       3 GLC5        0.0000 
     44 CA         15.6550    6.3710   -2.8060 C.3       9 GLL5        0.0000 
     45 CA         19.7770    5.6630   -3.2780 C.3       6 GLP5        0.0000 
     46 CA         15.6704    7.4934    3.0886 C.3       3 GLC5        0.0000 
     47 CA         16.2890    5.7730    2.6780 C.3       9 GLL5        0.0000 
     48 CA         13.0977    5.9105    0.0957 C.3       3 GLC5        0.0000 
     49 CA         15.2010    5.9220   -0.3780 C.3       9 GLL5        0.0000 
     50 CA         11.2610    5.8250    1.2200 C.3       6 GLP5        0.0000 
     51 CA         14.1893    7.7475   -0.2903 C.3       3 GLC5        0.0000 
     52 CA         13.4440    9.4990    0.4480 C.3       6 GLP5        0.0000 
     53 CA         10.1837    3.4763   -4.0137 C.3       3 GLC5        0.0000 
     54 CA          9.1450    2.5920   -5.3570 C.3       6 GLP5        0.0000 
     55 CA         11.9605    6.4730   -4.1427 C.3       3 GLC5        0.0000 
     56 CA         11.0280    6.1880   -2.3230 C.3       9 GLL5        0.0000 
     57 CA         12.2470    6.5530   -6.1380 C.3       6 GLP5        0.0000 
     58 CA         11.0955    8.0055   -2.7147 C.3       3 GLC5        0.0000 
     59 CA         10.5170    9.6180   -3.2820 C.3       6 GLP5        0.0000 
     60 CA         13.7568    6.6785   -5.0607 C.3       3 GLC5        0.0000 
     61 CA         15.2090    6.0770   -4.2390 C.3       9 GLL5        0.0000 
     62 CA         12.7148    5.7570   -4.1705 C.3       3 GLC5        0.0000 
     63 CA         13.3230    5.6360   -2.0330 C.3       9 GLL5        0.0000 
     64 CA         16.6389    6.8428   -4.8234 C.3       3 GLC5        0.0000 
     65 CA         17.8170    7.0980   -6.2520 C.3       6 GLP5        0.0000 
@<TRIPOS>BOND
@<TRIPOS>SUBSTRUCTURE
     1 ALC1       18 GROUP        1 X    ALC  0     ROOT ALC X 1
     2 SEC2        1 GROUP        1 X    SEC  0     **** SEC X 2
     3 GLC5        4 GROUP        1 X    GLC  0     **** GLC X 6
     4 ALP1       20 GROUP        1 Y    ALP  0     ROOT ALP Y 8
     5 SEP2        3 GROUP        1 Y    SEP  0     **** SEP Y 9
     6 GLP5        6 GROUP        1 Y    GLP  0     **** GLP Y 13
     7 ALL1       19 GROUP        1 Z    ALL  0     ROOT ALL Z 15
     8 SEL2        2 GROUP        1 Z    SEL  0     **** SEL Z 16
     9 GLL5        5 GROUP        1 Z    GLL  0     **** GLL Z 20
@<TRIPOS>SET

