#    Name: 3nxt_D2E_1_ligand
#    Modification time : Tue Mar 25 02:55:18 2014

@<TRIPOS>MOLECULE
3nxt_D2E_1_ligand
   42    45     1     0     0
SMALL
NO_CHARGES


@<TRIPOS>ATOM
      1 N1         16.9650    5.9810    3.8350 N.ar      1 D2E188      0.0000 
      2 C2         18.0130    6.8450    3.8990 C.ar      1 D2E188      0.0000 
      3 N3         18.5190    7.4240    2.8270 N.ar      1 D2E188      0.0000 
      4 C4         17.9390    7.2080    1.6500 C.ar      1 D2E188      0.0000 
      5 C5         16.7740    6.4330    1.5030 C.ar      1 D2E188      0.0000 
      6 C6         16.2890    5.7730    2.6780 C.ar      1 D2E188      0.0000 
      7 CAA        13.8190    2.0700   -2.9710 C.3       1 D2E188      0.0000 
      8 NAB        18.6160    7.0160    5.0770 N.pl3     1 D2E188      0.0000 
      9 NAC        15.2310    4.9160    2.7020 N.pl3     1 D2E188      0.0000 
     10 CAD        15.2010    5.9220   -0.3780 C.2       1 D2E188      0.0000 
     11 CAE        10.7310    4.8560   -2.6590 C.ar      1 D2E188      0.0000 
     12 CAF        11.0280    6.1880   -2.3230 C.ar      1 D2E188      0.0000 
     13 CAG        11.7140    3.8650   -2.6820 C.ar      1 D2E188      0.0000 
     14 CAH        12.3200    6.5980   -1.9720 C.ar      1 D2E188      0.0000 
     15 CAI        17.3470    7.2890   -0.4780 C.2       1 D2E188      0.0000 
     16 CAJ        15.3240    7.5310   -3.7280 C.3       1 D2E188      0.0000 
     17 CAK        15.2090    6.0770   -4.2390 C.3       1 D2E188      0.0000 
     18 OAN        14.1120    3.3940   -2.3810 O.3       1 D2E188      0.0000 
     19 OAO        18.2950    7.7460    0.5070 O.3       1 D2E188      0.0000 
     20 CAP        14.6680    6.0700   -1.6790 C.2       1 D2E188      0.0000 
     21 CAR        16.4280    6.4820    0.1520 C.2       1 D2E188      0.0000 
     22 CAT        13.0420    4.2860   -2.3730 C.ar      1 D2E188      0.0000 
     23 CAU        13.3230    5.6360   -2.0330 C.ar      1 D2E188      0.0000 
     24 CAX        15.6550    6.3710   -2.8060 C.3       1 D2E188      0.0000 
     25 H          18.2497    6.4837    5.8402 H         1 D2E188      0.0000 
     26 H          19.3800    7.6610    5.0907 H         1 D2E188      0.0000 
     27 H          14.7312    4.8098    1.8424 H         1 D2E188      0.0000 
     28 H          15.0471    4.4684    3.5771 H         1 D2E188      0.0000 
     29 H          14.6369    5.3235    0.3117 H         1 D2E188      0.0000 
     30 H           9.7517    4.6060   -2.8962 H         1 D2E188      0.0000 
     31 H          10.2616    6.8903   -2.3362 H         1 D2E188      0.0000 
     32 H          11.5151    2.9147   -2.8997 H         1 D2E188      0.0000 
     33 H          12.5093    7.5435   -1.6899 H         1 D2E188      0.0000 
     34 H          17.3831    7.5242   -1.3891 H         1 D2E188      0.0000 
     35 H          14.4483    7.8212   -3.5270 H         1 D2E188      0.0000 
     36 H          16.1362    7.8763   -4.0636 H         1 D2E188      0.0000 
     37 H          15.9835    5.9037   -4.7462 H         1 D2E188      0.0000 
     38 H          14.2957    5.8486   -4.2096 H         1 D2E188      0.0000 
     39 H          16.6040    6.2863   -2.7830 H         1 D2E188      0.0000 
     40 H          14.6177    1.4687   -2.9491 H         1 D2E188      0.0000 
     41 H          13.0845    1.5997   -2.4818 H         1 D2E188      0.0000 
     42 H          13.5340    2.1441   -3.9267 H         1 D2E188      0.0000 
@<TRIPOS>BOND
     1    2    1 ar   
     2    6    1 ar   
     3    3    2 ar   
     4    8    2 1    
     5    4    3 ar   
     6    5    4 ar   
     7   19    4 1    
     8    6    5 ar   
     9   21    5 1    
    10    9    6 1    
    11   18    7 1    
    12   40    7 1    
    13   41    7 1    
    14   42    7 1    
    15   25    8 1    
    16   26    8 1    
    17   27    9 1    
    18   28    9 1    
    19   20   10 2    
    20   21   10 1    
    21   29   10 1    
    22   12   11 ar   
    23   13   11 ar   
    24   30   11 1    
    25   14   12 ar   
    26   31   12 1    
    27   22   13 ar   
    28   32   13 1    
    29   23   14 ar   
    30   33   14 1    
    31   19   15 1    
    32   21   15 2    
    33   34   15 1    
    34   17   16 1    
    35   24   16 1    
    36   35   16 1    
    37   36   16 1    
    38   24   17 1    
    39   37   17 1    
    40   38   17 1    
    41   22   18 1    
    42   23   20 1    
    43   24   20 1    
    44   23   22 ar   
    45   39   24 1    
@<TRIPOS>SUBSTRUCTURE
     1 D2E188      1 GROUP   
@<TRIPOS>SET

