#    Name: 1t57_FMN_3_INTS_M
#    Modification time : Tue Mar 25 04:22:46 2014

@<TRIPOS>MOLECULE
1t57_FMN_3_INTS_M
   61     0     9     0     0
SMALL
NO_CHARGES


@<TRIPOS>ATOM
      1 N         -16.4625    0.7355  -34.6590 N.am      2 SEC2        0.0000 
      2 N         -15.4650    0.7750  -33.2950 N.am      8 SEL2        0.0000 
      3 N         -17.4600    0.6960  -36.0230 N.am      5 SEP2        0.0000 
      4 N         -12.1245   -1.9205  -29.6930 N.am      2 SEC2        0.0000 
      5 N         -13.2570   -1.4550  -30.1520 N.am      8 SEL2        0.0000 
      6 N         -10.9920   -2.3860  -29.2340 N.am      5 SEP2        0.0000 
      7 CA        -14.7170   -6.5330  -28.8375 C.3       3 GLC5        0.0000 
      8 CA        -14.4730   -6.3460  -30.9360 C.3       9 GLL5        0.0000 
      9 CA        -14.9610   -6.7200  -26.7390 C.3       6 GLP5        0.0000 
     10 CA        -13.0275   -5.5975  -32.4340 C.3       3 GLC5        0.0000 
     11 CA        -11.5820   -4.8490  -33.9320 C.3       6 GLP5        0.0000 
     12 CA        -14.6385  -10.6770  -31.0610 C.3       3 GLC5        0.0000 
     13 CA        -14.6740   -8.7080  -30.4970 C.3       9 GLL5        0.0000 
     14 CA        -14.6030  -12.6460  -31.6250 C.3       6 GLP5        0.0000 
     15 CA        -14.4120   -8.2540  -28.5640 C.3       3 GLC5        0.0000 
     16 CA        -14.1500   -7.8000  -26.6310 C.3       6 GLP5        0.0000 
     17 CA        -13.1230   -9.2700  -30.0460 C.3       3 GLC5        0.0000 
     18 CA        -11.5720   -9.8320  -29.5950 C.3       6 GLP5        0.0000 
     19 CA        -17.7135  -10.1780  -32.3675 C.3       3 GLC5        0.0000 
     20 CA        -16.8840   -8.7170  -32.7340 C.3       9 GLL5        0.0000 
     21 CA        -18.5430  -11.6390  -32.0010 C.3       6 GLP5        0.0000 
     22 CA        -15.8325   -6.3370  -35.7380 C.3       3 GLC5        0.0000 
     23 CA        -17.0670   -4.6510  -35.5290 C.3       9 GLL5        0.0000 
     24 CA        -14.5980   -8.0230  -35.9470 C.3       6 GLP5        0.0000 
     25 O         -15.2005   -3.5195  -36.3265 O.2       1 ALC1        0.0000 
     26 O         -15.7330   -4.9130  -35.8700 O.2       7 ALL1        0.0000 
     27 O         -14.6680   -2.1260  -36.7830 O.2       4 ALP1        0.0000 
     28 N         -19.0340   -2.4330  -37.9690 N.am      2 SEC2        0.0000 
     29 N         -18.5750   -2.8740  -36.3650 N.am      8 SEL2        0.0000 
     30 N         -19.4930   -1.9920  -39.5730 N.am      5 SEP2        0.0000 
     31 CA        -18.9705   -3.7195  -39.1665 C.3       3 GLC5        0.0000 
     32 CA        -18.8580   -4.9470  -37.4540 C.3       9 GLL5        0.0000 
     33 CA        -19.0830   -2.4920  -40.8790 C.3       6 GLP5        0.0000 
     34 CA        -21.1835   -5.7625  -35.4265 C.3       3 GLC5        0.0000 
     35 CA        -20.1290   -5.3960  -36.6930 C.3       9 GLL5        0.0000 
     36 CA        -22.2380   -6.1290  -34.1600 C.3       6 GLP5        0.0000 
     37 N         -20.5845   -7.4965  -36.3010 N.am      2 SEC2        0.0000 
     38 N         -20.5950   -6.5610  -37.4410 N.am      8 SEL2        0.0000 
     39 N         -20.5740   -8.4320  -35.1610 N.am      5 SEP2        0.0000 
     40 N         -20.9185   -8.4390  -39.2050 N.am      2 SEC2        0.0000 
     41 N         -21.9430   -7.7620  -39.0950 N.am      8 SEL2        0.0000 
     42 N         -19.8940   -9.1160  -39.3150 N.am      5 SEP2        0.0000 
     43 N         -23.4575   -8.1965  -38.5670 N.am      2 SEC2        0.0000 
     44 N         -24.9720   -8.6310  -38.0390 N.am      5 SEP2        0.0000 
     45 N         -21.8205   -8.4315  -40.6045 N.am      2 SEC2        0.0000 
     46 N         -21.6980   -9.1010  -42.1140 N.am      5 SEP2        0.0000 
     47 N         -21.1895   -7.2165  -40.3850 N.am      2 SEC2        0.0000 
     48 N         -20.4360   -6.6710  -41.6750 N.am      5 SEP2        0.0000 
     49 N         -24.0205   -7.4630  -37.7235 N.am      2 SEC2        0.0000 
     50 N         -23.0690   -6.2950  -37.4080 N.am      8 SEL2        0.0000 
     51 N         -21.1035   -5.9605  -40.4945 N.am      2 SEC2        0.0000 
     52 N         -21.7710   -5.2500  -39.3140 N.am      8 SEL2        0.0000 
     53 CA        -13.7442   -4.2643  -32.7445 C.3       3 GLC5        0.0000 
     54 CA        -15.9110   -5.0060  -32.4950 C.3       9 GLL5        0.0000 
     55 CA        -12.0960   -3.4830  -33.5220 C.3       6 GLP5        0.0000 
     56 CA        -13.5356   -8.6406  -31.9340 C.3       3 GLC5        0.0000 
     57 CA        -12.3110   -9.4570  -33.0630 C.3       6 GLP5        0.0000 
     58 CA        -15.6116   -7.5981  -34.2914 C.3       3 GLC5        0.0000 
     59 CA        -16.2730   -7.4700  -32.2750 C.3       9 GLL5        0.0000 
     60 CA        -19.3547   -7.2147  -37.0382 C.3       3 GLC5        0.0000 
     61 CA        -19.2160   -9.2580  -37.0030 C.3       6 GLP5        0.0000 
@<TRIPOS>BOND
@<TRIPOS>SUBSTRUCTURE
     1 ALC1       25 GROUP        1 X    ALC  0     ROOT ALC X 1
     2 SEC2        1 GROUP        1 X    SEC  0     **** SEC X 2
     3 GLC5        7 GROUP        1 X    GLC  0     **** GLC X 6
     4 ALP1       27 GROUP        1 Y    ALP  0     ROOT ALP Y 8
     5 SEP2        3 GROUP        1 Y    SEP  0     **** SEP Y 9
     6 GLP5        9 GROUP        1 Y    GLP  0     **** GLP Y 13
     7 ALL1       26 GROUP        1 Z    ALL  0     ROOT ALL Z 15
     8 SEL2        2 GROUP        1 Z    SEL  0     **** SEL Z 16
     9 GLL5        8 GROUP        1 Z    GLL  0     **** GLL Z 20
@<TRIPOS>SET

