#    Name: 1t57_FMN_3_ligand
#    Modification time : Tue Mar 25 04:22:46 2014

@<TRIPOS>MOLECULE
1t57_FMN_3_ligand
   50    52     1     0     0
SMALL
NO_CHARGES


@<TRIPOS>ATOM
      1 N1        -15.7670   -1.5320  -33.3580 N.2       1 FMN202      0.0000 
      2 C2        -15.1920   -0.3750  -32.9530 C.2       1 FMN202      0.0000 
      3 O2        -15.4650    0.7750  -33.2950 O.2       1 FMN202      0.0000 
      4 N3        -14.1010   -0.4630  -31.9750 N.am      1 FMN202      0.0000 
      5 C4        -13.9390   -1.6210  -31.1560 C.2       1 FMN202      0.0000 
      6 O4        -13.2570   -1.4550  -30.1520 O.2       1 FMN202      0.0000 
      7 C4A       -14.5730   -2.7680  -31.5920 C.2       1 FMN202      0.0000 
      8 N5        -14.3250   -3.8690  -30.9780 N.2       1 FMN202      0.0000 
      9 C5A       -14.8740   -5.0850  -31.4390 C.ar      1 FMN202      0.0000 
     10 C6        -14.4730   -6.3460  -30.9360 C.ar      1 FMN202      0.0000 
     11 C7        -15.2200   -7.5350  -31.2900 C.ar      1 FMN202      0.0000 
     12 C7M       -14.6740   -8.7080  -30.4970 C.3       1 FMN202      0.0000 
     13 C8        -16.2730   -7.4700  -32.2750 C.ar      1 FMN202      0.0000 
     14 C8M       -16.8840   -8.7170  -32.7340 C.3       1 FMN202      0.0000 
     15 C9        -16.6720   -6.2530  -32.7670 C.ar      1 FMN202      0.0000 
     16 C9A       -15.9110   -5.0060  -32.4950 C.ar      1 FMN202      0.0000 
     17 N10       -16.2010   -3.8480  -33.2220 N.pl3     1 FMN202      0.0000 
     18 C10       -15.5550   -2.7220  -32.7740 C.2       1 FMN202      0.0000 
     19 C1'       -17.1340   -3.6530  -34.3610 C.3       1 FMN202      0.0000 
     20 C2'       -17.0670   -4.6510  -35.5290 C.3       1 FMN202      0.0000 
     21 O2'       -15.7330   -4.9130  -35.8700 O.3       1 FMN202      0.0000 
     22 C3'       -17.8090   -4.0620  -36.7200 C.3       1 FMN202      0.0000 
     23 O3'       -18.5750   -2.8740  -36.3650 O.3       1 FMN202      0.0000 
     24 C4'       -18.8580   -4.9470  -37.4540 C.3       1 FMN202      0.0000 
     25 O4'       -19.3030   -4.2980  -38.5980 O.3       1 FMN202      0.0000 
     26 C5'       -20.1290   -5.3960  -36.6930 C.3       1 FMN202      0.0000 
     27 O5'       -20.5950   -6.5610  -37.4410 O.3       1 FMN202      0.0000 
     28 P         -21.9020   -6.4200  -38.3260 P.3       1 FMN202      0.0000 
     29 O1P       -21.9430   -7.7620  -39.0950 O.co2     1 FMN202      0.0000 
     30 O2P       -23.0690   -6.2950  -37.4080 O.co2     1 FMN202      0.0000 
     31 O3P       -21.7710   -5.2500  -39.3140 O.co2     1 FMN202      0.0000 
     32 H         -13.4599    0.3219  -31.8927 H         1 FMN202      0.0000 
     33 H         -13.6662   -6.4317  -30.3280 H         1 FMN202      0.0000 
     34 H         -17.5180   -6.1502  -33.3475 H         1 FMN202      0.0000 
     35 H         -16.9934   -2.6227  -34.7891 H         1 FMN202      0.0000 
     36 H         -18.1928   -3.6476  -33.9821 H         1 FMN202      0.0000 
     37 H         -17.5927   -5.5448  -35.2204 H         1 FMN202      0.0000 
     38 H         -17.0785   -3.7572  -37.4932 H         1 FMN202      0.0000 
     39 H         -18.3331   -5.8827  -37.7626 H         1 FMN202      0.0000 
     40 H         -20.8357   -4.5972  -36.7225 H         1 FMN202      0.0000 
     41 H         -19.8485   -5.6513  -35.6957 H         1 FMN202      0.0000 
     42 H         -13.7056   -8.8675  -30.6890 H         1 FMN202      0.0000 
     43 H         -14.7571   -8.5608  -29.5114 H         1 FMN202      0.0000 
     44 H         -15.1584   -9.5569  -30.7084 H         1 FMN202      0.0000 
     45 H         -16.2125   -9.3264  -33.1556 H         1 FMN202      0.0000 
     46 H         -17.3068   -9.2223  -31.9817 H         1 FMN202      0.0000 
     47 H         -17.5982   -8.5522  -33.4143 H         1 FMN202      0.0000 
     48 H         -15.3714   -4.0377  -36.1911 H         1 FMN202      0.0000 
     49 H         -19.2868   -2.8067  -37.0641 H         1 FMN202      0.0000 
     50 H         -20.1316   -4.7884  -38.8678 H         1 FMN202      0.0000 
@<TRIPOS>BOND
     1    2    1 1    
     2   18    1 2    
     3    3    2 2    
     4    4    2 am   
     5    5    4 am   
     6   32    4 1    
     7    6    5 2    
     8    7    5 1    
     9    8    7 2    
    10   18    7 1    
    11    9    8 1    
    12   10    9 ar   
    13   16    9 ar   
    14   11   10 ar   
    15   33   10 1    
    16   12   11 1    
    17   13   11 ar   
    18   42   12 1    
    19   43   12 1    
    20   44   12 1    
    21   14   13 1    
    22   15   13 ar   
    23   45   14 1    
    24   46   14 1    
    25   47   14 1    
    26   16   15 ar   
    27   34   15 1    
    28   17   16 1    
    29   18   17 1    
    30   19   17 1    
    31   20   19 1    
    32   35   19 1    
    33   36   19 1    
    34   21   20 1    
    35   22   20 1    
    36   37   20 1    
    37   48   21 1    
    38   23   22 1    
    39   24   22 1    
    40   38   22 1    
    41   49   23 1    
    42   25   24 1    
    43   26   24 1    
    44   39   24 1    
    45   50   25 1    
    46   27   26 1    
    47   40   26 1    
    48   41   26 1    
    49   28   27 1    
    50   29   28 ar   
    51   30   28 ar   
    52   31   28 ar   
@<TRIPOS>SUBSTRUCTURE
     1 FMN202      1 GROUP   
@<TRIPOS>SET

