#    Name: 3a8w_ATP_2_INTS_M
#    Modification time : Mon Apr  7 18:59:43 2014

@<TRIPOS>MOLECULE
3a8w_ATP_2_INTS_M
   59     0    12     0     0
SMALL
NO_CHARGES


@<TRIPOS>ATOM
      1 N         -21.3400  -51.4610  -43.6480 N.am      2 SEC2        0.0000 
      2 N         -21.3250  -50.1710  -44.1870 N.am     10 SEL2        0.0000 
      3 N         -21.3550  -52.7510  -43.1090 N.am      6 SEP2        0.0000 
      4 NZ        -17.8870  -47.1590  -40.6235 N.4       3 LYC4        0.0000 
      5 NZ        -18.0770  -48.4140  -41.3560 N.4      11 LYL4        0.0000 
      6 NZ        -17.6970  -45.9040  -39.8910 N.4       7 LYP4        0.0000 
      7 N         -17.8870  -47.1590  -40.6235 N.am      2 SEC2        0.0000 
      8 N         -18.0770  -48.4140  -41.3560 N.am     10 SEL2        0.0000 
      9 N         -17.6970  -45.9040  -39.8910 N.am      6 SEP2        0.0000 
     10 N         -17.4385  -47.7740  -42.0975 N.am      2 SEC2        0.0000 
     11 N         -16.8000  -47.1340  -42.8390 N.am      6 SEP2        0.0000 
     12 N         -19.1715  -51.9705  -41.8430 N.am      2 SEC2        0.0000 
     13 N         -19.5160  -50.5800  -41.6140 N.am     10 SEL2        0.0000 
     14 N         -18.8270  -53.3610  -42.0720 N.am      6 SEP2        0.0000 
     15 N         -19.1735  -51.4525  -40.5010 N.am      2 SEC2        0.0000 
     16 N         -18.8310  -52.3250  -39.3880 N.am      6 SEP2        0.0000 
     17 NZ        -18.9700  -45.9495  -40.4770 N.4       3 LYC4        0.0000 
     18 NZ        -20.2430  -45.9950  -41.0630 N.4      11 LYL4        0.0000 
     19 N         -18.9700  -45.9495  -40.4770 N.am      2 SEC2        0.0000 
     20 N         -20.2430  -45.9950  -41.0630 N.am     10 SEL2        0.0000 
     21 CA        -23.8960  -49.5995  -38.8550 C.3       4 GLC5        0.0000 
     22 CA        -23.3130  -47.7680  -39.4540 C.3      12 GLL5        0.0000 
     23 CA        -24.4790  -51.4310  -38.2560 C.3       8 GLP5        0.0000 
     24 CA        -23.0525  -49.5865  -40.5575 C.3       4 GLC5        0.0000 
     25 CA        -22.7920  -51.4050  -41.6610 C.3       8 GLP5        0.0000 
     26 CA        -25.2210  -47.8265  -37.4310 C.3       4 GLC5        0.0000 
     27 CA        -24.3690  -46.8300  -38.8630 C.3      12 GLL5        0.0000 
     28 CA        -26.0730  -48.8230  -35.9990 C.3       8 GLP5        0.0000 
     29 CA        -25.3005  -46.9255  -36.6935 C.3       4 GLC5        0.0000 
     30 CA        -24.5280  -45.0280  -37.3880 C.3      12 GLL5        0.0000 
     31 CA        -23.1745  -45.6770  -35.8050 C.3       4 GLC5        0.0000 
     32 CA        -21.8210  -46.3260  -34.2220 C.3       8 GLP5        0.0000 
     33 CA        -22.0905  -39.1655  -35.6295 C.3       4 GLC5        0.0000 
     34 CA        -21.8720  -41.2830  -35.5590 C.3      12 GLL5        0.0000 
     35 CA        -22.3090  -37.0480  -35.7000 C.3       8 GLP5        0.0000 
     36 O         -20.3295  -39.8140  -34.6205 O.2       1 ALC1        0.0000 
     37 O         -20.6660  -40.6550  -35.6280 O.2       9 ALL1        0.0000 
     38 O         -19.9930  -38.9730  -33.6130 O.2       5 ALP1        0.0000 
     39 N         -23.1380  -39.5860  -34.0945 N.am      2 SEC2        0.0000 
     40 N         -22.8900  -40.8560  -34.7680 N.am     10 SEL2        0.0000 
     41 N         -23.3860  -38.3160  -33.4210 N.am      6 SEP2        0.0000 
     42 CA        -24.3520  -42.9890  -33.5135 C.3       4 GLC5        0.0000 
     43 CA        -24.0630  -41.4940  -34.6990 C.3      12 GLL5        0.0000 
     44 CA        -24.6410  -44.4840  -32.3280 C.3       8 GLP5        0.0000 
     45 CA        -22.3875  -42.1370  -33.5195 C.3       4 GLC5        0.0000 
     46 CA        -20.7120  -42.7800  -32.3400 C.3       8 GLP5        0.0000 
     47 CA        -24.1630  -39.4565  -34.4390 C.3       4 GLC5        0.0000 
     48 CA        -24.2630  -37.4190  -34.1790 C.3       8 GLP5        0.0000 
     49 CA        -24.0285  -43.7905  -34.3100 C.3       4 GLC5        0.0000 
     50 CA        -23.4160  -43.0970  -36.2920 C.3      12 GLL5        0.0000 
     51 CA        -22.6660  -47.6160  -37.6462 C.3       4 GLC5        0.0000 
     52 CA        -21.4910  -47.9330  -36.1340 C.3       8 GLP5        0.0000 
     53 CA        -22.2905  -44.5508  -35.2860 C.3       4 GLC5        0.0000 
     54 CA        -21.3500  -42.3243  -34.1617 C.3       4 GLC5        0.0000 
     55 CA        -22.1040  -42.4540  -36.4080 C.3      12 GLL5        0.0000 
     56 CA        -19.9620  -42.2567  -35.6448 C.3       4 GLC5        0.0000 
     57 CA        -17.9360  -42.6450  -35.3060 C.3       8 GLP5        0.0000 
     58 CA        -23.1985  -40.9459  -37.4449 C.3       4 GLC5        0.0000 
     59 CA        -23.6950  -39.4090  -38.7520 C.3       8 GLP5        0.0000 
@<TRIPOS>BOND
@<TRIPOS>SUBSTRUCTURE
     1 ALC1       36 GROUP        1 X    ALC  0     ROOT ALC X 1
     2 SEC2        1 GROUP        1 X    SEC  0     **** SEC X 2
     3 LYC4        4 GROUP        1 X    LYC  0     **** LYC X 4
     4 GLC5       21 GROUP        1 X    GLC  0     **** GLC X 6
     5 ALP1       38 GROUP        1 Y    ALP  0     ROOT ALP Y 8
     6 SEP2        3 GROUP        1 Y    SEP  0     **** SEP Y 9
     7 LYP4        6 GROUP        1 Y    LYP  0     **** LYP Y 11
     8 GLP5       23 GROUP        1 Y    GLP  0     **** GLP Y 13
     9 ALL1       37 GROUP        1 Z    ALL  0     ROOT ALL Z 15
    10 SEL2        2 GROUP        1 Z    SEL  0     **** SEL Z 16
    11 LYL4        5 GROUP        1 Z    LYL  0     **** LYL Z 18
    12 GLL5       22 GROUP        1 Z    GLL  0     **** GLL Z 20
@<TRIPOS>SET

