#    Name: 3a8w_ATP_2_ligand
#    Modification time : Mon Apr  7 18:59:43 2014

@<TRIPOS>MOLECULE
3a8w_ATP_2_ligand
   43    45     1     0     0
SMALL
NO_CHARGES


@<TRIPOS>ATOM
      1 PG        -20.0640  -49.4670  -44.5680 P.3       1 ATP601      0.0000 
      2 O1G       -18.8890  -50.3890  -44.8300 O.co2     1 ATP601      0.0000 
      3 O2G       -20.1900  -48.3520  -45.5770 O.co2     1 ATP601      0.0000 
      4 O3G       -21.3250  -50.1710  -44.1870 O.co2     1 ATP601      0.0000 
      5 PB        -19.3770  -49.0910  -41.7320 P.3       1 ATP601      0.0000 
      6 O1B       -18.0770  -48.4140  -41.3560 O.co2     1 ATP601      0.0000 
      7 O2B       -19.5160  -50.5800  -41.6140 O.co2     1 ATP601      0.0000 
      8 O3B       -19.6480  -48.5950  -43.2460 O.3       1 ATP601      0.0000 
      9 PA        -21.3070  -47.0410  -41.0300 P.3       1 ATP601      0.0000 
     10 O1A       -20.2430  -45.9950  -41.0630 O.co2     1 ATP601      0.0000 
     11 O2A       -22.3270  -47.1060  -42.1320 O.co2     1 ATP601      0.0000 
     12 O3A       -20.5930  -48.5060  -40.8360 O.3       1 ATP601      0.0000 
     13 O5'       -22.1150  -47.0070  -39.6500 O.3       1 ATP601      0.0000 
     14 C5'       -23.3130  -47.7680  -39.4540 C.3       1 ATP601      0.0000 
     15 C4'       -24.3690  -46.8300  -38.8630 C.3       1 ATP601      0.0000 
     16 O4'       -24.0260  -46.3540  -37.5520 O.3       1 ATP601      0.0000 
     17 C3'       -24.5210  -45.5680  -39.6830 C.3       1 ATP601      0.0000 
     18 O3'       -25.3890  -45.8260  -40.7720 O.3       1 ATP601      0.0000 
     19 C2'       -25.1600  -44.6110  -38.7050 C.3       1 ATP601      0.0000 
     20 O2'       -26.5730  -44.8580  -38.5990 O.3       1 ATP601      0.0000 
     21 C1'       -24.5280  -45.0280  -37.3880 C.3       1 ATP601      0.0000 
     22 N9        -23.4060  -44.0980  -37.1730 N.pl3     1 ATP601      0.0000 
     23 C8        -22.2020  -44.1390  -37.7870 C.2       1 ATP601      0.0000 
     24 N7        -21.4000  -43.1330  -37.3400 N.2       1 ATP601      0.0000 
     25 C5        -22.1040  -42.4540  -36.4080 C.ar      1 ATP601      0.0000 
     26 C6        -21.8720  -41.2830  -35.5590 C.ar      1 ATP601      0.0000 
     27 N6        -20.6660  -40.6550  -35.6280 N.pl3     1 ATP601      0.0000 
     28 N1        -22.8900  -40.8560  -34.7680 N.ar      1 ATP601      0.0000 
     29 C2        -24.0630  -41.4940  -34.6990 C.ar      1 ATP601      0.0000 
     30 N3        -24.3330  -42.5750  -35.4430 N.ar      1 ATP601      0.0000 
     31 C4        -23.4160  -43.0970  -36.2920 C.ar      1 ATP601      0.0000 
     32 H         -23.1640  -48.5871  -38.7552 H         1 ATP601      0.0000 
     33 H         -23.7013  -48.1622  -40.3895 H         1 ATP601      0.0000 
     34 H         -25.3237  -47.3273  -38.8454 H         1 ATP601      0.0000 
     35 H         -23.5737  -45.2171  -39.9489 H         1 ATP601      0.0000 
     36 H         -24.9007  -43.6384  -38.9205 H         1 ATP601      0.0000 
     37 H         -25.2399  -44.9445  -36.6253 H         1 ATP601      0.0000 
     38 H         -21.9383  -44.7973  -38.4593 H         1 ATP601      0.0000 
     39 H         -20.5702  -39.8247  -35.0790 H         1 ATP601      0.0000 
     40 H         -19.9822  -41.0794  -36.2216 H         1 ATP601      0.0000 
     41 H         -24.8056  -41.1331  -34.0332 H         1 ATP601      0.0000 
     42 H         -26.2574  -45.4006  -40.5171 H         1 ATP601      0.0000 
     43 H         -26.6617  -45.5494  -37.8821 H         1 ATP601      0.0000 
@<TRIPOS>BOND
     1    2    1 ar   
     2    3    1 ar   
     3    4    1 ar   
     4    8    1 1    
     5    6    5 ar   
     6    7    5 ar   
     7    8    5 1    
     8   12    5 1    
     9   10    9 ar   
    10   11    9 ar   
    11   12    9 1    
    12   13    9 1    
    13   14   13 1    
    14   15   14 1    
    15   32   14 1    
    16   33   14 1    
    17   16   15 1    
    18   17   15 1    
    19   34   15 1    
    20   21   16 1    
    21   18   17 1    
    22   19   17 1    
    23   35   17 1    
    24   42   18 1    
    25   20   19 1    
    26   21   19 1    
    27   36   19 1    
    28   43   20 1    
    29   22   21 1    
    30   37   21 1    
    31   23   22 1    
    32   31   22 1    
    33   24   23 2    
    34   38   23 1    
    35   25   24 1    
    36   26   25 ar   
    37   31   25 ar   
    38   27   26 1    
    39   28   26 ar   
    40   39   27 1    
    41   40   27 1    
    42   29   28 ar   
    43   30   29 ar   
    44   41   29 1    
    45   31   30 ar   
@<TRIPOS>SUBSTRUCTURE
     1 ATP601      1 GROUP   
@<TRIPOS>SET

