#    Name: 3iro_2CY_4_INTS_M
#    Modification time : Tue Mar 25 17:18:19 2014

@<TRIPOS>MOLECULE
3iro_2CY_4_INTS_M
   58     0     9     0     0
SMALL
NO_CHARGES


@<TRIPOS>ATOM
      1 N          -4.0220   10.7500   51.3055 N.am      2 SEC2        0.0000 
      2 N          -2.8550   10.3810   51.6180 N.am      8 SEL2        0.0000 
      3 N          -5.1890   11.1190   50.9930 N.am      5 SEP2        0.0000 
      4 CA         -1.4555    7.8295   51.2815 C.3       3 GLC5        0.0000 
      5 CA         -2.0530    9.4620   51.0530 C.3       9 GLL5        0.0000 
      6 CA         -0.8580    6.1970   51.5100 C.3       6 GLP5        0.0000 
      7 CA         -0.5940    9.3570   49.8835 C.3       3 GLC5        0.0000 
      8 CA          0.8650    9.2520   48.7140 C.3       6 GLP5        0.0000 
      9 CA         -2.2150   11.0470   49.8495 C.3       3 GLC5        0.0000 
     10 CA         -2.3770   12.6320   48.6460 C.3       6 GLP5        0.0000 
     11 CA         -3.0165    8.7620   52.9435 C.3       3 GLC5        0.0000 
     12 CA         -3.9800    8.0620   54.8340 C.3       6 GLP5        0.0000 
     13 CA         -0.5430    8.1445   51.9920 C.3       3 GLC5        0.0000 
     14 CA         -0.2280   10.0920   52.4740 C.3       9 GLL5        0.0000 
     15 CA          0.3185    9.6720   50.5940 C.3       3 GLC5        0.0000 
     16 CA         -2.3930   11.9110   50.6295 C.3       3 GLC5        0.0000 
     17 CA         -2.4090   11.1900   52.6130 C.3       9 GLL5        0.0000 
     18 O          -3.6275    8.5970   48.9765 O.2       1 ALC1        0.0000 
     19 O          -2.5280    8.6900   50.0750 O.2       7 ALL1        0.0000 
     20 O          -4.7270    8.5040   47.8780 O.2       4 ALP1        0.0000 
     21 O           1.7225    8.9085   51.6715 O.2       1 ALC1        0.0000 
     22 O           1.0540    9.8420   52.7800 O.2       7 ALL1        0.0000 
     23 O           2.3910    7.9750   50.5630 O.2       4 ALP1        0.0000 
     24 CA          0.4530   14.5820   54.3390 C.3       3 GLC5        0.0000 
     25 CA          1.2470   12.9670   55.3160 C.3       9 GLL5        0.0000 
     26 CA         -0.3410   16.1970   53.3620 C.3       6 GLP5        0.0000 
     27 CA          2.0210   13.1370   53.5130 C.3       3 GLC5        0.0000 
     28 CA          2.7950   13.3070   51.7100 C.3       6 GLP5        0.0000 
     29 CA          2.7215   10.5720   57.0900 C.3       3 GLC5        0.0000 
     30 CA          2.0190   12.4470   56.5160 C.3       9 GLL5        0.0000 
     31 CA          3.4240    8.6970   57.6640 C.3       6 GLP5        0.0000 
     32 CA          2.2045   13.9035   59.2655 C.3       3 GLC5        0.0000 
     33 CA          1.4260   13.1170   57.7490 C.3       9 GLL5        0.0000 
     34 CA          2.9830   14.6900   60.7820 C.3       6 GLP5        0.0000 
     35 CA         -2.7355   13.7480   62.3090 C.3       3 GLC5        0.0000 
     36 CA         -3.1580   13.6690   60.1290 C.3       9 GLL5        0.0000 
     37 CA         -2.3130   13.8270   64.4890 C.3       6 GLP5        0.0000 
     38 CA         -3.2965   15.4730   61.6850 C.3       3 GLC5        0.0000 
     39 CA         -2.3780   15.9750   60.0940 C.3       9 GLL5        0.0000 
     40 CA         -4.2150   14.9710   63.2760 C.3       6 GLP5        0.0000 
     41 CA         -3.4197    9.8650   53.8603 C.3       3 GLC5        0.0000 
     42 CA         -3.3100   12.1460   53.1600 C.3       9 GLL5        0.0000 
     43 CA         -1.1615   14.4660   53.8363 C.3       3 GLC5        0.0000 
     44 CA         -2.8820   13.0140   54.1940 C.3       9 GLL5        0.0000 
     45 CA         -4.1276   13.1039   54.9446 C.3       3 GLC5        0.0000 
     46 CA         -1.5550   12.9370   54.6910 C.3       9 GLL5        0.0000 
     47 CA         -5.4910   13.6470   56.0880 C.3       6 GLP5        0.0000 
     48 CA          3.6398   13.0945   56.9813 C.3       3 GLC5        0.0000 
     49 CA          5.5570   13.4070   56.8300 C.3       6 GLP5        0.0000 
     50 CA          0.0922   14.0637   60.6105 C.3       3 GLC5        0.0000 
     51 CA         -0.7870   12.8860   58.7040 C.3       9 GLL5        0.0000 
     52 CA          1.0770   14.5510   62.3410 C.3       6 GLP5        0.0000 
     53 CA         -0.9862   11.4269   60.6804 C.3       3 GLC5        0.0000 
     54 CA          0.1500   10.5040   62.0220 C.3       6 GLP5        0.0000 
     55 CA         -0.6008   14.9312   61.1347 C.3       3 GLC5        0.0000 
     56 CA         -2.1790   14.6480   59.7630 C.3       9 GLL5        0.0000 
     57 CA         -1.5657   16.4393   61.0883 C.3       3 GLC5        0.0000 
     58 CA         -0.8530   17.5670   62.2480 C.3       6 GLP5        0.0000 
@<TRIPOS>BOND
@<TRIPOS>SUBSTRUCTURE
     1 ALC1       18 GROUP        1 X    ALC  0     ROOT ALC X 1
     2 SEC2        1 GROUP        1 X    SEC  0     **** SEC X 2
     3 GLC5        4 GROUP        1 X    GLC  0     **** GLC X 6
     4 ALP1       20 GROUP        1 Y    ALP  0     ROOT ALP Y 8
     5 SEP2        3 GROUP        1 Y    SEP  0     **** SEP Y 9
     6 GLP5        6 GROUP        1 Y    GLP  0     **** GLP Y 13
     7 ALL1       19 GROUP        1 Z    ALL  0     ROOT ALL Z 15
     8 SEL2        2 GROUP        1 Z    SEL  0     **** SEL Z 16
     9 GLL5        5 GROUP        1 Z    GLL  0     **** GLL Z 20
@<TRIPOS>SET

