#    Name: 3iro_2CY_4_ligand
#    Modification time : Tue Mar 25 17:18:19 2014

@<TRIPOS>MOLECULE
3iro_2CY_4_ligand
   41    43     1     0     0
SMALL
NO_CHARGES


@<TRIPOS>ATOM
      1 N1         -2.8550   10.3810   51.6180 N.ar      1 2CY604      0.0000 
      2 C2         -2.0530    9.4620   51.0530 C.ar      1 2CY604      0.0000 
      3 N3         -0.7640    9.3230   51.4750 N.ar      1 2CY604      0.0000 
      4 C4         -0.2280   10.0920   52.4740 C.ar      1 2CY604      0.0000 
      5 C5         -1.0460   11.0870   53.1020 C.ar      1 2CY604      0.0000 
      6 C6         -2.4090   11.1900   52.6130 C.ar      1 2CY604      0.0000 
      7 C7         -0.6090   11.9750   54.1630 C.ar      1 2CY604      0.0000 
      8 C8         -1.5550   12.9370   54.6910 C.ar      1 2CY604      0.0000 
      9 C9         -2.8820   13.0140   54.1940 C.ar      1 2CY604      0.0000 
     10 C10        -3.3100   12.1460   53.1600 C.ar      1 2CY604      0.0000 
     11 N11        -2.5280    8.6900   50.0750 N.pl3     1 2CY604      0.0000 
     12 N12         1.0540    9.8420   52.7800 N.pl3     1 2CY604      0.0000 
     13 O13         0.5640   11.9250   54.6230 O.3       1 2CY604      0.0000 
     14 C14         1.2470   12.9670   55.3160 C.3       1 2CY604      0.0000 
     15 C15         2.0190   12.4470   56.5160 C.3       1 2CY604      0.0000 
     16 C16         1.4260   13.1170   57.7490 C.3       1 2CY604      0.0000 
     17 O17         0.2140   12.4530   58.0800 O.3       1 2CY604      0.0000 
     18 C18        -0.7870   12.8860   58.7040 C.ar      1 2CY604      0.0000 
     19 C19        -1.7810   11.9130   59.0770 C.ar      1 2CY604      0.0000 
     20 C20        -2.9610   12.3000   59.7870 C.ar      1 2CY604      0.0000 
     21 C21        -3.1580   13.6690   60.1290 C.ar      1 2CY604      0.0000 
     22 C22        -2.1790   14.6480   59.7630 C.ar      1 2CY604      0.0000 
     23 C23        -0.9980   14.2670   59.0560 C.ar      1 2CY604      0.0000 
     24 F24        -2.3780   15.9750   60.0940 F         1 2CY604      0.0000 
     25 H          -1.2482   13.5672   55.4362 H         1 2CY604      0.0000 
     26 H          -3.5309   13.6995   54.5849 H         1 2CY604      0.0000 
     27 H          -4.2636   12.2038   52.8053 H         1 2CY604      0.0000 
     28 H          -3.2626    9.0828   49.5217 H         1 2CY604      0.0000 
     29 H          -2.1069    7.7877   49.9828 H         1 2CY604      0.0000 
     30 H           1.5031    9.1274   52.2436 H         1 2CY604      0.0000 
     31 H           1.4459   10.3926   53.5170 H         1 2CY604      0.0000 
     32 H           0.5421   13.7402   55.6790 H         1 2CY604      0.0000 
     33 H           1.9656   13.4887   54.6542 H         1 2CY604      0.0000 
     34 H           3.0553   12.7141   56.4247 H         1 2CY604      0.0000 
     35 H           1.8984   11.3824   56.5919 H         1 2CY604      0.0000 
     36 H           1.2645   14.1707   57.5130 H         1 2CY604      0.0000 
     37 H           2.1618   13.0512   58.5529 H         1 2CY604      0.0000 
     38 H          -1.6375   10.9333   58.8291 H         1 2CY604      0.0000 
     39 H          -3.6501   11.6038   60.0436 H         1 2CY604      0.0000 
     40 H          -3.9929   13.9543   60.6331 H         1 2CY604      0.0000 
     41 H          -0.3072   14.9618   58.8002 H         1 2CY604      0.0000 
@<TRIPOS>BOND
     1    2    1 ar   
     2    6    1 ar   
     3    3    2 ar   
     4   11    2 1    
     5    4    3 ar   
     6    5    4 ar   
     7   12    4 1    
     8    6    5 ar   
     9    7    5 ar   
    10   10    6 ar   
    11    8    7 ar   
    12   13    7 1    
    13    9    8 ar   
    14   25    8 1    
    15   10    9 ar   
    16   26    9 1    
    17   27   10 1    
    18   28   11 1    
    19   29   11 1    
    20   30   12 1    
    21   31   12 1    
    22   14   13 1    
    23   15   14 1    
    24   32   14 1    
    25   33   14 1    
    26   16   15 1    
    27   34   15 1    
    28   35   15 1    
    29   17   16 1    
    30   36   16 1    
    31   37   16 1    
    32   18   17 1    
    33   19   18 ar   
    34   23   18 ar   
    35   20   19 ar   
    36   38   19 1    
    37   21   20 ar   
    38   39   20 1    
    39   22   21 ar   
    40   40   21 1    
    41   23   22 ar   
    42   24   22 1    
    43   41   23 1    
@<TRIPOS>SUBSTRUCTURE
     1 2CY604      1 GROUP   
@<TRIPOS>SET

