#    Name: 3nnv_437_1_INTS_M
#    Modification time : Tue Mar 25 01:53:30 2014

@<TRIPOS>MOLECULE
3nnv_437_1_INTS_M
   91     0     9     0     0
SMALL
NO_CHARGES


@<TRIPOS>ATOM
      1 CA         18.9995   11.8220   32.7195 C.3       3 GLC5        0.0000 
      2 CA         18.7220   10.9890   30.8090 C.3       9 GLL5        0.0000 
      3 CA         19.2770   12.6550   34.6300 C.3       6 GLP5        0.0000 
      4 O          15.3045   14.4235   28.7350 O.2       1 ALC1        0.0000 
      5 O          16.2650   13.4830   28.4360 O.2       7 ALL1        0.0000 
      6 O          14.3440   15.3640   29.0340 O.2       4 ALP1        0.0000 
      7 N          18.3375   13.7930   25.7035 N.am      2 SEC2        0.0000 
      8 N          17.2360   13.1860   26.4380 N.am      8 SEL2        0.0000 
      9 N          19.4390   14.4000   24.9690 N.am      5 SEP2        0.0000 
     10 O          14.9535   15.0260   27.8240 O.2       1 ALC1        0.0000 
     11 O          15.5630   14.6880   26.6140 O.2       7 ALL1        0.0000 
     12 CA         16.1275   12.5115   23.9715 C.3       3 GLC5        0.0000 
     13 CA         15.9030   14.3430   24.1230 C.3       9 GLL5        0.0000 
     14 CA         16.3520   10.6800   23.8200 C.3       6 GLP5        0.0000 
     15 CA         17.8320   13.3770   23.8725 C.3       3 GLC5        0.0000 
     16 CA         19.7610   12.4110   23.6220 C.3       6 GLP5        0.0000 
     17 CA         16.7715   12.4545   22.5855 C.3       3 GLC5        0.0000 
     18 CA         17.1910   14.2290   21.3510 C.3       9 GLL5        0.0000 
     19 CA         17.1915   13.7955   19.3285 C.3       3 GLC5        0.0000 
     20 CA         17.1920   13.3620   17.3060 C.3       6 GLP5        0.0000 
     21 CA         18.5615   15.3500   20.7290 C.3       3 GLC5        0.0000 
     22 CA         19.9320   16.4710   20.1070 C.3       6 GLP5        0.0000 
     23 CA         18.7725   13.6590   20.4460 C.3       3 GLC5        0.0000 
     24 CA         20.3540   13.0890   19.5410 C.3       6 GLP5        0.0000 
     25 CA         18.4760   13.3200   22.4865 C.3       3 GLC5        0.0000 
     26 CA         14.5930   17.1765   19.3145 C.3       3 GLC5        0.0000 
     27 CA         15.8450   16.2420   20.7370 C.3       9 GLL5        0.0000 
     28 CA         13.3410   18.1110   17.8920 C.3       6 GLP5        0.0000 
     29 CA         17.8885   16.3565   20.4220 C.3       3 GLC5        0.0000 
     30 CA         13.3500   12.7855   20.8270 C.3       3 GLC5        0.0000 
     31 CA         14.6960   14.1050   21.2500 C.3       9 GLL5        0.0000 
     32 CA         12.0040   11.4660   20.4040 C.3       6 GLP5        0.0000 
     33 CA         15.1905   12.2100   20.4750 C.3       3 GLC5        0.0000 
     34 CA         15.6850   10.3150   19.7000 C.3       6 GLP5        0.0000 
     35 CA         11.9795   17.5995   26.1015 C.3       3 GLC5        0.0000 
     36 CA         13.6790   18.1280   25.2050 C.3       9 GLL5        0.0000 
     37 CA         10.2800   17.0710   26.9980 C.3       6 GLP5        0.0000 
     38 CA         11.9525   20.6585   25.0810 C.3       3 GLC5        0.0000 
     39 CA         13.1910   19.2450   25.8860 C.3       9 GLL5        0.0000 
     40 CA         10.7140   22.0720   24.2760 C.3       6 GLP5        0.0000 
     41 CA         12.1680   21.9560   28.9985 C.3       3 GLC5        0.0000 
     42 CA         13.2530   20.8320   27.8160 C.3       9 GLL5        0.0000 
     43 CA         11.0830   23.0800   30.1810 C.3       6 GLP5        0.0000 
     44 N          11.8955   23.0285   26.5005 N.am      2 SEC2        0.0000 
     45 N          12.8460   21.8590   26.9000 N.am      8 SEL2        0.0000 
     46 N          10.9450   24.1980   26.1010 N.am      5 SEP2        0.0000 
     47 CA         15.4445    8.6760   33.6275 C.3       3 GLC5        0.0000 
     48 CA         15.4710    9.4860   31.6060 C.3       9 GLL5        0.0000 
     49 CA         15.4180    7.8660   35.6490 C.3       6 GLP5        0.0000 
     50 CA         14.0610    8.0245   32.0300 C.3       3 GLC5        0.0000 
     51 CA         12.6510    6.5630   32.4540 C.3       6 GLP5        0.0000 
     52 CA         17.8975    8.2840   32.2005 C.3       3 GLC5        0.0000 
     53 CA         16.8340    9.7530   31.5940 C.3       9 GLL5        0.0000 
     54 CA         18.9610    6.8150   32.8070 C.3       6 GLP5        0.0000 
     55 CA         19.7512   14.0460   29.3615 C.3       3 GLC5        0.0000 
     56 CA         19.2770   12.0040   30.0190 C.3       9 GLL5        0.0000 
     57 CA         20.6460   15.6920   29.1010 C.3       6 GLP5        0.0000 
     58 CA         17.1187   11.2890   28.0345 C.3       3 GLC5        0.0000 
     59 CA         18.4360   12.7960   29.2250 C.3       9 GLL5        0.0000 
     60 CA         16.5030    9.8740   26.8540 C.3       6 GLP5        0.0000 
     61 CA         16.1857   11.2812   32.5217 C.3       3 GLC5        0.0000 
     62 CA         17.3470   10.7760   30.7950 C.3       9 GLL5        0.0000 
     63 CA         15.2810   12.2980   33.8490 C.3       6 GLP5        0.0000 
     64 CA         16.7130   10.5258   28.6275 C.3       3 GLC5        0.0000 
     65 CA         16.9258    8.6113   30.2302 C.3       3 GLC5        0.0000 
     66 CA         16.7610    6.9580   29.2660 C.3       6 GLP5        0.0000 
     67 CA         14.3580   13.3820   24.8200 C.3       3 GLC5        0.0000 
     68 CA         15.5710   15.0430   25.2870 C.3       9 GLL5        0.0000 
     69 CA         12.9790   12.0710   24.9350 C.3       6 GLP5        0.0000 
     70 CA         17.3595   15.7445   24.7555 C.3       3 GLC5        0.0000 
     71 CA         18.9820   16.7960   24.8060 C.3       6 GLP5        0.0000 
     72 CA         17.0125   17.1717   25.5303 C.3       3 GLC5        0.0000 
     73 CA         15.3300   17.7590   26.8550 C.3       9 GLL5        0.0000 
     74 CA         12.4175   18.3308   23.9653 C.3       3 GLC5        0.0000 
     75 CA         11.4000   17.9750   22.3850 C.3       6 GLP5        0.0000 
     76 CA         12.2916   18.6110   27.6821 C.3       3 GLC5        0.0000 
     77 CA         11.2110   17.0880   28.2180 C.3       6 GLP5        0.0000 
     78 CA         13.5575   17.0534   27.5674 C.3       3 GLC5        0.0000 
     79 CA         14.8750   18.8740   27.5630 C.3       9 GLL5        0.0000 
     80 CA         12.1560   15.8960   28.2260 C.3       6 GLP5        0.0000 
     81 CA         15.7255   13.0441   31.1355 C.3       3 GLC5        0.0000 
     82 CA         15.1300   11.3170   30.0400 C.3       9 GLL5        0.0000 
     83 CA         15.5030   14.3820   32.4480 C.3       6 GLP5        0.0000 
     84 CA         13.7290   11.5590   28.9245 C.3       3 GLC5        0.0000 
     85 CA         12.5810   12.3280   27.4190 C.3       6 GLP5        0.0000 
     86 CA         15.6900   10.3320   28.6420 C.3       3 GLC5        0.0000 
     87 CA         15.1643   11.0862   32.5310 C.3       3 GLC5        0.0000 
     88 CA         14.6240   10.2630   30.8200 C.3       9 GLL5        0.0000 
     89 CA         15.9042    8.4163   30.2395 C.3       3 GLC5        0.0000 
     90 CA         13.3465   10.5690   31.5405 C.3       3 GLC5        0.0000 
     91 CA         11.5190   11.0000   32.0630 C.3       6 GLP5        0.0000 
@<TRIPOS>BOND
@<TRIPOS>SUBSTRUCTURE
     1 ALC1        4 GROUP        1 X    ALC  0     ROOT ALC X 1
     2 SEC2        7 GROUP        1 X    SEC  0     **** SEC X 2
     3 GLC5        1 GROUP        1 X    GLC  0     **** GLC X 6
     4 ALP1        6 GROUP        1 Y    ALP  0     ROOT ALP Y 8
     5 SEP2        9 GROUP        1 Y    SEP  0     **** SEP Y 9
     6 GLP5        3 GROUP        1 Y    GLP  0     **** GLP Y 13
     7 ALL1        5 GROUP        1 Z    ALL  0     ROOT ALL Z 15
     8 SEL2        8 GROUP        1 Z    SEL  0     **** SEL Z 16
     9 GLL5        2 GROUP        1 Z    GLL  0     **** GLL Z 20
@<TRIPOS>SET

