#    Name: 3nnv_437_1_ligand
#    Modification time : Tue Mar 25 01:53:30 2014

@<TRIPOS>MOLECULE
3nnv_437_1_ligand
   57    60     1     0     0
SMALL
NO_CHARGES


@<TRIPOS>ATOM
      1 C1         18.7220   10.9890   30.8090 C.ar      1 437355      0.0000 
      2 C2         19.2770   12.0040   30.0190 C.ar      1 437355      0.0000 
      3 C3         18.4360   12.7960   29.2250 C.ar      1 437355      0.0000 
      4 C4         17.3470   10.7760   30.7950 C.ar      1 437355      0.0000 
      5 C5         16.4990   11.5790   30.0070 C.ar      1 437355      0.0000 
      6 C6         17.0330   12.6120   29.2050 C.ar      1 437355      0.0000 
      7 N7         16.2650   13.4830   28.4360 N.am      1 437355      0.0000 
      8 C8         16.3960   13.7600   27.1350 C.2       1 437355      0.0000 
      9 O9         17.2360   13.1860   26.4380 O.2       1 437355      0.0000 
     10 N10        15.5630   14.6880   26.6140 N.am      1 437355      0.0000 
     11 C11        15.5710   15.0430   25.2870 C.2       1 437355      0.0000 
     12 C12        15.9030   14.3430   24.1230 C.2       1 437355      0.0000 
     13 C13        15.6860   15.2810   23.1050 C.2       1 437355      0.0000 
     14 C14        15.8780   14.9880   21.6300 C.3       1 437355      0.0000 
     15 C15        17.1910   14.2290   21.3510 C.3       1 437355      0.0000 
     16 C16        15.8450   16.2420   20.7370 C.3       1 437355      0.0000 
     17 C17        14.6960   14.1050   21.2500 C.3       1 437355      0.0000 
     18 N18        15.2250   16.4690   23.5390 N.2       1 437355      0.0000 
     19 N19        15.1640   16.2840   24.9100 N.pl3     1 437355      0.0000 
     20 C20        14.7560   17.3360   25.6540 C.ar      1 437355      0.0000 
     21 C21        15.3300   17.7590   26.8550 C.ar      1 437355      0.0000 
     22 C22        13.6790   18.1280   25.2050 C.ar      1 437355      0.0000 
     23 C23        13.1910   19.2450   25.8860 C.ar      1 437355      0.0000 
     24 C24        13.7920   19.6270   27.0670 C.ar      1 437355      0.0000 
     25 C25        13.2530   20.8320   27.8160 C.3       1 437355      0.0000 
     26 C26        14.8750   18.8740   27.5630 C.ar      1 437355      0.0000 
     27 O27        12.8460   21.8590   26.9000 O.3       1 437355      0.0000 
     28 C28        15.1300   11.3170   30.0400 C.ar      1 437355      0.0000 
     29 C29        14.6240   10.2630   30.8200 C.ar      1 437355      0.0000 
     30 C30        15.4710    9.4860   31.6060 C.ar      1 437355      0.0000 
     31 C31        16.8340    9.7530   31.5940 C.ar      1 437355      0.0000 
     32 H          19.3303   10.4074   31.3940 H         1 437355      0.0000 
     33 H          20.2847   12.1658   30.0212 H         1 437355      0.0000 
     34 H          18.8484   13.5399   28.6330 H         1 437355      0.0000 
     35 H          15.4656   13.9901   28.9800 H         1 437355      0.0000 
     36 H          14.8677   15.1697   27.2514 H         1 437355      0.0000 
     37 H          16.1925   13.4799   24.0433 H         1 437355      0.0000 
     38 H          16.1373   17.2163   27.2420 H         1 437355      0.0000 
     39 H          13.2174   17.8551   24.2982 H         1 437355      0.0000 
     40 H          12.3973   19.7682   25.5072 H         1 437355      0.0000 
     41 H          14.0408   21.1907   28.4952 H         1 437355      0.0000 
     42 H          12.4115   20.4961   28.4403 H         1 437355      0.0000 
     43 H          15.3237   19.1480   28.4410 H         1 437355      0.0000 
     44 H          14.4813   11.8967   29.4910 H         1 437355      0.0000 
     45 H          13.6114   10.0671   30.8062 H         1 437355      0.0000 
     46 H          15.0942    8.7316   32.1820 H         1 437355      0.0000 
     47 H          17.4733    9.1937   32.1779 H         1 437355      0.0000 
     48 H          17.9912   14.7489   21.6499 H         1 437355      0.0000 
     49 H          17.2193   13.3490   21.8252 H         1 437355      0.0000 
     50 H          17.3112   14.0407   20.3763 H         1 437355      0.0000 
     51 H          16.5642   16.8919   20.9827 H         1 437355      0.0000 
     52 H          15.9732   16.0141   19.7718 H         1 437355      0.0000 
     53 H          14.9738   16.7273   20.8104 H         1 437355      0.0000 
     54 H          14.7191   13.8493   20.2835 H         1 437355      0.0000 
     55 H          14.6821   13.2557   21.7777 H         1 437355      0.0000 
     56 H          13.8224   14.5643   21.4109 H         1 437355      0.0000 
     57 H          12.8817   21.4297   25.9975 H         1 437355      0.0000 
@<TRIPOS>BOND
     1    2    1 ar   
     2    4    1 ar   
     3   32    1 1    
     4    3    2 ar   
     5   33    2 1    
     6    6    3 ar   
     7   34    3 1    
     8    5    4 ar   
     9   31    4 ar   
    10    6    5 ar   
    11   28    5 ar   
    12    7    6 1    
    13    8    7 am   
    14   35    7 1    
    15    9    8 2    
    16   10    8 am   
    17   11   10 am   
    18   36   10 1    
    19   12   11 2    
    20   19   11 1    
    21   13   12 1    
    22   37   12 1    
    23   14   13 1    
    24   18   13 2    
    25   15   14 1    
    26   16   14 1    
    27   17   14 1    
    28   48   15 1    
    29   49   15 1    
    30   50   15 1    
    31   51   16 1    
    32   52   16 1    
    33   53   16 1    
    34   54   17 1    
    35   55   17 1    
    36   56   17 1    
    37   19   18 1    
    38   20   19 1    
    39   21   20 ar   
    40   22   20 ar   
    41   26   21 ar   
    42   38   21 1    
    43   23   22 ar   
    44   39   22 1    
    45   24   23 ar   
    46   40   23 1    
    47   25   24 1    
    48   26   24 ar   
    49   27   25 1    
    50   41   25 1    
    51   42   25 1    
    52   43   26 1    
    53   57   27 1    
    54   29   28 ar   
    55   44   28 1    
    56   30   29 ar   
    57   45   29 1    
    58   31   30 ar   
    59   46   30 1    
    60   47   31 1    
@<TRIPOS>SUBSTRUCTURE
     1 437355      1 GROUP   
@<TRIPOS>SET

