#    Name: 3zm5_IGM_1_INTS_M
#    Modification time : Tue Mar 25 03:40:07 2014

@<TRIPOS>MOLECULE
3zm5_IGM_1_INTS_M
   92     0     9     0     0
SMALL
NO_CHARGES


@<TRIPOS>ATOM
      1 N         -31.1150   40.0840   -3.9455 N.am      2 SEC2        0.0000 
      2 N         -29.9260   41.3280   -4.0830 N.am      8 SEL2        0.0000 
      3 N         -32.3040   38.8400   -3.8080 N.am      5 SEP2        0.0000 
      4 CA        -26.8695   39.0340   -4.0215 C.3       3 GLC5        0.0000 
      5 CA        -27.0240   41.0780   -4.3150 C.3       9 GLL5        0.0000 
      6 CA        -26.7150   36.9900   -3.7280 C.3       6 GLP5        0.0000 
      7 CA        -27.0240   40.8450   -6.0905 C.3       3 GLC5        0.0000 
      8 CA        -27.0240   40.6120   -7.8660 C.3       6 GLP5        0.0000 
      9 CA        -25.7365   41.4005   -6.4150 C.3       3 GLC5        0.0000 
     10 CA        -25.5980   41.4970   -4.6620 C.3       9 GLL5        0.0000 
     11 CA        -25.8750   41.3040   -8.1680 C.3       6 GLP5        0.0000 
     12 CA        -24.6930   40.3295   -3.2260 C.3       3 GLC5        0.0000 
     13 CA        -23.7880   39.1620   -1.7900 C.3       6 GLP5        0.0000 
     14 CA        -23.6145   41.3445   -4.8850 C.3       3 GLC5        0.0000 
     15 CA        -21.6310   41.1920   -5.1080 C.3       6 GLP5        0.0000 
     16 CA        -27.8920   43.0215   -0.1370 C.3       3 GLC5        0.0000 
     17 CA        -26.7850   41.6080   -0.9010 C.3       9 GLL5        0.0000 
     18 CA        -28.9990   44.4350    0.6270 C.3       6 GLP5        0.0000 
     19 CA        -28.3645   36.1490   -0.6655 C.3       3 GLC5        0.0000 
     20 CA        -28.9490   36.9560    1.0050 C.3       9 GLL5        0.0000 
     21 CA        -27.7800   35.3420   -2.3360 C.3       6 GLP5        0.0000 
     22 CA        -27.3595   36.4760    2.1405 C.3       3 GLC5        0.0000 
     23 CA        -25.7700   35.9960    3.2760 C.3       6 GLP5        0.0000 
     24 CA        -29.8510   37.8125    2.7385 C.3       3 GLC5        0.0000 
     25 CA        -30.7530   38.6690    4.4720 C.3       6 GLP5        0.0000 
     26 O         -31.9875   38.0005    0.7775 O.2       1 ALC1        0.0000 
     27 O         -31.8130   37.0120   -0.1500 O.2       7 ALL1        0.0000 
     28 O         -32.1620   38.9890    1.7050 O.2       4 ALP1        0.0000 
     29 CA        -34.6070   37.7970    3.1375 C.3       3 GLC5        0.0000 
     30 CA        -33.7030   36.0720    2.0660 C.3       9 GLL5        0.0000 
     31 CA        -35.5110   39.5220    4.2090 C.3       6 GLP5        0.0000 
     32 CA        -34.0060   34.1175    3.1145 C.3       3 GLC5        0.0000 
     33 CA        -34.3090   32.1630    4.1630 C.3       6 GLP5        0.0000 
     34 N         -33.9970   36.8250    4.6065 N.am      2 SEC2        0.0000 
     35 N         -33.6900   36.3930    3.1780 N.am      8 SEL2        0.0000 
     36 N         -34.3040   37.2570    6.0350 N.am      5 SEP2        0.0000 
     37 CA        -31.9380   34.3120   -3.1030 C.3       3 GLC5        0.0000 
     38 CA        -33.1110   35.2270   -1.7720 C.3       9 GLL5        0.0000 
     39 CA        -30.7650   33.3970   -4.4340 C.3       6 GLP5        0.0000 
     40 CA        -33.9060   36.9075   -2.8300 C.3       3 GLC5        0.0000 
     41 CA        -34.7010   38.5880   -3.8880 C.3       6 GLP5        0.0000 
     42 CA        -35.5370   36.1585   -1.2130 C.3       3 GLC5        0.0000 
     43 CA        -34.4100   34.2560   -1.1450 C.3       9 GLL5        0.0000 
     44 CA        -36.6640   38.0610   -1.2810 C.3       6 GLP5        0.0000 
     45 CA        -35.9635   32.5500   -3.7815 C.3       3 GLC5        0.0000 
     46 CA        -35.1190   33.2670   -2.0050 C.3       9 GLL5        0.0000 
     47 CA        -36.8080   31.8330   -5.5580 C.3       6 GLP5        0.0000 
     48 CA        -36.5410   32.1295    1.7675 C.3       3 GLC5        0.0000 
     49 CA        -36.8270   33.3660   -0.0220 C.3       9 GLL5        0.0000 
     50 CA        -36.2550   30.8930    3.5570 C.3       6 GLP5        0.0000 
     51 CA        -38.1920   34.3595   -1.3370 C.3       3 GLC5        0.0000 
     52 CA        -39.5570   35.3530   -2.6520 C.3       6 GLP5        0.0000 
     53 CA        -35.7220   32.9060    2.5260 C.3       3 GLC5        0.0000 
     54 CA        -35.7530   33.7640    0.9840 C.3       9 GLL5        0.0000 
     55 CA        -35.6910   32.0480    4.0680 C.3       6 GLP5        0.0000 
     56 CA        -37.0205   31.9280   -3.8180 C.3       3 GLC5        0.0000 
     57 CA        -37.2330   32.0230   -2.0780 C.3       9 GLL5        0.0000 
     58 CA        -38.3950   33.6880   -2.3650 C.3       3 GLC5        0.0000 
     59 CA        -36.9530   30.7035   -3.2670 C.3       3 GLC5        0.0000 
     60 CA        -37.8040   30.8790   -1.2750 C.3       9 GLL5        0.0000 
     61 CA        -36.1020   30.5280   -5.2590 C.3       6 GLP5        0.0000 
     62 CA        -40.3580   31.8910   -2.1560 C.3       3 GLC5        0.0000 
     63 CA        -39.1800   30.6920   -1.2600 C.3       9 GLL5        0.0000 
     64 CA        -41.5360   33.0900   -3.0520 C.3       6 GLP5        0.0000 
     65 O         -41.0145   27.4300    0.3940 O.2       1 ALC1        0.0000 
     66 O         -39.4780   27.7140    0.8470 O.2       7 ALL1        0.0000 
     67 O         -42.5510   27.1460   -0.0590 O.2       4 ALP1        0.0000 
     68 CA        -36.3525   27.2880   -0.1850 C.3       3 GLC5        0.0000 
     69 CA        -37.5460   28.9360    0.1050 C.3       9 GLL5        0.0000 
     70 CA        -35.1590   25.6400   -0.4750 C.3       6 GLP5        0.0000 
     71 CA        -34.9325   29.2250   -1.1055 C.3       3 GLC5        0.0000 
     72 CA        -36.9850   29.9890   -0.6040 C.3       9 GLL5        0.0000 
     73 CA        -32.8800   28.4610   -1.6070 C.3       6 GLP5        0.0000 
     74 CA        -29.4480   40.3858    0.6870 C.3       3 GLC5        0.0000 
     75 CA        -28.0540   40.3280   -0.9710 C.3       9 GLL5        0.0000 
     76 CA        -30.8530   40.9710    1.9000 C.3       6 GLP5        0.0000 
     77 CA        -26.0419   40.6718    0.2283 C.3       3 GLC5        0.0000 
     78 CA        -28.0320   39.2730   -0.0810 C.3       9 GLL5        0.0000 
     79 CA        -24.3580   41.2230    0.9650 C.3       6 GLP5        0.0000 
     80 CA        -30.4548   38.9472    0.7682 C.3       3 GLC5        0.0000 
     81 CA        -29.0060   38.3050   -0.1540 C.3       9 GLL5        0.0000 
     82 CA        -31.9320   40.2640    1.1110 C.3       6 GLP5        0.0000 
     83 CA        -30.8531   39.7076   -0.2086 C.3       3 GLC5        0.0000 
     84 CA        -30.0050   38.3850   -1.1010 C.3       9 GLL5        0.0000 
     85 CA        -35.1016   36.8978    0.6671 C.3       3 GLC5        0.0000 
     86 CA        -36.7250   37.8460    0.1910 C.3       6 GLP5        0.0000 
     87 CA        -36.3731   35.8011    0.2474 C.3       3 GLC5        0.0000 
     88 CA        -34.6780   34.5290    0.2750 C.3       9 GLL5        0.0000 
     89 CA        -38.0065   34.0955    0.9030 C.3       3 GLC5        0.0000 
     90 CA        -39.7230   34.6260    1.3250 C.3       6 GLP5        0.0000 
     91 CA        -40.3948   30.4080    0.7808 C.3       3 GLC5        0.0000 
     92 CA        -41.5970   31.3570    1.9410 C.3       6 GLP5        0.0000 
@<TRIPOS>BOND
@<TRIPOS>SUBSTRUCTURE
     1 ALC1       26 GROUP        1 X    ALC  0     ROOT ALC X 1
     2 SEC2        1 GROUP        1 X    SEC  0     **** SEC X 2
     3 GLC5        4 GROUP        1 X    GLC  0     **** GLC X 6
     4 ALP1       28 GROUP        1 Y    ALP  0     ROOT ALP Y 8
     5 SEP2        3 GROUP        1 Y    SEP  0     **** SEP Y 9
     6 GLP5        6 GROUP        1 Y    GLP  0     **** GLP Y 13
     7 ALL1       27 GROUP        1 Z    ALL  0     ROOT ALL Z 15
     8 SEL2        2 GROUP        1 Z    SEL  0     **** SEL Z 16
     9 GLL5        5 GROUP        1 Z    GLL  0     **** GLL Z 20
@<TRIPOS>SET

