#    Name: 3zm5_IGM_1_ligand
#    Modification time : Tue Mar 25 03:40:07 2014

@<TRIPOS>MOLECULE
3zm5_IGM_1_ligand
   64    68     1     0     0
SMALL
NO_CHARGES


@<TRIPOS>ATOM
      1 O25       -29.9260   41.3280   -4.0830 O.2       1 IGM1455     0.0000 
      2 S21       -29.0830   41.6910   -2.9870 S.o2      1 IGM1455     0.0000 
      3 O24       -29.6750   42.8310   -2.3350 O.2       1 IGM1455     0.0000 
      4 N23       -27.6470   42.0600   -3.4110 N.pl3     1 IGM1455     0.0000 
      5 C27       -27.0240   41.0780   -4.3150 C.3       1 IGM1455     0.0000 
      6 C29       -25.5980   41.4970   -4.6620 C.3       1 IGM1455     0.0000 
      7 O31       -25.2530   42.7240   -3.9970 O.3       1 IGM1455     0.0000 
      8 C30       -26.1230   43.8290   -4.2630 C.3       1 IGM1455     0.0000 
      9 C28       -27.5600   43.4510   -3.9070 C.3       1 IGM1455     0.0000 
     10 C18       -29.0500   40.4010   -1.9160 C.ar      1 IGM1455     0.0000 
     11 C22       -28.0540   40.3280   -0.9710 C.ar      1 IGM1455     0.0000 
     12 CL2       -26.7850   41.6080   -0.9010 Cl        1 IGM1455     0.0000 
     13 C19       -28.0320   39.2730   -0.0810 C.ar      1 IGM1455     0.0000 
     14 C17       -29.0060   38.3050   -0.1540 C.ar      1 IGM1455     0.0000 
     15 CL1       -28.9490   36.9560    1.0050 Cl        1 IGM1455     0.0000 
     16 C16       -30.0370   39.4340   -1.9950 C.ar      1 IGM1455     0.0000 
     17 C14       -30.0050   38.3850   -1.1010 C.ar      1 IGM1455     0.0000 
     18 C13       -31.0710   37.3540   -1.2070 C.2       1 IGM1455     0.0000 
     19 O15       -31.2340   36.8690   -2.3080 O.2       1 IGM1455     0.0000 
     20 N10       -31.8130   37.0120   -0.1500 N.am      1 IGM1455     0.0000 
     21 C5        -32.7840   36.0640   -0.2990 C.2       1 IGM1455     0.0000 
     22 C2        -33.7230   35.5900    0.7400 C.2       1 IGM1455     0.0000 
     23 C6        -33.7030   36.0720    2.0660 C.1       1 IGM1455     0.0000 
     24 N11       -33.6900   36.3930    3.1780 N.1       1 IGM1455     0.0000 
     25 S7        -33.1110   35.2270   -1.7720 S.3       1 IGM1455     0.0000 
     26 C3        -34.4100   34.2560   -1.1450 C.2       1 IGM1455     0.0000 
     27 C1        -34.6780   34.5290    0.2750 C.2       1 IGM1455     0.0000 
     28 C8        -35.1190   33.2670   -2.0050 C.3       1 IGM1455     0.0000 
     29 N12       -36.3530   32.8890   -1.3260 N.4       1 IGM1455     0.0000 
     30 C9        -36.8270   33.3660   -0.0220 C.3       1 IGM1455     0.0000 
     31 C4        -35.7530   33.7640    0.9840 C.3       1 IGM1455     0.0000 
     32 C32       -37.2330   32.0230   -2.0780 C.3       1 IGM1455     0.0000 
     33 C33       -37.8040   30.8790   -1.2750 C.ar      1 IGM1455     0.0000 
     34 C38       -39.1800   30.6920   -1.2600 C.ar      1 IGM1455     0.0000 
     35 C37       -39.7420   29.6400   -0.5440 C.ar      1 IGM1455     0.0000 
     36 C36       -38.9240   28.7520    0.1430 C.ar      1 IGM1455     0.0000 
     37 O39       -39.4780   27.7140    0.8470 O.3       1 IGM1455     0.0000 
     38 C35       -37.5460   28.9360    0.1050 C.ar      1 IGM1455     0.0000 
     39 C34       -36.9850   29.9890   -0.6040 C.ar      1 IGM1455     0.0000 
     40 H         -27.5958   40.9937   -5.2441 H         1 IGM1455     0.0000 
     41 H         -26.9899   40.0903   -3.8453 H         1 IGM1455     0.0000 
     42 H         -25.5336   41.6008   -5.7542 H         1 IGM1455     0.0000 
     43 H         -24.9255   40.6788   -4.3685 H         1 IGM1455     0.0000 
     44 H         -26.1038   44.1144   -5.3206 H         1 IGM1455     0.0000 
     45 H         -25.8518   44.7099   -3.6708 H         1 IGM1455     0.0000 
     46 H         -27.9238   44.1513   -3.1449 H         1 IGM1455     0.0000 
     47 H         -28.1830   43.5769   -4.8011 H         1 IGM1455     0.0000 
     48 H         -27.2913   39.2135    0.6309 H         1 IGM1455     0.0000 
     49 H         -30.7721   39.4984   -2.7012 H         1 IGM1455     0.0000 
     50 H         -31.6642   37.4522    0.7756 H         1 IGM1455     0.0000 
     51 H         -34.4819   32.3975   -2.1554 H         1 IGM1455     0.0000 
     52 H         -35.3355   33.7188   -2.9712 H         1 IGM1455     0.0000 
     53 H         -35.7307   31.7537   -0.7383 H         1 IGM1455     0.0000 
     54 H         -37.4716   32.5861    0.4587 H         1 IGM1455     0.0000 
     55 H         -37.5062   34.2459   -0.1610 H         1 IGM1455     0.0000 
     56 H         -36.2022   34.3803    1.7559 H         1 IGM1455     0.0000 
     57 H         -35.3386   32.8671    1.4326 H         1 IGM1455     0.0000 
     58 H         -36.7007   31.5939   -2.9575 H         1 IGM1455     0.0000 
     59 H         -38.0837   32.6038   -2.5021 H         1 IGM1455     0.0000 
     60 H         -39.7913   31.3379   -1.7837 H         1 IGM1455     0.0000 
     61 H         -40.7633   29.5204   -0.5238 H         1 IGM1455     0.0000 
     62 H         -36.9303   28.2767    0.6138 H         1 IGM1455     0.0000 
     63 H         -35.9635   30.1053   -0.6291 H         1 IGM1455     0.0000 
     64 H         -40.4006   27.6123    0.4748 H         1 IGM1455     0.0000 
@<TRIPOS>BOND
     1    2    1 2    
     2    3    2 2    
     3    4    2 1    
     4   10    2 1    
     5    5    4 1    
     6    9    4 1    
     7    6    5 1    
     8   40    5 1    
     9   41    5 1    
    10    7    6 1    
    11   42    6 1    
    12   43    6 1    
    13    8    7 1    
    14    9    8 1    
    15   44    8 1    
    16   45    8 1    
    17   46    9 1    
    18   47    9 1    
    19   11   10 ar   
    20   16   10 ar   
    21   12   11 1    
    22   13   11 ar   
    23   14   13 ar   
    24   48   13 1    
    25   15   14 1    
    26   17   14 ar   
    27   17   16 ar   
    28   49   16 1    
    29   18   17 1    
    30   19   18 2    
    31   20   18 am   
    32   21   20 1    
    33   50   20 1    
    34   22   21 2    
    35   25   21 1    
    36   23   22 1    
    37   27   22 1    
    38   24   23 3    
    39   26   25 1    
    40   27   26 2    
    41   28   26 1    
    42   31   27 1    
    43   29   28 1    
    44   51   28 1    
    45   52   28 1    
    46   30   29 1    
    47   32   29 1    
    48   53   29 1    
    49   31   30 1    
    50   54   30 1    
    51   55   30 1    
    52   56   31 1    
    53   57   31 1    
    54   33   32 1    
    55   58   32 1    
    56   59   32 1    
    57   34   33 ar   
    58   39   33 ar   
    59   35   34 ar   
    60   60   34 1    
    61   36   35 ar   
    62   61   35 1    
    63   37   36 1    
    64   38   36 ar   
    65   64   37 1    
    66   39   38 ar   
    67   62   38 1    
    68   63   39 1    
@<TRIPOS>SUBSTRUCTURE
     1 IGM1455     1 GROUP   
@<TRIPOS>SET

