#    Name: 4g1w_G1W_1_INTS_M
#    Modification time : Mon Mar 24 21:12:30 2014

@<TRIPOS>MOLECULE
4g1w_G1W_1_INTS_M
   60     0     6     0     0
SMALL
NO_CHARGES


@<TRIPOS>ATOM
      1 CA          1.6385    6.0280  -12.9030 C.3       2 GLC5        0.0000 
      2 CA          1.8630    4.0110  -12.8000 C.3       6 GLL5        0.0000 
      3 CA          1.4140    8.0450  -13.0060 C.3       4 GLP5        0.0000 
      4 CA          0.4915    0.4830  -11.8685 C.3       2 GLC5        0.0000 
      5 CA         -0.1580    2.1120  -13.1500 C.3       6 GLL5        0.0000 
      6 CA          1.1410   -1.1460  -10.5870 C.3       4 GLP5        0.0000 
      7 CA          0.8005    2.4300  -10.2210 C.3       2 GLC5        0.0000 
      8 CA         -0.1780    3.0380  -12.0630 C.3       6 GLL5        0.0000 
      9 CA          1.7790    1.8220   -8.3790 C.3       4 GLP5        0.0000 
     10 CA         -2.2150    3.7890  -12.2540 C.3       2 GLC5        0.0000 
     11 CA         -4.2520    4.5400  -12.4450 C.3       4 GLP5        0.0000 
     12 CA          2.6700    3.1860  -11.6435 C.3       2 GLC5        0.0000 
     13 CA          0.8450    3.9730  -11.8820 C.3       6 GLL5        0.0000 
     14 CA          4.4950    2.3990  -11.4050 C.3       4 GLP5        0.0000 
     15 CA          0.4865    6.0450  -12.0615 C.3       2 GLC5        0.0000 
     16 CA          0.1280    8.1170  -12.2410 C.3       4 GLP5        0.0000 
     17 CA          1.5415    4.4695  -10.0170 C.3       2 GLC5        0.0000 
     18 CA          2.2380    4.9660   -8.1520 C.3       4 GLP5        0.0000 
     19 N          -0.7385    4.4945   -9.0680 N.am      1 SEC2        0.0000 
     20 N          -1.2980    3.7450  -10.1580 N.am      5 SEL2        0.0000 
     21 N          -0.1790    5.2440   -7.9780 N.am      3 SEP2        0.0000 
     22 CA          0.3975   -0.9535  -12.5065 C.3       2 GLC5        0.0000 
     23 CA         -0.3460   -0.7610  -14.4260 C.3       6 GLL5        0.0000 
     24 CA          1.4645   -0.8660  -14.0355 C.3       2 GLC5        0.0000 
     25 CA          3.2750   -0.9710  -13.6450 C.3       4 GLP5        0.0000 
     26 CA         -1.6670    3.5070   -7.7350 C.3       2 GLC5        0.0000 
     27 CA         -1.9110    1.3550   -8.1630 C.3       6 GLL5        0.0000 
     28 CA         -1.4230    5.6590   -7.3070 C.3       4 GLP5        0.0000 
     29 CA         -0.5200   -0.0215  -11.4435 C.3       2 GLC5        0.0000 
     30 CA         -2.1810    1.1030  -12.3000 C.3       6 GLL5        0.0000 
     31 CA          4.0473    3.6117  -15.1720 C.3       2 GLC5        0.0000 
     32 CA          1.8920    3.1210  -13.8750 C.3       6 GLL5        0.0000 
     33 CA          5.6930    4.0560  -16.0340 C.3       4 GLP5        0.0000 
     34 CA         -0.1338    3.7675  -14.4215 C.3       2 GLC5        0.0000 
     35 CA          0.9010    2.1580  -14.0600 C.3       6 GLL5        0.0000 
     36 CA         -0.6390    5.4000  -15.2380 C.3       4 GLP5        0.0000 
     37 CA         -0.1527    4.4527  -13.6052 C.3       2 GLC5        0.0000 
     38 CA         -2.0341    1.9434  -15.9826 C.3       2 GLC5        0.0000 
     39 CA         -1.2010    0.3360  -14.3780 C.3       6 GLL5        0.0000 
     40 CA         -2.1880    3.7770  -16.2390 C.3       4 GLP5        0.0000 
     41 CA          1.1998   -1.4407  -16.0980 C.3       2 GLC5        0.0000 
     42 CA         -0.3660   -1.5830  -15.5470 C.3       6 GLL5        0.0000 
     43 CA          3.2130   -1.4240  -16.1260 C.3       4 GLP5        0.0000 
     44 CA         -0.7394   -3.1656  -14.8990 C.3       2 GLC5        0.0000 
     45 CA         -0.8990   -5.2220  -14.5500 C.3       4 GLP5        0.0000 
     46 CA          0.0412    1.3805   -8.0095 C.3       2 GLC5        0.0000 
     47 CA         -2.9476    2.0665   -6.7299 C.3       2 GLC5        0.0000 
     48 CA         -1.4820    0.5230   -7.1170 C.3       6 GLL5        0.0000 
     49 CA         -3.9580    3.3030   -5.5930 C.3       4 GLP5        0.0000 
     50 CA         -1.0365   -2.2780   -8.0690 C.3       2 GLC5        0.0000 
     51 CA         -2.0180   -0.7600   -6.9620 C.3       6 GLL5        0.0000 
     52 CA          0.4320   -3.5790   -8.7200 C.3       4 GLP5        0.0000 
     53 CA         -4.8848    1.3584   -8.7559 C.3       2 GLC5        0.0000 
     54 CA         -3.4110   -0.3630   -8.9140 C.3       6 GLL5        0.0000 
     55 CA         -6.5110    2.2100   -8.2400 C.3       4 GLP5        0.0000 
     56 CA          2.7144    0.9779  -14.0006 C.3       2 GLC5        0.0000 
     57 CA          3.3226    2.7185  -12.8134 C.3       2 GLC5        0.0000 
     58 CA          2.9110    3.2140  -14.7450 C.3       6 GLL5        0.0000 
     59 CA          0.8776    4.3950  -14.6396 C.3       2 GLC5        0.0000 
     60 CA         -3.3681    3.0185  -11.9750 C.3       2 GLC5        0.0000 
@<TRIPOS>BOND
@<TRIPOS>SUBSTRUCTURE
     1 SEC2       19 GROUP        1 X    SEC  0     ROOT SEC X 2
     2 GLC5        1 GROUP        1 X    GLC  0     **** GLC X 6
     3 SEP2       21 GROUP        1 Y    SEP  0     ROOT SEP Y 9
     4 GLP5        3 GROUP        1 Y    GLP  0     **** GLP Y 13
     5 SEL2       20 GROUP        1 Z    SEL  0     ROOT SEL Z 16
     6 GLL5        2 GROUP        1 Z    GLL  0     **** GLL Z 20
@<TRIPOS>SET

