#    Name: 4g1w_G1W_1_ligand
#    Modification time : Mon Mar 24 21:12:30 2014

@<TRIPOS>MOLECULE
4g1w_G1W_1_ligand
   57    60     1     0     0
SMALL
NO_CHARGES


@<TRIPOS>ATOM
      1 C1          1.8630    4.0110  -12.8000 C.ar      1 G1W401      0.0000 
      2 C2          1.8920    3.1210  -13.8750 C.ar      1 G1W401      0.0000 
      3 C3          0.9010    2.1580  -14.0600 C.ar      1 G1W401      0.0000 
      4 C4         -0.1580    2.1120  -13.1500 C.ar      1 G1W401      0.0000 
      5 C5         -0.1780    3.0380  -12.0630 C.ar      1 G1W401      0.0000 
      6 C6          0.8450    3.9730  -11.8820 C.ar      1 G1W401      0.0000 
      7 C7         -1.2560    2.9560  -11.0790 C.2       1 G1W401      0.0000 
      8 O8         -1.2980    3.7450  -10.1580 O.2       1 G1W401      0.0000 
      9 N9         -1.1840    1.1930  -13.2610 N.pl3     1 G1W401      0.0000 
     10 C10        -1.2010    0.3360  -14.3780 C.ar      1 G1W401      0.0000 
     11 C11        -2.0860    0.5890  -15.4290 C.ar      1 G1W401      0.0000 
     12 C12        -2.1170   -0.2430  -16.5490 C.ar      1 G1W401      0.0000 
     13 C13        -1.2610   -1.3320  -16.5930 C.ar      1 G1W401      0.0000 
     14 C14        -0.3660   -1.5830  -15.5470 C.ar      1 G1W401      0.0000 
     15 C15        -0.3460   -0.7610  -14.4260 C.ar      1 G1W401      0.0000 
     16 C16        -2.2370    1.9480  -11.2310 C.2       1 G1W401      0.0000 
     17 C17        -3.3380    1.8340  -10.1890 C.3       1 G1W401      0.0000 
     18 C18        -2.8740    0.9190   -9.0700 C.ar      1 G1W401      0.0000 
     19 C19        -1.9110    1.3550   -8.1630 C.ar      1 G1W401      0.0000 
     20 C20        -1.4820    0.5230   -7.1170 C.ar      1 G1W401      0.0000 
     21 C21        -2.0180   -0.7600   -6.9620 C.ar      1 G1W401      0.0000 
     22 C22        -2.9920   -1.1940   -7.8740 C.ar      1 G1W401      0.0000 
     23 C23        -3.4110   -0.3630   -8.9140 C.ar      1 G1W401      0.0000 
     24 S24        -1.4770   -1.8320   -5.6330 S.o2      1 G1W401      0.0000 
     25 F25         2.9110    3.2140  -14.7450 F         1 G1W401      0.0000 
     26 C26        -2.1810    1.1030  -12.3000 C.2       1 G1W401      0.0000 
     27 C27        -3.2460    0.0680  -12.4320 C.2       1 G1W401      0.0000 
     28 C28        -2.4610   -1.2730   -4.1940 C.3       1 G1W401      0.0000 
     29 C29        -1.5870   -0.3690   -3.2850 C.3       1 G1W401      0.0000 
     30 O30        -1.9190   -0.6130   -1.8910 O.3       1 G1W401      0.0000 
     31 O31        -4.3780    0.3870  -12.7810 O.2       1 G1W401      0.0000 
     32 O32        -2.9690   -1.2350  -12.1800 O.3       1 G1W401      0.0000 
     33 C33        -3.9660   -2.2640  -12.5010 C.3       1 G1W401      0.0000 
     34 O34        -1.9590   -3.0900   -6.1200 O.2       1 G1W401      0.0000 
     35 O35        -0.0750   -1.6070   -5.4070 O.2       1 G1W401      0.0000 
     36 H           2.6263    4.7060  -12.7038 H         1 G1W401      0.0000 
     37 H           0.9466    1.5056  -14.8365 H         1 G1W401      0.0000 
     38 H           0.8237    4.6056  -11.0834 H         1 G1W401      0.0000 
     39 H          -2.7222    1.3985  -15.3760 H         1 G1W401      0.0000 
     40 H          -2.7582   -0.0497  -17.3172 H         1 G1W401      0.0000 
     41 H          -1.2793   -1.9700  -17.4057 H         1 G1W401      0.0000 
     42 H           0.2799   -2.3822  -15.6118 H         1 G1W401      0.0000 
     43 H           0.2865   -0.9587  -13.6489 H         1 G1W401      0.0000 
     44 H          -4.2286    1.4213  -10.6487 H         1 G1W401      0.0000 
     45 H          -3.5571    2.8162   -9.7865 H         1 G1W401      0.0000 
     46 H          -1.5060    2.2983   -8.2569 H         1 G1W401      0.0000 
     47 H          -0.7668    0.8616   -6.4594 H         1 G1W401      0.0000 
     48 H          -3.3990   -2.1340   -7.7723 H         1 G1W401      0.0000 
     49 H          -4.1271   -0.6980   -9.5780 H         1 G1W401      0.0000 
     50 H          -2.7355   -2.1845   -3.7393 H         1 G1W401      0.0000 
     51 H          -3.2605   -0.7592   -4.6519 H         1 G1W401      0.0000 
     52 H          -1.7789    0.6662   -3.5670 H         1 G1W401      0.0000 
     53 H          -0.5430   -0.6016   -3.4946 H         1 G1W401      0.0000 
     54 H          -4.1909   -2.2721  -13.4753 H         1 G1W401      0.0000 
     55 H          -3.6420   -3.1808  -12.2674 H         1 G1W401      0.0000 
     56 H          -4.8216   -2.1200  -12.0039 H         1 G1W401      0.0000 
     57 H          -1.3416   -0.0356   -1.3136 H         1 G1W401      0.0000 
@<TRIPOS>BOND
     1    2    1 ar   
     2    6    1 ar   
     3   36    1 1    
     4    3    2 ar   
     5   25    2 1    
     6    4    3 ar   
     7   37    3 1    
     8    5    4 ar   
     9    9    4 1    
    10    6    5 ar   
    11    7    5 1    
    12   38    6 1    
    13    8    7 2    
    14   16    7 1    
    15   10    9 1    
    16   26    9 1    
    17   11   10 ar   
    18   15   10 ar   
    19   12   11 ar   
    20   39   11 1    
    21   13   12 ar   
    22   40   12 1    
    23   14   13 ar   
    24   41   13 1    
    25   15   14 ar   
    26   42   14 1    
    27   43   15 1    
    28   17   16 1    
    29   26   16 2    
    30   18   17 1    
    31   44   17 1    
    32   45   17 1    
    33   19   18 ar   
    34   23   18 ar   
    35   20   19 ar   
    36   46   19 1    
    37   21   20 ar   
    38   47   20 1    
    39   22   21 ar   
    40   24   21 1    
    41   23   22 ar   
    42   48   22 1    
    43   49   23 1    
    44   28   24 1    
    45   34   24 2    
    46   35   24 2    
    47   27   26 1    
    48   31   27 2    
    49   32   27 1    
    50   29   28 1    
    51   50   28 1    
    52   51   28 1    
    53   30   29 1    
    54   52   29 1    
    55   53   29 1    
    56   57   30 1    
    57   33   32 1    
    58   54   33 1    
    59   55   33 1    
    60   56   33 1    
@<TRIPOS>SUBSTRUCTURE
     1 G1W401      1 GROUP   
@<TRIPOS>SET

