#    Name: 4b8l_A0P_1_INTS_M
#    Modification time : Tue Mar 25 07:05:32 2014

@<TRIPOS>MOLECULE
4b8l_A0P_1_INTS_M
   46     0    12     0     0
SMALL
NO_CHARGES


@<TRIPOS>ATOM
      1 NZ         25.6610   17.8315   19.5910 N.4       3 LYC4        0.0000 
      2 NZ         27.2060   17.2620   19.7150 N.4      11 LYL4        0.0000 
      3 NZ         24.1160   18.4010   19.4670 N.4       7 LYP4        0.0000 
      4 NZ         24.7650   17.0380   19.0790 N.4       3 LYC4        0.0000 
      5 NZ         25.4140   15.6750   18.6910 N.4      11 LYL4        0.0000 
      6 N          24.7650   17.0380   19.0790 N.am      2 SEC2        0.0000 
      7 N          25.4140   15.6750   18.6910 N.am     10 SEL2        0.0000 
      8 N          24.1160   18.4010   19.4670 N.am      6 SEP2        0.0000 
      9 N          28.7870   15.2390   20.5650 N.am      2 SEC2        0.0000 
     10 N          27.6550   14.6530   19.6250 N.am     10 SEL2        0.0000 
     11 N          29.9190   15.8250   21.5050 N.am      6 SEP2        0.0000 
     12 NZ         23.6815   17.0580   20.4810 N.4       3 LYC4        0.0000 
     13 NZ         23.2470   15.7150   21.4950 N.4      11 LYL4        0.0000 
     14 CA         26.4955   13.8785   23.1505 C.3       4 GLC5        0.0000 
     15 CA         24.5200   12.8100   23.0670 C.3      12 GLL5        0.0000 
     16 CA         28.4710   14.9470   23.2340 C.3       8 GLP5        0.0000 
     17 O          21.5850   11.0810   26.6545 O.2       1 ALC1        0.0000 
     18 O          21.2400   10.5000   25.2380 O.2       9 ALL1        0.0000 
     19 O          21.9300   11.6620   28.0710 O.2       5 ALP1        0.0000 
     20 CA         20.6380   13.4080   26.5955 C.3       4 GLC5        0.0000 
     21 CA         21.2760   12.8480   24.6980 C.3      12 GLL5        0.0000 
     22 CA         20.0000   13.9680   28.4930 C.3       8 GLP5        0.0000 
     23 CA         16.9830   16.9925   24.4580 C.3       4 GLC5        0.0000 
     24 CA         17.1360   15.3810   23.3990 C.3      12 GLL5        0.0000 
     25 CA         16.8300   18.6040   25.5170 C.3       8 GLP5        0.0000 
     26 CA         15.6180   14.2465   22.6790 C.3       4 GLC5        0.0000 
     27 CA         14.1000   13.1120   21.9590 C.3       8 GLP5        0.0000 
     28 O          15.4230   17.1340   22.3735 O.2       1 ALC1        0.0000 
     29 O          16.6470   16.3570   22.5960 O.2       9 ALL1        0.0000 
     30 O          14.1990   17.9110   22.1510 O.2       5 ALP1        0.0000 
     31 N          14.8485   14.7720   23.9030 N.am      2 SEC2        0.0000 
     32 N          16.3400   14.7150   24.2630 N.am     10 SEL2        0.0000 
     33 N          13.3570   14.8290   23.5430 N.am      6 SEP2        0.0000 
     34 CA         17.3895   14.5600   26.5555 C.3       4 GLC5        0.0000 
     35 CA         16.8230   13.7440   25.0590 C.3      12 GLL5        0.0000 
     36 CA         17.9560   15.3760   28.0520 C.3       8 GLP5        0.0000 
     37 CA         15.4615   13.4280   23.5090 C.3       4 GLC5        0.0000 
     38 CA         18.4905   14.6580   26.1550 C.3       4 GLC5        0.0000 
     39 CA         19.0250   13.9400   24.2580 C.3      12 GLL5        0.0000 
     40 CA         18.4600   12.7925   22.5370 C.3       4 GLC5        0.0000 
     41 CA         17.8950   11.6450   20.8160 C.3       8 GLP5        0.0000 
     42 CA         19.7343   15.8197   24.9505 C.3       4 GLC5        0.0000 
     43 CA         20.6720   17.1650   26.0950 C.3       8 GLP5        0.0000 
     44 CA         17.5765   14.5195   21.5892 C.3       4 GLC5        0.0000 
     45 CA         18.5680   15.0090   23.3540 C.3      12 GLL5        0.0000 
     46 CA         17.3010   13.8440   19.8020 C.3       8 GLP5        0.0000 
@<TRIPOS>BOND
@<TRIPOS>SUBSTRUCTURE
     1 ALC1       17 GROUP        1 X    ALC  0     ROOT ALC X 1
     2 SEC2        6 GROUP        1 X    SEC  0     **** SEC X 2
     3 LYC4        1 GROUP        1 X    LYC  0     **** LYC X 4
     4 GLC5       14 GROUP        1 X    GLC  0     **** GLC X 6
     5 ALP1       19 GROUP        1 Y    ALP  0     ROOT ALP Y 8
     6 SEP2        8 GROUP        1 Y    SEP  0     **** SEP Y 9
     7 LYP4        3 GROUP        1 Y    LYP  0     **** LYP Y 11
     8 GLP5       16 GROUP        1 Y    GLP  0     **** GLP Y 13
     9 ALL1       18 GROUP        1 Z    ALL  0     ROOT ALL Z 15
    10 SEL2        7 GROUP        1 Z    SEL  0     **** SEL Z 16
    11 LYL4        2 GROUP        1 Z    LYL  0     **** LYL Z 18
    12 GLL5       15 GROUP        1 Z    GLL  0     **** GLL Z 20
@<TRIPOS>SET

