#    Name: 4b8l_A0P_1_ligand
#    Modification time : Tue Mar 25 07:05:33 2014

@<TRIPOS>MOLECULE
4b8l_A0P_1_ligand
   43    45     1     0     0
SMALL
NO_CHARGES


@<TRIPOS>ATOM
      1 PG         27.7040   13.7040   18.1570 P.3       1 A0P1352     0.0000 
      2 O1G        27.9980   14.7040   17.0630 O.co2     1 A0P1352     0.0000 
      3 O2G        28.8100   12.7000   18.3870 O.co2     1 A0P1352     0.0000 
      4 O3G        26.3240   13.0950   18.0710 O.co2     1 A0P1352     0.0000 
      5 PB         26.4720   15.9370   19.7440 P.3       1 A0P1352     0.0000 
      6 O1B        27.2060   17.2620   19.7150 O.co2     1 A0P1352     0.0000 
      7 O2B        25.4140   15.6750   18.6910 O.co2     1 A0P1352     0.0000 
      8 N3B        27.6550   14.6530   19.6250 N.3       1 A0P1352     0.0000 
      9 PA         24.4760   14.8490   21.3870 P.3       1 A0P1352     0.0000 
     10 O1A        24.5430   13.7560   20.3470 O.co2     1 A0P1352     0.0000 
     11 O2A        23.2470   15.7150   21.4950 O.co2     1 A0P1352     0.0000 
     12 O3A        25.7510   15.8150   21.1830 O.3       1 A0P1352     0.0000 
     13 O5'        24.7730   14.1930   22.8290 O.3       1 A0P1352     0.0000 
     14 C5'        24.5200   12.8100   23.0670 C.3       1 A0P1352     0.0000 
     15 C4'        23.0180   12.6760   23.2180 C.3       1 A0P1352     0.0000 
     16 O4'        22.5880   13.3230   24.4110 O.3       1 A0P1352     0.0000 
     17 C3'        22.5060   11.2560   23.3540 C.3       1 A0P1352     0.0000 
     18 O3'        22.2310   10.6860   22.0720 O.3       1 A0P1352     0.0000 
     19 C2'        21.2300   11.4270   24.1530 C.3       1 A0P1352     0.0000 
     20 O2'        21.2400   10.5000   25.2380 O.3       1 A0P1352     0.0000 
     21 C1'        21.2760   12.8480   24.6980 C.3       1 A0P1352     0.0000 
     22 N9         20.3340   13.7870   24.0270 N.pl3     1 A0P1352     0.0000 
     23 C8         20.6920   14.6770   23.0800 C.2       1 A0P1352     0.0000 
     24 N7         19.6400   15.4170   22.6580 N.2       1 A0P1352     0.0000 
     25 C5         18.5680   15.0090   23.3540 C.ar      1 A0P1352     0.0000 
     26 C6         17.1360   15.3810   23.3990 C.ar      1 A0P1352     0.0000 
     27 N6         16.6470   16.3570   22.5960 N.pl3     1 A0P1352     0.0000 
     28 N1         16.3400   14.7150   24.2630 N.ar      1 A0P1352     0.0000 
     29 C2         16.8230   13.7440   25.0590 C.ar      1 A0P1352     0.0000 
     30 N3         18.1140   13.3570   25.0740 N.ar      1 A0P1352     0.0000 
     31 C4         19.0250   13.9400   24.2580 C.ar      1 A0P1352     0.0000 
     32 H          24.9869   12.4632   23.9808 H         1 A0P1352     0.0000 
     33 H          24.8359   12.1906   22.2364 H         1 A0P1352     0.0000 
     34 H          22.5266   13.1290   22.3645 H         1 A0P1352     0.0000 
     35 H          23.1950   10.7014   23.9315 H         1 A0P1352     0.0000 
     36 H          20.4026   11.3236   23.5172 H         1 A0P1352     0.0000 
     37 H          21.1073   12.8300   25.7468 H         1 A0P1352     0.0000 
     38 H          21.6113   14.7794   22.7334 H         1 A0P1352     0.0000 
     39 H          15.6642   16.5294   22.6615 H         1 A0P1352     0.0000 
     40 H          17.3123   16.8184   22.0090 H         1 A0P1352     0.0000 
     41 H          16.1429   13.2490   25.7197 H         1 A0P1352     0.0000 
     42 H          23.0946   10.7462   21.5715 H         1 A0P1352     0.0000 
     43 H          21.4729   11.0461   26.0427 H         1 A0P1352     0.0000 
@<TRIPOS>BOND
     1    2    1 ar   
     2    3    1 ar   
     3    4    1 ar   
     4    8    1 1    
     5    6    5 ar   
     6    7    5 ar   
     7    8    5 1    
     8   12    5 1    
     9   10    9 ar   
    10   11    9 ar   
    11   12    9 1    
    12   13    9 1    
    13   14   13 1    
    14   15   14 1    
    15   32   14 1    
    16   33   14 1    
    17   16   15 1    
    18   17   15 1    
    19   34   15 1    
    20   21   16 1    
    21   18   17 1    
    22   19   17 1    
    23   35   17 1    
    24   42   18 1    
    25   20   19 1    
    26   21   19 1    
    27   36   19 1    
    28   43   20 1    
    29   22   21 1    
    30   37   21 1    
    31   23   22 1    
    32   31   22 1    
    33   24   23 2    
    34   38   23 1    
    35   25   24 1    
    36   26   25 ar   
    37   31   25 ar   
    38   27   26 1    
    39   28   26 ar   
    40   39   27 1    
    41   40   27 1    
    42   29   28 ar   
    43   30   29 ar   
    44   41   29 1    
    45   31   30 ar   
@<TRIPOS>SUBSTRUCTURE
     1 A0P1352     1 GROUP   
@<TRIPOS>SET

