#    Name: 2fg5_GNP_1_INTS_M
#    Modification time : Tue Mar 25 12:32:52 2014

@<TRIPOS>MOLECULE
2fg5_GNP_1_INTS_M
   70     0    15     0     0
SMALL
NO_CHARGES


@<TRIPOS>ATOM
      1 N          18.9735    4.7425   -7.4160 N.am      2 SEC2        0.0000 
      2 N          18.6620    4.8130   -5.9720 N.am     12 SEL2        0.0000 
      3 N          19.2850    4.6720   -8.8600 N.am      7 SEP2        0.0000 
      4 Zn         21.7775    4.2050   -5.0360 Zn        4 ZIC7        0.0000 
      5 Zn         21.0540    4.0580   -5.6380 Zn       14 ZIL7        0.0000 
      6 Zn         22.5010    4.3520   -4.4340 Zn        9 ZIP7        0.0000 
      7 N          21.5655    5.2545   -6.4945 N.am      2 SEC2        0.0000 
      8 N          21.0540    4.0580   -5.6380 N.am     12 SEL2        0.0000 
      9 N          22.0770    6.4510   -7.3510 N.am      7 SEP2        0.0000 
     10 NZ         19.1610    1.3640   -4.6210 N.4       3 LYC4        0.0000 
     11 NZ         19.0420    2.5240   -5.2460 N.4      13 LYL4        0.0000 
     12 NZ         19.2800    0.2040   -3.9960 N.4       8 LYP4        0.0000 
     13 N          19.1610    1.3640   -4.6210 N.am      2 SEC2        0.0000 
     14 N          19.0420    2.5240   -5.2460 N.am     12 SEL2        0.0000 
     15 N          19.2800    0.2040   -3.9960 N.am      7 SEP2        0.0000 
     16 N          19.2640    1.8115   -6.5260 N.am      2 SEC2        0.0000 
     17 N          19.4860    1.0990   -7.8060 N.am      7 SEP2        0.0000 
     18 NZ         19.3035    1.1875   -3.1790 N.4       3 LYC4        0.0000 
     19 NZ         19.3270    2.1710   -2.3620 N.4      13 LYL4        0.0000 
     20 N          19.1795    2.0865   -0.7605 N.am      2 SEC2        0.0000 
     21 N          19.3270    2.1710   -2.3620 N.am     12 SEL2        0.0000 
     22 N          19.0320    2.0020    0.8410 N.am      7 SEP2        0.0000 
     23 N          20.4090    1.6350   -1.1900 N.am      2 SEC2        0.0000 
     24 N          21.4910    1.0990   -0.0180 N.am      7 SEP2        0.0000 
     25 N          19.3035    1.1875   -3.1790 N.am      2 SEC2        0.0000 
     26 Zn         22.0120    3.8570   -3.4880 Zn        4 ZIC7        0.0000 
     27 Zn         21.5230    3.3620   -2.5420 Zn       14 ZIL7        0.0000 
     28 N          22.6605    2.8835   -1.8405 N.am      2 SEC2        0.0000 
     29 N          21.5230    3.3620   -2.5420 N.am     12 SEL2        0.0000 
     30 N          23.7980    2.4050   -1.1390 N.am      7 SEP2        0.0000 
     31 N          23.0335    4.4225    0.5960 N.am      2 SEC2        0.0000 
     32 N          21.7610    4.8660    0.1570 N.am     12 SEL2        0.0000 
     33 N          24.3060    3.9790    1.0350 N.am      7 SEP2        0.0000 
     34 N          22.2570    5.4500    1.2690 N.am      2 SEC2        0.0000 
     35 N          22.7530    6.0340    2.3810 N.am      7 SEP2        0.0000 
     36 CA         17.2025    5.3640   -0.6455 C.3       5 GLC5        0.0000 
     37 CA         18.4040    6.5370    0.2030 C.3      15 GLL5        0.0000 
     38 CA         16.0010    4.1910   -1.4940 C.3      10 GLP5        0.0000 
     39 O          18.9240   11.0585    2.2185 O.2       1 ALC1        0.0000 
     40 O          18.1890    9.8100    1.8880 O.2      11 ALL1        0.0000 
     41 O          19.6590   12.3070    2.5490 O.2       6 ALP1        0.0000 
     42 CA         21.0230    8.0130    4.4465 C.3       5 GLC5        0.0000 
     43 CA         19.7240    8.1630    2.6980 C.3      15 GLL5        0.0000 
     44 CA         22.3220    7.8630    6.1950 C.3      10 GLP5        0.0000 
     45 O          21.6595   10.0295    3.2010 O.2       1 ALC1        0.0000 
     46 O          20.3710    9.1760    3.4520 O.2      11 ALL1        0.0000 
     47 O          22.9480   10.8830    2.9500 O.2       6 ALP1        0.0000 
     48 CA         17.2845    5.7160    3.7670 C.3       5 GLC5        0.0000 
     49 CA         18.6500    7.4460    3.5130 C.3      15 GLL5        0.0000 
     50 CA         15.9190    3.9860    4.0210 C.3      10 GLP5        0.0000 
     51 N          20.0850    3.1095    4.8800 N.am      2 SEC2        0.0000 
     52 N          20.4300    4.6740    5.0680 N.am     12 SEL2        0.0000 
     53 N          19.7400    1.5450    4.6920 N.am      7 SEP2        0.0000 
     54 N          20.7275    3.8225    9.6465 N.am      2 SEC2        0.0000 
     55 N          20.2410    3.8370    8.0310 N.am     12 SEL2        0.0000 
     56 N          21.2140    3.8080   11.2620 N.am      7 SEP2        0.0000 
     57 N          21.6765    4.5730    8.4890 N.am      2 SEC2        0.0000 
     58 N          23.1120    5.3090    8.9470 N.am      7 SEP2        0.0000 
     59 O          18.7275    4.9720    9.5495 O.2       1 ALC1        0.0000 
     60 O          18.8120    5.5560    8.2460 O.2      11 ALL1        0.0000 
     61 O          18.6430    4.3880   10.8530 O.2       6 ALP1        0.0000 
     62 O          18.2330    5.9055    9.8140 O.2       1 ALC1        0.0000 
     63 O          17.6540    6.2550   11.3820 O.2       6 ALP1        0.0000 
     64 O          17.4985    6.7535   10.0345 O.2       1 ALC1        0.0000 
     65 O          17.3430    7.2520    8.6870 O.2      11 ALL1        0.0000 
     66 CA         20.8443    8.7797    1.2328 C.3       5 GLC5        0.0000 
     67 CA         22.3760    9.1440    0.3540 C.3      10 GLP5        0.0000 
     68 CA         17.9522    4.3887    6.0740 C.3       5 GLC5        0.0000 
     69 CA         18.9510    6.2790    5.7450 C.3      15 GLL5        0.0000 
     70 CA         16.5750    3.0440    6.2060 C.3      10 GLP5        0.0000 
@<TRIPOS>BOND
@<TRIPOS>SUBSTRUCTURE
     1 ALC1       39 GROUP        1 X    ALC  0     ROOT ALC X 1
     2 SEC2        1 GROUP        1 X    SEC  0     **** SEC X 2
     3 LYC4       10 GROUP        1 X    LYC  0     **** LYC X 4
     4 ZIC7        4 GROUP        1 X    ZIC  0     **** ZIC X 5
     5 GLC5       36 GROUP        1 X    GLC  0     **** GLC X 6
     6 ALP1       41 GROUP        1 Y    ALP  0     ROOT ALP Y 8
     7 SEP2        3 GROUP        1 Y    SEP  0     **** SEP Y 9
     8 LYP4       12 GROUP        1 Y    LYP  0     **** LYP Y 11
     9 ZIP7        6 GROUP        1 Y    ZIP  0     **** ZIP Y 12
    10 GLP5       38 GROUP        1 Y    GLP  0     **** GLP Y 13
    11 ALL1       40 GROUP        1 Z    ALL  0     ROOT ALL Z 15
    12 SEL2        2 GROUP        1 Z    SEL  0     **** SEL Z 16
    13 LYL4       11 GROUP        1 Z    LYL  0     **** LYL Z 18
    14 ZIL7        5 GROUP        1 Z    ZIL  0     **** ZIL Z 19
    15 GLL5       37 GROUP        1 Z    GLL  0     **** GLL Z 20
@<TRIPOS>SET

