#    Name: 2fg5_GNP_1_ligand
#    Modification time : Tue Mar 25 12:32:52 2014

@<TRIPOS>MOLECULE
2fg5_GNP_1_ligand
   44    46     1     0     0
SMALL
NO_CHARGES


@<TRIPOS>ATOM
      1 PG         19.6190    3.9300   -5.1840 P.3       1 GNP302      0.0000 
      2 O1G        18.6620    4.8130   -5.9720 O.co2     1 GNP302      0.0000 
      3 O2G        21.0540    4.0580   -5.6380 O.co2     1 GNP302      0.0000 
      4 O3G        19.0420    2.5240   -5.2460 O.co2     1 GNP302      0.0000 
      5 N3B        19.5570    4.3590   -3.6250 N.4       1 GNP302      0.0000 
      6 PB         20.0620    3.4480   -2.4240 P.3       1 GNP302      0.0000 
      7 O1B        19.3270    2.1710   -2.3620 O.co2     1 GNP302      0.0000 
      8 O2B        21.5230    3.3620   -2.5420 O.co2     1 GNP302      0.0000 
      9 O3A        19.7430    4.1710   -1.1150 O.3       1 GNP302      0.0000 
     10 PA         20.5730    5.3550   -0.6010 P.3       1 GNP302      0.0000 
     11 O1A        21.7610    4.8660    0.1570 O.co2     1 GNP302      0.0000 
     12 O2A        20.8220    6.2780   -1.7080 O.co2     1 GNP302      0.0000 
     13 O5'        19.7050    6.0820    0.4890 O.3       1 GNP302      0.0000 
     14 C5'        18.4040    6.5370    0.2030 C.3       1 GNP302      0.0000 
     15 C4'        17.9460    7.5130    1.2740 C.3       1 GNP302      0.0000 
     16 O4'        17.8220    6.8160    2.5490 O.3       1 GNP302      0.0000 
     17 C3'        18.9010    8.6680    1.5250 C.3       1 GNP302      0.0000 
     18 O3'        18.1890    9.8100    1.8880 O.3       1 GNP302      0.0000 
     19 C2'        19.7240    8.1630    2.6980 C.3       1 GNP302      0.0000 
     20 O2'        20.3710    9.1760    3.4520 O.3       1 GNP302      0.0000 
     21 C1'        18.6500    7.4460    3.5130 C.3       1 GNP302      0.0000 
     22 N9         19.1960    6.4290    4.4030 N.pl3     1 GNP302      0.0000 
     23 C8         20.0880    5.4360    4.0670 C.2       1 GNP302      0.0000 
     24 N7         20.4300    4.6740    5.0680 N.2       1 GNP302      0.0000 
     25 C5         19.7080    5.1880    6.1390 C.2       1 GNP302      0.0000 
     26 C6         19.6530    4.7720    7.4840 C.2       1 GNP302      0.0000 
     27 O6         20.2410    3.8370    8.0310 O.2       1 GNP302      0.0000 
     28 N1         18.8120    5.5560    8.2460 N.am      1 GNP302      0.0000 
     29 C2         18.0950    6.6240    7.7750 C.2       1 GNP302      0.0000 
     30 N2         17.3430    7.2520    8.6870 N.pl3     1 GNP302      0.0000 
     31 N3         18.1280    7.0410    6.5060 N.2       1 GNP302      0.0000 
     32 C4         18.9510    6.2790    5.7450 C.2       1 GNP302      0.0000 
     33 H          17.6748    5.7129    0.1702 H         1 GNP302      0.0000 
     34 H          18.3507    7.0572   -0.7658 H         1 GNP302      0.0000 
     35 H          16.9820    7.9202    1.0011 H         1 GNP302      0.0000 
     36 H          19.5295    8.7720    0.6918 H         1 GNP302      0.0000 
     37 H          20.3842    7.4022    2.3256 H         1 GNP302      0.0000 
     38 H          18.0971    8.1848    4.0555 H         1 GNP302      0.0000 
     39 H          20.4228    5.3387    3.1246 H         1 GNP302      0.0000 
     40 H          18.7151    5.3088    9.2805 H         1 GNP302      0.0000 
     41 H          16.8352    8.0507    8.3641 H         1 GNP302      0.0000 
     42 H          17.3564    6.8662    9.6095 H         1 GNP302      0.0000 
     43 H          18.7878   10.2970    2.5237 H         1 GNP302      0.0000 
     44 H          21.1840    9.4144    2.9208 H         1 GNP302      0.0000 
@<TRIPOS>BOND
     1    2    1 ar   
     2    3    1 ar   
     3    4    1 ar   
     4    5    1 1    
     5    6    5 1    
     6    7    6 ar   
     7    8    6 ar   
     8    9    6 1    
     9   10    9 1    
    10   11   10 ar   
    11   12   10 ar   
    12   13   10 1    
    13   14   13 1    
    14   15   14 1    
    15   33   14 1    
    16   34   14 1    
    17   16   15 1    
    18   17   15 1    
    19   35   15 1    
    20   21   16 1    
    21   18   17 1    
    22   19   17 1    
    23   36   17 1    
    24   43   18 1    
    25   20   19 1    
    26   21   19 1    
    27   37   19 1    
    28   44   20 1    
    29   22   21 1    
    30   38   21 1    
    31   23   22 1    
    32   32   22 1    
    33   24   23 2    
    34   39   23 1    
    35   25   24 1    
    36   26   25 1    
    37   32   25 2    
    38   27   26 2    
    39   28   26 am   
    40   29   28 1    
    41   40   28 1    
    42   30   29 1    
    43   31   29 2    
    44   41   30 1    
    45   42   30 1    
    46   32   31 1    
@<TRIPOS>SUBSTRUCTURE
     1 GNP302      1 GROUP   
@<TRIPOS>SET

