#    Name: 1r58_AO5_1_INTS_M
#    Modification time : Tue Mar 25 00:21:41 2014

@<TRIPOS>MOLECULE
1r58_AO5_1_INTS_M
   64     0     9     0     0
SMALL
NO_CHARGES


@<TRIPOS>ATOM
      1 CA         18.9160   34.8010   17.2930 C.3       3 GLC5        0.0000 
      2 CA         19.5710   33.0360   16.1000 C.3       9 GLL5        0.0000 
      3 CA         18.2610   36.5660   18.4860 C.3       6 GLP5        0.0000 
      4 CA         17.8860   34.5265   13.7255 C.3       3 GLC5        0.0000 
      5 CA         18.7930   34.0790   15.2970 C.3       9 GLL5        0.0000 
      6 CA         16.9790   34.9740   12.1540 C.3       6 GLP5        0.0000 
      7 CA         18.4080   35.7100   16.3245 C.3       3 GLC5        0.0000 
      8 CA         18.0230   37.3410   17.3520 C.3       6 GLP5        0.0000 
      9 CA         20.6410   32.5705   18.7745 C.3       3 GLC5        0.0000 
     10 CA         19.9230   33.5930   17.4710 C.3       9 GLL5        0.0000 
     11 CA         21.3590   31.5480   20.0780 C.3       6 GLP5        0.0000 
     12 CA         21.9600   33.8925   17.2745 C.3       3 GLC5        0.0000 
     13 CA         23.9970   34.1920   17.0780 C.3       6 GLP5        0.0000 
     14 CA         19.7595   35.1060   18.3375 C.3       3 GLC5        0.0000 
     15 CA         19.5960   36.6190   19.2040 C.3       6 GLP5        0.0000 
     16 CA         21.8660   31.9795   13.6060 C.3       3 GLC5        0.0000 
     17 CA         21.0510   32.5290   15.2710 C.3       9 GLL5        0.0000 
     18 CA         22.6810   31.4300   11.9410 C.3       6 GLP5        0.0000 
     19 CA         22.7705   33.1940   14.1315 C.3       3 GLC5        0.0000 
     20 CA         24.4900   33.8590   12.9920 C.3       6 GLP5        0.0000 
     21 CA         22.5240   33.3605   16.1745 C.3       3 GLC5        0.0000 
     22 CA         20.9200   33.6630   13.8280 C.3       3 GLC5        0.0000 
     23 CA         20.7890   34.7970   12.3850 C.3       6 GLP5        0.0000 
     24 CA         21.7620   30.3510   13.6250 C.3       3 GLC5        0.0000 
     25 CA         20.8100   30.7630   15.0850 C.3       9 GLL5        0.0000 
     26 CA         22.7140   29.9390   12.1650 C.3       6 GLP5        0.0000 
     27 CA         22.3395   29.6845   14.7165 C.3       3 GLC5        0.0000 
     28 CA         21.0560   29.9950   16.3750 C.3       9 GLL5        0.0000 
     29 CA         23.6230   29.3740   13.0580 C.3       6 GLP5        0.0000 
     30 CA         21.2075   30.7715   18.2265 C.3       3 GLC5        0.0000 
     31 CA         22.1200   28.2725   14.7600 C.3       3 GLC5        0.0000 
     32 CA         20.6120   28.5460   16.2170 C.3       9 GLL5        0.0000 
     33 CA         23.6280   27.9990   13.3030 C.3       6 GLP5        0.0000 
     34 Zn         21.8095   26.8070   16.0690 Zn        2 ZIC7        0.0000 
     35 Zn         21.9220   27.9620   15.8740 Zn        8 ZIL7        0.0000 
     36 Zn         21.6970   25.6520   16.2640 Zn        5 ZIP7        0.0000 
     37 Zn         20.8675   26.0965   16.9130 Zn        2 ZIC7        0.0000 
     38 Zn         20.0380   26.5410   17.5620 Zn        8 ZIL7        0.0000 
     39 Zn         19.1265   26.0505   17.0155 Zn        2 ZIC7        0.0000 
     40 Zn         18.2150   25.5600   16.4690 Zn        5 ZIP7        0.0000 
     41 O          19.7370   25.6165   18.5180 O.2       1 ALC1        0.0000 
     42 O          20.0380   26.5410   17.5620 O.2       7 ALL1        0.0000 
     43 O          19.4360   24.6920   19.4740 O.2       4 ALP1        0.0000 
     44 Zn         17.9270   26.7095   16.8540 Zn        2 ZIC7        0.0000 
     45 Zn         17.6390   27.8590   17.2390 Zn        8 ZIL7        0.0000 
     46 O          19.2550   30.4820   19.2640 O.2       1 ALC1        0.0000 
     47 O          18.4980   29.6570   18.5610 O.2       7 ALL1        0.0000 
     48 O          20.0120   31.3070   19.9670 O.2       4 ALP1        0.0000 
     49 CA         12.5075   32.0490   15.1750 C.3       3 GLC5        0.0000 
     50 CA         12.6480   33.8090   15.7870 C.3       9 GLL5        0.0000 
     51 CA         12.3670   30.2890   14.5630 C.3       6 GLP5        0.0000 
     52 CA         14.1485   34.3510   14.5670 C.3       3 GLC5        0.0000 
     53 CA         15.6490   34.8930   13.3470 C.3       6 GLP5        0.0000 
     54 CA         14.2210   35.1340   16.4735 C.3       3 GLC5        0.0000 
     55 CA         15.7940   36.4590   17.1600 C.3       6 GLP5        0.0000 
     56 CA         19.9855   34.1773   14.0418 C.3       3 GLC5        0.0000 
     57 CA         13.8257   30.4880   17.8753 C.3       3 GLC5        0.0000 
     58 CA         15.2500   31.7070   18.1670 C.3       9 GLL5        0.0000 
     59 CA         12.7410   29.2570   16.9140 C.3       6 GLP5        0.0000 
     60 CA         12.8422   31.0140   17.9885 C.3       3 GLC5        0.0000 
     61 CA         13.2610   32.4350   19.6490 C.3       9 GLL5        0.0000 
     62 CA         13.5353   31.1712   16.3785 C.3       3 GLC5        0.0000 
     63 CA         13.3160   33.0650   17.1750 C.3       9 GLL5        0.0000 
     64 CA         13.1180   29.6150   15.6640 C.3       6 GLP5        0.0000 
@<TRIPOS>BOND
@<TRIPOS>SUBSTRUCTURE
     1 ALC1       41 GROUP        1 X    ALC  0     ROOT ALC X 1
     2 ZIC7       34 GROUP        1 X    ZIC  0     **** ZIC X 5
     3 GLC5        1 GROUP        1 X    GLC  0     **** GLC X 6
     4 ALP1       43 GROUP        1 Y    ALP  0     ROOT ALP Y 8
     5 ZIP7       36 GROUP        1 Y    ZIP  0     **** ZIP Y 12
     6 GLP5        3 GROUP        1 Y    GLP  0     **** GLP Y 13
     7 ALL1       42 GROUP        1 Z    ALL  0     ROOT ALL Z 15
     8 ZIL7       35 GROUP        1 Z    ZIL  0     **** ZIL Z 19
     9 GLL5        2 GROUP        1 Z    GLL  0     **** GLL Z 20
@<TRIPOS>SET

