#    Name: 1r58_AO5_1_ligand
#    Modification time : Tue Mar 25 00:21:41 2014

@<TRIPOS>MOLECULE
1r58_AO5_1_ligand
   45    45     1     0     0
SMALL
NO_CHARGES


@<TRIPOS>ATOM
      1 C1         19.5710   33.0360   16.1000 C.3       1 AO5501      0.0000 
      2 C2         18.7930   34.0790   15.2970 C.3       1 AO5501      0.0000 
      3 C3         19.9230   33.5930   17.4710 C.3       1 AO5501      0.0000 
      4 S4         21.0510   32.5290   15.2710 S.3       1 AO5501      0.0000 
      5 C5         20.8100   30.7630   15.0850 C.3       1 AO5501      0.0000 
      6 C6         21.0560   29.9950   16.3750 C.3       1 AO5501      0.0000 
      7 C7         20.6120   28.5460   16.2170 C.3       1 AO5501      0.0000 
      8 N8         21.9220   27.9620   15.8740 N.3       1 AO5501      0.0000 
      9 C9         20.0220   27.9640   17.5610 C.3       1 AO5501      0.0000 
     10 O10        20.0380   26.5410   17.5620 O.3       1 AO5501      0.0000 
     11 C11        18.5920   28.4240   17.7420 C.2       1 AO5501      0.0000 
     12 O12        17.6390   27.8590   17.2390 O.2       1 AO5501      0.0000 
     13 N13        18.4980   29.6570   18.5610 N.am      1 AO5501      0.0000 
     14 N14        17.2150   30.3150   18.8200 N.am      1 AO5501      0.0000 
     15 C15        16.5600   31.0460   17.8580 C.2       1 AO5501      0.0000 
     16 O16        17.0760   31.1400   16.7250 O.2       1 AO5501      0.0000 
     17 C17        15.2500   31.7070   18.1670 C.ar      1 AO5501      0.0000 
     18 C18        14.5710   31.7310   19.5060 C.ar      1 AO5501      0.0000 
     19 C19        13.2610   32.4350   19.6490 C.ar      1 AO5501      0.0000 
     20 C20        12.6260   33.1070   18.4770 C.ar      1 AO5501      0.0000 
     21 C21        13.3160   33.0650   17.1750 C.ar      1 AO5501      0.0000 
     22 C22        14.5890   32.3900   17.0110 C.ar      1 AO5501      0.0000 
     23 CL23       12.6480   33.8090   15.7870 Cl        1 AO5501      0.0000 
     24 H          19.0129   32.1299   16.1962 H         1 AO5501      0.0000 
     25 H          21.5013   30.5107   14.3006 H         1 AO5501      0.0000 
     26 H          19.7942   30.6976   14.7374 H         1 AO5501      0.0000 
     27 H          20.4947   30.4571   17.1834 H         1 AO5501      0.0000 
     28 H          22.1159   30.0222   16.6153 H         1 AO5501      0.0000 
     29 H          19.9442   28.4688   15.4339 H         1 AO5501      0.0000 
     30 H          20.6136   28.3688   18.3686 H         1 AO5501      0.0000 
     31 H          19.3487   30.0490   18.9485 H         1 AO5501      0.0000 
     32 H          16.8204   30.2030   19.7703 H         1 AO5501      0.0000 
     33 H          14.9885   31.2853   20.2817 H         1 AO5501      0.0000 
     34 H          12.8059   32.4559   20.5380 H         1 AO5501      0.0000 
     35 H          11.7587   33.5694   18.5806 H         1 AO5501      0.0000 
     36 H          15.0501   32.3694   16.1158 H         1 AO5501      0.0000 
     37 H          19.3235   34.9161   15.1631 H         1 AO5501      0.0000 
     38 H          18.5459   33.7402   14.3892 H         1 AO5501      0.0000 
     39 H          17.9427   34.3408   15.7536 H         1 AO5501      0.0000 
     40 H          20.4340   32.9320   18.0204 H         1 AO5501      0.0000 
     41 H          20.4866   34.4163   17.4039 H         1 AO5501      0.0000 
     42 H          19.1062   33.8387   17.9929 H         1 AO5501      0.0000 
     43 H          22.3779   28.4743   15.1462 H         1 AO5501      0.0000 
     44 H          22.5417   27.9533   16.6588 H         1 AO5501      0.0000 
     45 H          19.7021   26.2792   18.4668 H         1 AO5501      0.0000 
@<TRIPOS>BOND
     1    2    1 1    
     2    3    1 1    
     3    4    1 1    
     4   24    1 1    
     5   37    2 1    
     6   38    2 1    
     7   39    2 1    
     8   40    3 1    
     9   41    3 1    
    10   42    3 1    
    11    5    4 1    
    12    6    5 1    
    13   25    5 1    
    14   26    5 1    
    15    7    6 1    
    16   27    6 1    
    17   28    6 1    
    18    8    7 1    
    19    9    7 1    
    20   29    7 1    
    21   43    8 1    
    22   44    8 1    
    23   10    9 1    
    24   11    9 1    
    25   30    9 1    
    26   45   10 1    
    27   12   11 2    
    28   13   11 am   
    29   14   13 1    
    30   31   13 1    
    31   15   14 am   
    32   32   14 1    
    33   16   15 2    
    34   17   15 1    
    35   18   17 ar   
    36   22   17 ar   
    37   19   18 ar   
    38   33   18 1    
    39   20   19 ar   
    40   34   19 1    
    41   21   20 ar   
    42   35   20 1    
    43   22   21 ar   
    44   23   21 1    
    45   36   22 1    
@<TRIPOS>SUBSTRUCTURE
     1 AO5501      1 GROUP   
@<TRIPOS>SET

