#    Name: 2ard_FDA_1_INTS_M
#    Modification time : Mon Mar 24 19:36:54 2014

@<TRIPOS>MOLECULE
2ard_FDA_1_INTS_M
  128     0     9     0     0
SMALL
NO_CHARGES


@<TRIPOS>ATOM
      1 N          35.6855   12.5135   98.6450 N.am      2 SEC2        0.0000 
      2 N          35.4520   12.3620   97.2900 N.am      8 SEL2        0.0000 
      3 N          35.9190   12.6650  100.0000 N.am      5 SEP2        0.0000 
      4 CA         36.1715    8.3725   95.5040 C.3       3 GLC5        0.0000 
      5 CA         34.4520    8.8210   96.5700 C.3       9 GLL5        0.0000 
      6 CA         37.8910    7.9240   94.4380 C.3       6 GLP5        0.0000 
      7 CA         32.1465   10.2220   96.2270 C.3       3 GLC5        0.0000 
      8 CA         33.0200    8.2790   96.5690 C.3       9 GLL5        0.0000 
      9 CA         31.2730   12.1650   95.8850 C.3       6 GLP5        0.0000 
     10 N          30.1820    8.4320   96.4965 N.am      2 SEC2        0.0000 
     11 N          30.8590    8.4160   97.6710 N.am      8 SEL2        0.0000 
     12 N          29.5050    8.4480   95.3220 N.am      5 SEP2        0.0000 
     13 CA         33.3435    5.6820   99.9410 C.3       3 GLC5        0.0000 
     14 CA         32.5380    6.7940   98.3820 C.3       9 GLL5        0.0000 
     15 CA         34.1490    4.5700  101.5000 C.3       6 GLP5        0.0000 
     16 O          31.9580    6.7010  100.4255 O.2       1 ALC1        0.0000 
     17 O          31.4490    6.3850   99.2440 O.2       7 ALL1        0.0000 
     18 O          32.4670    7.0170  101.6070 O.2       4 ALP1        0.0000 
     19 CA         31.4750    6.2740   95.6480 C.3       3 GLC5        0.0000 
     20 CA         32.4700    6.0430   97.0370 C.3       9 GLL5        0.0000 
     21 CA         30.4800    6.5050   94.2590 C.3       6 GLP5        0.0000 
     22 CA         32.2835    0.2800   98.8105 C.3       3 GLC5        0.0000 
     23 CA         32.9750    1.1960   97.1320 C.3       9 GLL5        0.0000 
     24 CA         31.5920   -0.6360  100.4890 C.3       6 GLP5        0.0000 
     25 CA         32.0820   -0.4565   96.0815 C.3       3 GLC5        0.0000 
     26 CA         31.1890   -2.1090   95.0310 C.3       6 GLP5        0.0000 
     27 CA         33.6350    0.1315   95.3935 C.3       3 GLC5        0.0000 
     28 CA         34.2950   -0.9330   93.6550 C.3       6 GLP5        0.0000 
     29 O          33.4950   -1.3175   97.2575 O.2       1 ALC1        0.0000 
     30 O          33.8790    0.1860   97.1600 O.2       7 ALL1        0.0000 
     31 O          33.1110   -2.8210   97.3550 O.2       4 ALP1        0.0000 
     32 N          31.0625   -0.3745   97.2370 N.am      2 SEC2        0.0000 
     33 N          31.6430    0.9590   97.1210 N.am      8 SEL2        0.0000 
     34 N          30.4820   -1.7080   97.3530 N.am      5 SEP2        0.0000 
     35 CA         31.2280    2.1655   95.0500 C.3       3 GLC5        0.0000 
     36 CA         30.7500    1.9540   97.1070 C.3       9 GLL5        0.0000 
     37 CA         31.7060    2.3770   92.9930 C.3       6 GLP5        0.0000 
     38 CA         28.7860    1.5210   96.3390 C.3       3 GLC5        0.0000 
     39 CA         26.8220    1.0880   95.5710 C.3       6 GLP5        0.0000 
     40 CA         29.2015    3.4130   97.3240 C.3       3 GLC5        0.0000 
     41 CA         27.6530    4.8720   97.5410 C.3       6 GLP5        0.0000 
     42 CA         30.6230    2.2430   98.9185 C.3       3 GLC5        0.0000 
     43 CA         30.4960    2.5320  100.7300 C.3       6 GLP5        0.0000 
     44 CA         30.0305    0.4900   98.2160 C.3       3 GLC5        0.0000 
     45 CA         29.3110   -0.9740   99.3250 C.3       6 GLP5        0.0000 
     46 CA         30.3885    0.3605   95.8525 C.3       3 GLC5        0.0000 
     47 CA         30.0270   -1.2330   94.5980 C.3       6 GLP5        0.0000 
     48 N          30.0360    3.5250   98.1985 N.am      2 SEC2        0.0000 
     49 N          31.1270    3.2210   97.0790 N.am      8 SEL2        0.0000 
     50 N          28.9450    3.8290   99.3180 N.am      5 SEP2        0.0000 
     51 CA         31.4680    3.0295   98.8980 C.3       3 GLC5        0.0000 
     52 CA         32.4400    3.5270   97.0660 C.3       9 GLL5        0.0000 
     53 N          38.3520   20.6800   90.3210 N.am      2 SEC2        0.0000 
     54 N          38.7970   21.7270   90.9300 N.am      8 SEL2        0.0000 
     55 N          37.9070   19.6330   89.7120 N.am      5 SEP2        0.0000 
     56 O          38.7630   23.7625   92.6845 O.2       1 ALC1        0.0000 
     57 O          39.5510   22.6750   92.9040 O.2       7 ALL1        0.0000 
     58 O          37.9750   24.8500   92.4650 O.2       4 ALP1        0.0000 
     59 N          38.8640   24.3680   95.0495 N.am      2 SEC2        0.0000 
     60 N          40.3200   23.4990   94.8970 N.am      8 SEL2        0.0000 
     61 N          37.4080   25.2370   95.2020 N.am      5 SEP2        0.0000 
     62 CA         42.3270   21.4490   94.9765 C.3       3 GLC5        0.0000 
     63 CA         40.3040   21.1750   94.6770 C.3       9 GLL5        0.0000 
     64 CA         44.3500   21.7230   95.2760 C.3       6 GLP5        0.0000 
     65 CA         45.1715   18.1255  100.1435 C.3       3 GLC5        0.0000 
     66 CA         43.7850   18.0960   98.7830 C.3       9 GLL5        0.0000 
     67 CA         46.5580   18.1550  101.5040 C.3       6 GLP5        0.0000 
     68 CA         43.5515   19.6725   99.7725 C.3       3 GLC5        0.0000 
     69 CA         43.3180   21.2490  100.7620 C.3       6 GLP5        0.0000 
     70 CA         42.9810   17.1105  100.4815 C.3       3 GLC5        0.0000 
     71 CA         42.1770   16.1250  102.1800 C.3       6 GLP5        0.0000 
     72 CA         41.8345   14.4185   98.0565 C.3       3 GLC5        0.0000 
     73 CA         43.0570   15.7420   97.0110 C.3       9 GLL5        0.0000 
     74 CA         40.6120   13.0950   99.1020 C.3       6 GLP5        0.0000 
     75 CA         43.0020   13.6540   96.7650 C.3       3 GLC5        0.0000 
     76 CA         42.9470   11.5660   96.5190 C.3       6 GLP5        0.0000 
     77 CA         43.5600   14.9720   98.8935 C.3       3 GLC5        0.0000 
     78 CA         44.0630   14.2020  100.7760 C.3       6 GLP5        0.0000 
     79 CA         44.7495   14.5005   96.8200 C.3       3 GLC5        0.0000 
     80 CA         46.4420   13.2590   96.6290 C.3       6 GLP5        0.0000 
     81 CA         43.9595   16.1470   95.3320 C.3       3 GLC5        0.0000 
     82 CA         44.8620   16.5520   93.6530 C.3       6 GLP5        0.0000 
     83 CA         41.4610   18.5970   93.0680 C.3       3 GLC5        0.0000 
     84 CA         39.9960   20.0720   93.8540 C.3       9 GLL5        0.0000 
     85 CA         42.9260   17.1220   92.2820 C.3       6 GLP5        0.0000 
     86 CA         40.1110   19.5145   91.7145 C.3       3 GLC5        0.0000 
     87 CA         40.2260   18.9570   89.5750 C.3       6 GLP5        0.0000 
     88 CA         41.3045   17.3405   92.9415 C.3       3 GLC5        0.0000 
     89 CA         39.6830   17.5590   93.6010 C.3       9 GLL5        0.0000 
     90 CA         39.9545   18.2580   91.5880 C.3       3 GLC5        0.0000 
     91 CA         37.8780   18.8340   95.2945 C.3       3 GLC5        0.0000 
     92 CA         38.3000   17.2720   94.1530 C.3       9 GLL5        0.0000 
     93 CA         37.4560   20.3960   96.4360 C.3       6 GLP5        0.0000 
     94 CA         38.8060   14.3060   93.5140 C.3       3 GLC5        0.0000 
     95 CA         37.6990   15.9830   93.5830 C.3       9 GLL5        0.0000 
     96 CA         39.9130   12.6290   93.4450 C.3       6 GLP5        0.0000 
     97 CA         35.6340   16.1140   91.9015 C.3       3 GLC5        0.0000 
     98 CA         36.2070   15.8630   93.9110 C.3       9 GLL5        0.0000 
     99 CA         35.0610   16.3650   89.8920 C.3       6 GLP5        0.0000 
    100 CA         36.8570   14.4855   96.2985 C.3       3 GLC5        0.0000 
    101 CA         35.9190   14.5190   94.5220 C.3       9 GLL5        0.0000 
    102 CA         37.7950   14.4520   98.0750 C.3       6 GLP5        0.0000 
    103 CA         37.8510   13.6345   94.7385 C.3       3 GLC5        0.0000 
    104 CA         39.7830   12.7500   94.9550 C.3       6 GLP5        0.0000 
    105 N          37.5205   11.3465   91.8450 N.am      2 SEC2        0.0000 
    106 N          36.5720   11.2240   92.8030 N.am      8 SEL2        0.0000 
    107 N          38.4690   11.4690   90.8870 N.am      5 SEP2        0.0000 
    108 N          33.3460   12.9045   92.9450 N.am      2 SEC2        0.0000 
    109 N          34.1000   11.9300   93.8710 N.am      8 SEL2        0.0000 
    110 N          32.5920   13.8790   92.0190 N.am      5 SEP2        0.0000 
    111 CA         31.5655    7.3805   95.7505 C.3       3 GLC5        0.0000 
    112 CA         34.1255    2.0650   98.9112 C.3       3 GLC5        0.0000 
    113 CA         33.3970    2.5200   97.1090 C.3       9 GLL5        0.0000 
    114 CA         35.0650    2.2720  100.7020 C.3       6 GLP5        0.0000 
    115 CA         32.2595    2.5347   95.0431 C.3       3 GLC5        0.0000 
    116 CA         38.8030   20.5098   95.3508 C.3       3 GLC5        0.0000 
    117 CA         39.3567   19.7535   96.1418 C.3       3 GLC5        0.0000 
    118 CA         41.4180   19.6650   96.2550 C.3       9 GLL5        0.0000 
    119 CA         41.6058   18.1295   98.8430 C.3       3 GLC5        0.0000 
    120 CA         42.8380   18.2420   97.5930 C.3       9 GLL5        0.0000 
    121 CA         39.9000   18.0900   99.4980 C.3       6 GLP5        0.0000 
    122 CA         43.9339   19.0870   96.7370 C.3       3 GLC5        0.0000 
    123 CA         42.5100   17.1410   96.7780 C.3       9 GLL5        0.0000 
    124 CA         44.9570   20.5190   95.9910 C.3       6 GLP5        0.0000 
    125 CA         43.2154   19.7947   96.0544 C.3       3 GLC5        0.0000 
    126 CA         34.2280   15.8275   94.0352 C.3       3 GLC5        0.0000 
    127 CA         32.3930   16.4640   93.8540 C.3       6 GLP5        0.0000 
    128 CA         40.8378   18.1187   97.8394 C.3       3 GLC5        0.0000 
@<TRIPOS>BOND
@<TRIPOS>SUBSTRUCTURE
     1 ALC1       16 GROUP        1 X    ALC  0     ROOT ALC X 1
     2 SEC2        1 GROUP        1 X    SEC  0     **** SEC X 2
     3 GLC5        4 GROUP        1 X    GLC  0     **** GLC X 6
     4 ALP1       18 GROUP        1 Y    ALP  0     ROOT ALP Y 8
     5 SEP2        3 GROUP        1 Y    SEP  0     **** SEP Y 9
     6 GLP5        6 GROUP        1 Y    GLP  0     **** GLP Y 13
     7 ALL1       17 GROUP        1 Z    ALL  0     ROOT ALL Z 15
     8 SEL2        2 GROUP        1 Z    SEL  0     **** SEL Z 16
     9 GLL5        5 GROUP        1 Z    GLL  0     **** GLL Z 20
@<TRIPOS>SET

