#    Name: 2ard_FDA_1_ligand
#    Modification time : Mon Mar 24 19:36:55 2014

@<TRIPOS>MOLECULE
2ard_FDA_1_ligand
   86    91     1     0     0
SMALL
NO_CHARGES


@<TRIPOS>ATOM
      1 PA         35.8960   10.9650   96.6050 P.3       1 FDA650      0.0000 
      2 O1A        35.4520   12.3620   97.2900 O.co2     1 FDA650      0.0000 
      3 O2A        37.0990   10.1980   97.1100 O.co2     1 FDA650      0.0000 
      4 O5B        34.4800   10.2450   96.7180 O.3       1 FDA650      0.0000 
      5 C5B        34.4520    8.8210   96.5700 C.3       1 FDA650      0.0000 
      6 C4B        33.0200    8.2790   96.5690 C.3       1 FDA650      0.0000 
      7 O4B        33.2310    6.8930   96.1590 O.3       1 FDA650      0.0000 
      8 C3B        32.2820    8.2330   97.9150 C.3       1 FDA650      0.0000 
      9 O3B        30.8590    8.4160   97.6710 O.3       1 FDA650      0.0000 
     10 C2B        32.5380    6.7940   98.3820 C.3       1 FDA650      0.0000 
     11 O2B        31.4490    6.3850   99.2440 O.3       1 FDA650      0.0000 
     12 C1B        32.4700    6.0430   97.0370 C.3       1 FDA650      0.0000 
     13 N9A        33.0950    4.6850   97.0470 N.pl3     1 FDA650      0.0000 
     14 C8A        34.4050    4.4040   97.0560 C.2       1 FDA650      0.0000 
     15 N7A        34.5960    3.0790   97.1010 N.2       1 FDA650      0.0000 
     16 C5A        33.3970    2.5200   97.1090 C.ar      1 FDA650      0.0000 
     17 C6A        32.9750    1.1960   97.1320 C.ar      1 FDA650      0.0000 
     18 N6A        33.8790    0.1860   97.1600 N.pl3     1 FDA650      0.0000 
     19 N1A        31.6430    0.9590   97.1210 N.ar      1 FDA650      0.0000 
     20 C2A        30.7500    1.9540   97.1070 C.ar      1 FDA650      0.0000 
     21 N3A        31.1270    3.2210   97.0790 N.ar      1 FDA650      0.0000 
     22 C4A        32.4400    3.5270   97.0660 C.ar      1 FDA650      0.0000 
     23 N1         39.4900   20.2810   92.5620 N.am      1 FDA650      0.0000 
     24 C2         39.2530   21.5700   92.0700 C.2       1 FDA650      0.0000 
     25 O2         38.7970   21.7270   90.9300 O.2       1 FDA650      0.0000 
     26 N3         39.5510   22.6750   92.9040 N.am      1 FDA650      0.0000 
     27 C4         40.0770   22.4920   94.2120 C.2       1 FDA650      0.0000 
     28 O4         40.3200   23.4990   94.8970 O.2       1 FDA650      0.0000 
     29 C4X        40.3040   21.1750   94.6770 C.2       1 FDA650      0.0000 
     30 N5         40.8450   20.9200   95.9670 N.pl3     1 FDA650      0.0000 
     31 C5X        41.4180   19.6650   96.2550 C.ar      1 FDA650      0.0000 
     32 C6         42.2830   19.5030   97.3360 C.ar      1 FDA650      0.0000 
     33 C7         42.8380   18.2420   97.5930 C.ar      1 FDA650      0.0000 
     34 C7M        43.7850   18.0960   98.7830 C.3       1 FDA650      0.0000 
     35 C8         42.5100   17.1410   96.7780 C.ar      1 FDA650      0.0000 
     36 C8M        43.0570   15.7420   97.0110 C.3       1 FDA650      0.0000 
     37 C9         41.6450   17.3080   95.7100 C.ar      1 FDA650      0.0000 
     38 C9A        41.0970   18.5570   95.4400 C.ar      1 FDA650      0.0000 
     39 N10        40.2380   18.7330   94.3160 N.pl3     1 FDA650      0.0000 
     40 C10        39.9960   20.0720   93.8540 C.2       1 FDA650      0.0000 
     41 C1'        39.6830   17.5590   93.6010 C.3       1 FDA650      0.0000 
     42 C2'        38.3000   17.2720   94.1530 C.3       1 FDA650      0.0000 
     43 O2'        38.3790   17.1960   95.5880 O.3       1 FDA650      0.0000 
     44 C3'        37.6990   15.9830   93.5830 C.3       1 FDA650      0.0000 
     45 O3'        37.8860   16.0050   92.1790 O.3       1 FDA650      0.0000 
     46 C4'        36.2070   15.8630   93.9110 C.3       1 FDA650      0.0000 
     47 O4'        35.7800   16.8700   94.8590 O.3       1 FDA650      0.0000 
     48 C5'        35.9190   14.5190   94.5220 C.3       1 FDA650      0.0000 
     49 O5'        36.0780   13.5260   93.5280 O.3       1 FDA650      0.0000 
     50 P          35.5820   12.0040   93.8190 P.3       1 FDA650      0.0000 
     51 O1P        36.5720   11.2240   92.8030 O.co2     1 FDA650      0.0000 
     52 O2P        34.1000   11.9300   93.8710 O.co2     1 FDA650      0.0000 
     53 O3P        36.3840   11.4000   95.0770 O.3       1 FDA650      0.0000 
     54 H          34.9970    8.3186   97.3877 H         1 FDA650      0.0000 
     55 H          34.9285    8.5030   95.6266 H         1 FDA650      0.0000 
     56 H          32.4476    8.7755   95.8351 H         1 FDA650      0.0000 
     57 H          32.7019    8.8999   98.5694 H         1 FDA650      0.0000 
     58 H          33.4773    6.7198   98.7775 H         1 FDA650      0.0000 
     59 H          31.4571    6.0070   96.7225 H         1 FDA650      0.0000 
     60 H          35.1222    5.0737   97.0329 H         1 FDA650      0.0000 
     61 H          34.8411    0.4573   97.1863 H         1 FDA650      0.0000 
     62 H          33.5037   -0.7409   97.1519 H         1 FDA650      0.0000 
     63 H          29.7185    1.7151   97.1187 H         1 FDA650      0.0000 
     64 H          39.2880   19.4633   91.9607 H         1 FDA650      0.0000 
     65 H          39.3846   23.6290   92.5591 H         1 FDA650      0.0000 
     66 H          40.8158   21.6487   96.6799 H         1 FDA650      0.0000 
     67 H          42.5130   20.2960   97.9389 H         1 FDA650      0.0000 
     68 H          41.4044   16.5040   95.1104 H         1 FDA650      0.0000 
     69 H          40.3131   16.6892   93.7551 H         1 FDA650      0.0000 
     70 H          39.6043   17.7652   92.5386 H         1 FDA650      0.0000 
     71 H          37.6468   18.0995   93.8646 H         1 FDA650      0.0000 
     72 H          38.2164   15.1491   94.0316 H         1 FDA650      0.0000 
     73 H          35.6457   15.9444   92.9929 H         1 FDA650      0.0000 
     74 H          34.8989   14.5363   94.9221 H         1 FDA650      0.0000 
     75 H          36.6074   14.3700   95.3616 H         1 FDA650      0.0000 
     76 H          44.1241   17.1598   98.8751 H         1 FDA650      0.0000 
     77 H          44.5847   18.6902   98.6963 H         1 FDA650      0.0000 
     78 H          43.3369   18.3316   99.6454 H         1 FDA650      0.0000 
     79 H          44.0553   15.7199   96.9575 H         1 FDA650      0.0000 
     80 H          42.8039   15.3895   97.9119 H         1 FDA650      0.0000 
     81 H          42.7127   15.0912   96.3343 H         1 FDA650      0.0000 
     82 H          30.4098    7.7099   98.2185 H         1 FDA650      0.0000 
     83 H          31.7691    6.5737  100.1724 H         1 FDA650      0.0000 
     84 H          38.8848   16.3539   95.7750 H         1 FDA650      0.0000 
     85 H          38.8428   16.2655   92.0495 H         1 FDA650      0.0000 
     86 H          36.6243   17.2101   95.2730 H         1 FDA650      0.0000 
@<TRIPOS>BOND
     1    2    1 ar   
     2    3    1 ar   
     3    4    1 1    
     4   53    1 1    
     5    5    4 1    
     6    6    5 1    
     7   54    5 1    
     8   55    5 1    
     9    7    6 1    
    10    8    6 1    
    11   56    6 1    
    12   12    7 1    
    13    9    8 1    
    14   10    8 1    
    15   57    8 1    
    16   82    9 1    
    17   11   10 1    
    18   12   10 1    
    19   58   10 1    
    20   83   11 1    
    21   13   12 1    
    22   59   12 1    
    23   14   13 1    
    24   22   13 1    
    25   15   14 2    
    26   60   14 1    
    27   16   15 1    
    28   17   16 ar   
    29   22   16 ar   
    30   18   17 1    
    31   19   17 ar   
    32   61   18 1    
    33   62   18 1    
    34   20   19 ar   
    35   21   20 ar   
    36   63   20 1    
    37   22   21 ar   
    38   24   23 am   
    39   40   23 1    
    40   64   23 1    
    41   25   24 2    
    42   26   24 am   
    43   27   26 am   
    44   65   26 1    
    45   28   27 2    
    46   29   27 1    
    47   30   29 1    
    48   40   29 2    
    49   31   30 1    
    50   66   30 1    
    51   32   31 ar   
    52   38   31 ar   
    53   33   32 ar   
    54   67   32 1    
    55   34   33 1    
    56   35   33 ar   
    57   76   34 1    
    58   77   34 1    
    59   78   34 1    
    60   36   35 1    
    61   37   35 ar   
    62   79   36 1    
    63   80   36 1    
    64   81   36 1    
    65   38   37 ar   
    66   68   37 1    
    67   39   38 1    
    68   40   39 1    
    69   41   39 1    
    70   42   41 1    
    71   69   41 1    
    72   70   41 1    
    73   43   42 1    
    74   44   42 1    
    75   71   42 1    
    76   84   43 1    
    77   45   44 1    
    78   46   44 1    
    79   72   44 1    
    80   85   45 1    
    81   47   46 1    
    82   48   46 1    
    83   73   46 1    
    84   86   47 1    
    85   49   48 1    
    86   74   48 1    
    87   75   48 1    
    88   50   49 1    
    89   51   50 ar   
    90   52   50 ar   
    91   53   50 1    
@<TRIPOS>SUBSTRUCTURE
     1 FDA650      1 GROUP   
@<TRIPOS>SET

