#    Name: 3guz_PAF_2_INTS_M
#    Modification time : Tue Mar 25 13:00:18 2014

@<TRIPOS>MOLECULE
3guz_PAF_2_INTS_M
   21     0     9     0     0
SMALL
NO_CHARGES


@<TRIPOS>ATOM
      1 NZ          0.6540  -12.2175    6.2200 N.4       2 LYC4        0.0000 
      2 NZ          1.8370  -11.4070    5.7770 N.4       8 LYL4        0.0000 
      3 NZ         -0.5290  -13.0280    6.6630 N.4       5 LYP4        0.0000 
      4 N           0.6540  -12.2175    6.2200 N.am      1 SEC2        0.0000 
      5 N           1.8370  -11.4070    5.7770 N.am      7 SEL2        0.0000 
      6 N          -0.5290  -13.0280    6.6630 N.am      4 SEP2        0.0000 
      7 CA          2.9105   -9.6425    4.2005 C.3       3 GLC5        0.0000 
      8 CA          3.9270  -11.3820    4.7000 C.3       9 GLL5        0.0000 
      9 CA          1.8940   -7.9030    3.7010 C.3       6 GLP5        0.0000 
     10 CA          4.3740  -15.6535    5.5105 C.3       3 GLC5        0.0000 
     11 CA          3.4410  -13.8730    4.7350 C.3       9 GLL5        0.0000 
     12 CA          5.3070  -17.4340    6.2860 C.3       6 GLP5        0.0000 
     13 CA          1.7205  -14.4120    5.0065 C.3       3 GLC5        0.0000 
     14 CA          0.0000  -14.9510    5.2780 C.3       6 GLP5        0.0000 
     15 CA          3.2650  -15.4755    3.4290 C.3       3 GLC5        0.0000 
     16 CA          3.0890  -17.0780    2.1230 C.3       6 GLP5        0.0000 
     17 CA          4.9810  -14.7805    2.6295 C.3       3 GLC5        0.0000 
     18 CA          5.4400  -12.9620    3.4830 C.3       9 GLL5        0.0000 
     19 CA          4.5220  -16.5990    1.7760 C.3       6 GLP5        0.0000 
     20 CA          6.5585  -14.3561    4.6493 C.3       3 GLC5        0.0000 
     21 CA          7.9000  -15.7940    4.8710 C.3       6 GLP5        0.0000 
@<TRIPOS>BOND
@<TRIPOS>SUBSTRUCTURE
     1 SEC2        4 GROUP        1 X    SEC  0     ROOT SEC X 2
     2 LYC4        1 GROUP        1 X    LYC  0     **** LYC X 4
     3 GLC5        7 GROUP        1 X    GLC  0     **** GLC X 6
     4 SEP2        6 GROUP        1 Y    SEP  0     ROOT SEP Y 9
     5 LYP4        3 GROUP        1 Y    LYP  0     **** LYP Y 11
     6 GLP5        9 GROUP        1 Y    GLP  0     **** GLP Y 13
     7 SEL2        5 GROUP        1 Z    SEL  0     ROOT SEL Z 16
     8 LYL4        2 GROUP        1 Z    LYL  0     **** LYL Z 18
     9 GLL5        8 GROUP        1 Z    GLL  0     **** GLL Z 20
@<TRIPOS>SET

