#    Name: 3guz_PAF_2_ligand
#    Modification time : Tue Mar 25 13:00:18 2014

@<TRIPOS>MOLECULE
3guz_PAF_2_ligand
   21    20     1     0     0
SMALL
NO_CHARGES


@<TRIPOS>ATOM
      1 O1          3.5580  -10.7960    6.9960 O.co2     1 PAF178      0.0000 
      2 C1          3.0390  -11.1740    5.9340 C.2       1 PAF178      0.0000 
      3 O2          1.8370  -11.4070    5.7770 O.co2     1 PAF178      0.0000 
      4 C2          3.9270  -11.3820    4.7000 C.3       1 PAF178      0.0000 
      5 O3          3.0300  -11.3280    3.5780 O.3       1 PAF178      0.0000 
      6 C3          4.5660  -12.7980    4.7500 C.3       1 PAF178      0.0000 
      7 C4          5.4220  -12.9510    5.9940 C.3       1 PAF178      0.0000 
      8 C5          3.4410  -13.8730    4.7350 C.3       1 PAF178      0.0000 
      9 C6          5.4400  -12.9620    3.4830 C.3       1 PAF178      0.0000 
     10 O4          6.3550  -11.8550    3.3470 O.3       1 PAF178      0.0000 
     11 H           4.6663  -10.6536    4.6658 H         1 PAF178      0.0000 
     12 H           4.7624  -13.0342    2.6240 H         1 PAF178      0.0000 
     13 H           5.9713  -13.9169    3.5723 H         1 PAF178      0.0000 
     14 H           5.8433  -13.8564    6.0458 H         1 PAF178      0.0000 
     15 H           6.1637  -12.2807    6.0192 H         1 PAF178      0.0000 
     16 H           4.8874  -12.8282    6.8301 H         1 PAF178      0.0000 
     17 H           3.8132  -14.8006    4.7677 H         1 PAF178      0.0000 
     18 H           2.8248  -13.7767    5.5167 H         1 PAF178      0.0000 
     19 H           2.8795  -13.8114    3.9098 H         1 PAF178      0.0000 
     20 H           2.1166  -11.2627    3.9799 H         1 PAF178      0.0000 
     21 H           6.8382  -12.0229    2.4878 H         1 PAF178      0.0000 
@<TRIPOS>BOND
     1    2    1 ar   
     2    3    2 ar   
     3    4    2 1    
     4    5    4 1    
     5    6    4 1    
     6   11    4 1    
     7   20    5 1    
     8    7    6 1    
     9    8    6 1    
    10    9    6 1    
    11   14    7 1    
    12   15    7 1    
    13   16    7 1    
    14   17    8 1    
    15   18    8 1    
    16   19    8 1    
    17   10    9 1    
    18   12    9 1    
    19   13    9 1    
    20   21   10 1    
@<TRIPOS>SUBSTRUCTURE
     1 PAF178      1 GROUP   
@<TRIPOS>SET

