#    Name: 3vnh_FUU_1_INTS_M
#    Modification time : Tue Mar 25 01:11:18 2014

@<TRIPOS>MOLECULE
3vnh_FUU_1_INTS_M
   43     0     9     0     0
SMALL
NO_CHARGES


@<TRIPOS>ATOM
      1 CA        -13.4745  -28.9695   10.1440 C.3       3 GLC5        0.0000 
      2 CA        -14.6080  -27.0400   10.0080 C.3       9 GLL5        0.0000 
      3 CA        -12.3410  -30.8990   10.2800 C.3       6 GLP5        0.0000 
      4 N         -10.8465  -27.8370    8.1805 N.am      1 SEC2        0.0000 
      5 N         -11.7670  -28.4330    7.1100 N.am      7 SEL2        0.0000 
      6 N          -9.9260  -27.2410    9.2510 N.am      4 SEP2        0.0000 
      7 N         -10.1450  -27.0535    5.8245 N.am      1 SEC2        0.0000 
      8 N         -11.1510  -28.4520    6.0420 N.am      7 SEL2        0.0000 
      9 N          -9.1390  -25.6550    5.6070 N.am      4 SEP2        0.0000 
     10 CA         -5.4985  -22.9705   -0.3720 C.3       3 GLC5        0.0000 
     11 CA         -6.4480  -22.4290    1.2890 C.3       9 GLL5        0.0000 
     12 CA         -4.5490  -23.5120   -2.0330 C.3       6 GLP5        0.0000 
     13 NZ         -5.5605  -19.3320    3.2880 N.4       2 LYC4        0.0000 
     14 NZ         -5.4060  -20.3840    1.9360 N.4       8 LYL4        0.0000 
     15 NZ         -4.9710  -17.2390    4.2480 N.4       5 LYP4        0.0000 
     16 N          -4.8715  -18.8325    2.4975 N.am      1 SEC2        0.0000 
     17 N          -5.4060  -20.3840    1.9360 N.am      7 SEL2        0.0000 
     18 N          -4.3370  -17.2810    3.0590 N.am      4 SEP2        0.0000 
     19 N          -5.5605  -19.3320    3.2880 N.am      1 SEC2        0.0000 
     20 N          -5.7150  -18.2800    4.6400 N.am      4 SEP2        0.0000 
     21 N          -4.1490  -20.6150    1.4495 N.am      1 SEC2        0.0000 
     22 N          -2.8920  -20.8460    0.9630 N.am      4 SEP2        0.0000 
     23 CA         -8.7505  -26.7572    0.0133 C.3       3 GLC5        0.0000 
     24 CA         -8.6900  -28.0280    1.5310 C.3       9 GLL5        0.0000 
     25 CA         -9.3440  -26.0280   -1.4160 C.3       6 GLP5        0.0000 
     26 CA         -8.3768  -25.5892    0.1363 C.3       3 GLC5        0.0000 
     27 CA         -6.9270  -24.6550    1.6130 C.3       9 GLL5        0.0000 
     28 CA         -6.9625  -29.1746    1.8831 C.3       3 GLC5        0.0000 
     29 CA         -7.6240  -26.9450    1.3540 C.3       9 GLL5        0.0000 
     30 CA         -6.6510  -30.9770    2.6510 C.3       6 GLP5        0.0000 
     31 CA         -7.6270  -26.3953   -0.3525 C.3       3 GLC5        0.0000 
     32 CA         -6.3910  -27.2580    0.7880 C.3       9 GLL5        0.0000 
     33 CA         -8.3860  -28.7181    0.2191 C.3       3 GLC5        0.0000 
     34 CA         -9.4980  -30.0640   -0.6770 C.3       6 GLP5        0.0000 
     35 CA         -5.6076  -26.9836    2.5312 C.3       3 GLC5        0.0000 
     36 CA         -4.9970  -27.2830    4.2100 C.3       6 GLP5        0.0000 
     37 CA         -3.6740  -25.2200    1.0560 C.3       3 GLC5        0.0000 
     38 CA         -5.4290  -26.2670    0.6340 C.3       9 GLL5        0.0000 
     39 CA         -1.7850  -24.8230    1.2720 C.3       6 GLP5        0.0000 
     40 CA         -5.0560  -24.5645   -0.5965 C.3       3 GLC5        0.0000 
     41 CA         -5.6970  -24.9670    1.0460 C.3       9 GLL5        0.0000 
     42 CA         -6.0896  -25.5114    2.9681 C.3       3 GLC5        0.0000 
     43 CA         -5.6260  -25.9640    4.5690 C.3       6 GLP5        0.0000 
@<TRIPOS>BOND
@<TRIPOS>SUBSTRUCTURE
     1 SEC2        4 GROUP        1 X    SEC  0     ROOT SEC X 2
     2 LYC4       13 GROUP        1 X    LYC  0     **** LYC X 4
     3 GLC5        1 GROUP        1 X    GLC  0     **** GLC X 6
     4 SEP2        6 GROUP        1 Y    SEP  0     ROOT SEP Y 9
     5 LYP4       15 GROUP        1 Y    LYP  0     **** LYP Y 11
     6 GLP5        3 GROUP        1 Y    GLP  0     **** GLP Y 13
     7 SEL2        5 GROUP        1 Z    SEL  0     ROOT SEL Z 16
     8 LYL4       14 GROUP        1 Z    LYL  0     **** LYL Z 18
     9 GLL5        2 GROUP        1 Z    GLL  0     **** GLL Z 20
@<TRIPOS>SET

