#    Name: 3vnh_FUU_1_ligand
#    Modification time : Tue Mar 25 01:11:18 2014

@<TRIPOS>MOLECULE
3vnh_FUU_1_ligand
   39    41     1     0     0
SMALL
NO_CHARGES


@<TRIPOS>ATOM
      1 CAI       -14.5670  -26.1980    8.0090 C.2       1 FUU301      0.0000 
      2 CAD       -15.1610  -26.1390    9.2000 C.2       1 FUU301      0.0000 
      3 CAF       -14.6080  -27.0400   10.0080 C.2       1 FUU301      0.0000 
      4 OAR       -13.6300  -27.6950    9.3070 O.3       1 FUU301      0.0000 
      5 CAY       -13.6300  -27.1400    8.0590 C.2       1 FUU301      0.0000 
      6 CAZ       -12.7450  -27.5300    7.0600 C.2       1 FUU301      0.0000 
      7 OAS       -12.7360  -26.9400    5.8300 O.3       1 FUU301      0.0000 
      8 NAN       -11.7670  -28.4330    7.1100 N.2       1 FUU301      0.0000 
      9 NAM       -11.1510  -28.4520    6.0420 N.2       1 FUU301      0.0000 
     10 CAX       -11.6870  -27.5580    5.2170 C.2       1 FUU301      0.0000 
     11 NAP       -11.2360  -27.2410    4.0060 N.am      1 FUU301      0.0000 
     12 CAU       -10.1970  -27.8670    3.4590 C.2       1 FUU301      0.0000 
     13 OAB        -9.6190  -28.7940    4.0230 O.2       1 FUU301      0.0000 
     14 NAO        -9.8300  -27.4460    2.2520 N.am      1 FUU301      0.0000 
     15 CAK        -8.6900  -28.0280    1.5310 C.3       1 FUU301      0.0000 
     16 CAV        -7.6240  -26.9450    1.3540 C.ar      1 FUU301      0.0000 
     17 CAJ        -7.8920  -25.6460    1.7640 C.ar      1 FUU301      0.0000 
     18 CAG        -6.3910  -27.2580    0.7880 C.ar      1 FUU301      0.0000 
     19 CAE        -5.4290  -26.2670    0.6340 C.ar      1 FUU301      0.0000 
     20 CAH        -5.6970  -24.9670    1.0460 C.ar      1 FUU301      0.0000 
     21 CAW        -6.9270  -24.6550    1.6130 C.ar      1 FUU301      0.0000 
     22 OAQ        -7.1890  -23.3930    2.0500 O.3       1 FUU301      0.0000 
     23 CAL        -6.4480  -22.4290    1.2890 C.3       1 FUU301      0.0000 
     24 CAT        -5.6400  -21.5650    2.2610 C.2       1 FUU301      0.0000 
     25 OAC        -5.4060  -20.3840    1.9360 O.co2     1 FUU301      0.0000 
     26 OAA        -5.2560  -22.0930    3.3290 O.co2     1 FUU301      0.0000 
     27 H         -14.7823  -25.6473    7.2383 H         1 FUU301      0.0000 
     28 H         -15.8869  -25.5308    9.4408 H         1 FUU301      0.0000 
     29 H         -14.8379  -27.2180   10.9262 H         1 FUU301      0.0000 
     30 H         -11.7175  -26.4687    3.4621 H         1 FUU301      0.0000 
     31 H         -10.3306  -26.6801    1.7508 H         1 FUU301      0.0000 
     32 H          -8.9904  -28.3792    0.5487 H         1 FUU301      0.0000 
     33 H          -8.2556  -28.8504    2.0908 H         1 FUU301      0.0000 
     34 H          -8.8040  -25.4145    2.1798 H         1 FUU301      0.0000 
     35 H          -6.1940  -28.2195    0.4853 H         1 FUU301      0.0000 
     36 H          -4.5177  -26.4958    0.2147 H         1 FUU301      0.0000 
     37 H          -4.9835  -24.2341    0.9311 H         1 FUU301      0.0000 
     38 H          -7.1040  -21.7703    0.7211 H         1 FUU301      0.0000 
     39 H          -5.7484  -22.9054    0.6032 H         1 FUU301      0.0000 
@<TRIPOS>BOND
     1    2    1 1    
     2    5    1 2    
     3   27    1 1    
     4    3    2 2    
     5   28    2 1    
     6    4    3 1    
     7   29    3 1    
     8    5    4 1    
     9    6    5 1    
    10    7    6 1    
    11    8    6 2    
    12   10    7 1    
    13    9    8 1    
    14   10    9 2    
    15   11   10 1    
    16   12   11 am   
    17   30   11 1    
    18   13   12 2    
    19   14   12 am   
    20   15   14 1    
    21   31   14 1    
    22   16   15 1    
    23   32   15 1    
    24   33   15 1    
    25   17   16 ar   
    26   18   16 ar   
    27   21   17 ar   
    28   34   17 1    
    29   19   18 ar   
    30   35   18 1    
    31   20   19 ar   
    32   36   19 1    
    33   21   20 ar   
    34   37   20 1    
    35   22   21 1    
    36   23   22 1    
    37   24   23 1    
    38   38   23 1    
    39   39   23 1    
    40   25   24 ar   
    41   26   24 ar   
@<TRIPOS>SUBSTRUCTURE
     1 FUU301      1 GROUP   
@<TRIPOS>SET

