#    Name: 3hvk_719_1_INTS_M
#    Modification time : Tue Mar 25 15:12:40 2014

@<TRIPOS>MOLECULE
3hvk_719_1_INTS_M
  121     0    12     0     0
SMALL
NO_CHARGES


@<TRIPOS>ATOM
      1 CA         -3.2810   22.3770   12.5970 C.3       4 GLC5        0.0000 
      2 CA         -4.7620   21.8080   13.8170 C.3      12 GLL5        0.0000 
      3 CA         -1.8000   22.9460   11.3770 C.3       8 GLP5        0.0000 
      4 CA         -4.3865   21.0225   11.7715 C.3       4 GLC5        0.0000 
      5 CA         -4.0110   20.2370    9.7260 C.3       8 GLP5        0.0000 
      6 CA         -3.9935   22.7675   11.6340 C.3       4 GLC5        0.0000 
      7 CA         -6.1870   22.5890   11.8910 C.3      12 GLL5        0.0000 
      8 CA         -7.5120   23.2355   13.0000 C.3       4 GLC5        0.0000 
      9 CA         -8.8370   23.8820   14.1090 C.3       8 GLP5        0.0000 
     10 CA         -0.2025   12.0065   13.2850 C.3       4 GLC5        0.0000 
     11 CA         -0.4730   13.9040   14.3510 C.3      12 GLL5        0.0000 
     12 CA          0.0680   10.1090   12.2190 C.3       8 GLP5        0.0000 
     13 CA         -2.0975   20.9215   17.2490 C.3       4 GLC5        0.0000 
     14 CA         -3.7400   20.8630   15.7380 C.3      12 GLL5        0.0000 
     15 CA         -0.4550   20.9800   18.7600 C.3       8 GLP5        0.0000 
     16 CA         -3.7390   21.8600   17.5225 C.3       4 GLC5        0.0000 
     17 CA         -3.7380   22.8570   19.3070 C.3       8 GLP5        0.0000 
     18 CA         -0.8345   11.2340   13.9660 C.3       4 GLC5        0.0000 
     19 CA         -0.4610   12.7300   15.0470 C.3      12 GLL5        0.0000 
     20 CA         -1.2080    9.7380   12.8850 C.3       8 GLP5        0.0000 
     21 CA         -2.4660   21.6075   12.9310 C.3       4 GLC5        0.0000 
     22 CA         -3.1320   20.2690   14.4850 C.3      12 GLL5        0.0000 
     23 N          -6.1845   24.9590   12.7880 N.am      2 SEC2        0.0000 
     24 N          -5.7790   23.8410   11.7910 N.am     10 SEL2        0.0000 
     25 N          -6.5900   26.0770   13.7850 N.am      6 SEP2        0.0000 
     26 CA          3.4990   11.2140   14.7640 C.3       4 GLC5        0.0000 
     27 CA          1.9380   12.5040   14.8410 C.3      12 GLL5        0.0000 
     28 CA          5.0600    9.9240   14.6870 C.3       8 GLP5        0.0000 
     29 CA         -8.7420   24.5400    9.9565 C.3       4 GLC5        0.0000 
     30 CA         -7.5590   22.7350   10.0010 C.3      12 GLL5        0.0000 
     31 CA         -9.9250   26.3450    9.9120 C.3       8 GLP5        0.0000 
     32 CA         -7.3915   23.7305    8.1220 C.3       4 GLC5        0.0000 
     33 CA         -7.2240   24.7260    6.2430 C.3       8 GLP5        0.0000 
     34 CA         -6.5340   21.7075    8.8275 C.3       4 GLC5        0.0000 
     35 CA         -5.5090   20.6800    7.6540 C.3       8 GLP5        0.0000 
     36 N          -7.8835   24.8875    8.9115 N.am      2 SEC2        0.0000 
     37 N          -7.1620   23.9880    9.8710 N.am     10 SEL2        0.0000 
     38 N          -8.6050   25.7870    7.9520 N.am      6 SEP2        0.0000 
     39 CA         -5.2105   26.1360    9.7670 C.3       4 GLC5        0.0000 
     40 CA         -6.2880   24.5100   10.7730 C.3      12 GLL5        0.0000 
     41 CA         -4.1330   27.7620    8.7610 C.3       8 GLP5        0.0000 
     42 CA         -5.3200   25.6775   12.0305 C.3       4 GLC5        0.0000 
     43 CA         -4.3520   26.8450   13.2880 C.3       8 GLP5        0.0000 
     44 CA         -7.5880   24.8670   12.1130 C.3       4 GLC5        0.0000 
     45 CA         -8.8880   25.2240   13.4530 C.3       8 GLP5        0.0000 
     46 CA         -8.1065   25.4275   10.3425 C.3       4 GLC5        0.0000 
     47 O          -5.3190   23.3710   15.9445 O.2       1 ALC1        0.0000 
     48 O          -5.8510   22.1920   15.9300 O.2       9 ALL1        0.0000 
     49 O          -4.7870   24.5500   15.9590 O.2       5 ALP1        0.0000 
     50 CA          0.8005    9.8990   13.9790 C.3       4 GLC5        0.0000 
     51 CA          1.5330    9.6890   15.7390 C.3      12 GLL5        0.0000 
     52 CA          3.2965    9.8065   15.2130 C.3       4 GLC5        0.0000 
     53 O          -2.8875   23.1410   15.5705 O.2       1 ALC1        0.0000 
     54 O          -2.9660   21.9620   16.1770 O.2       9 ALL1        0.0000 
     55 O          -2.8090   24.3200   14.9640 O.2       5 ALP1        0.0000 
     56 Zn          1.7955   15.5855   12.6175 Zn        3 ZIC7        0.0000 
     57 Zn          0.8430   15.4950   13.0890 Zn       11 ZIL7        0.0000 
     58 Zn          2.7480   15.6760   12.1460 Zn        7 ZIP7        0.0000 
     59 N           0.0755   15.4040   11.8580 N.am      2 SEC2        0.0000 
     60 N           0.8430   15.4950   13.0890 N.am     10 SEL2        0.0000 
     61 N          -0.6920   15.3130   10.6270 N.am      6 SEP2        0.0000 
     62 Zn          2.9050   14.9580   12.8890 Zn        3 ZIC7        0.0000 
     63 Zn          3.0620   14.2400   13.6320 Zn       11 ZIL7        0.0000 
     64 N           3.1420   13.2895   12.5960 N.am      2 SEC2        0.0000 
     65 N           3.0620   14.2400   13.6320 N.am     10 SEL2        0.0000 
     66 N           3.2220   12.3390   11.5600 N.am      6 SEP2        0.0000 
     67 O           3.8315   14.1775   14.6160 O.2       1 ALC1        0.0000 
     68 O           3.0620   14.2400   13.6320 O.2       9 ALL1        0.0000 
     69 O           4.6010   14.1150   15.6000 O.2       5 ALP1        0.0000 
     70 CA          3.3860    8.2420   16.3645 C.3       4 GLC5        0.0000 
     71 CA          1.5060    8.5270   16.4960 C.3      12 GLL5        0.0000 
     72 CA          5.2660    7.9570   16.2330 C.3       8 GLP5        0.0000 
     73 CA         -1.9700   16.4480   15.3530 C.3       4 GLC5        0.0000 
     74 CA         -3.0820   16.5250   13.6010 C.3      12 GLL5        0.0000 
     75 CA         -0.8580   16.3710   17.1050 C.3       8 GLP5        0.0000 
     76 CA         -2.2180   15.2490   12.1855 C.3       4 GLC5        0.0000 
     77 CA         -1.3540   13.9730   10.7700 C.3       8 GLP5        0.0000 
     78 O          -8.2145   22.9215    7.7870 O.2       1 ALC1        0.0000 
     79 O          -8.4850   22.3070    9.0560 O.2       9 ALL1        0.0000 
     80 O          -7.9440   23.5360    6.5180 O.2       5 ALP1        0.0000 
     81 O          -9.8635   22.7090    8.2415 O.2       1 ALC1        0.0000 
     82 O         -11.2420   23.1110    7.4270 O.2       5 ALP1        0.0000 
     83 CA         -7.3300   20.8415    8.3700 C.3       4 GLC5        0.0000 
     84 CA         -9.1510   21.0030    9.0860 C.3      12 GLL5        0.0000 
     85 CA         -9.9455   21.7650   11.7385 C.3       4 GLC5        0.0000 
     86 CA        -10.1970   20.9310   10.1770 C.3      12 GLL5        0.0000 
     87 CA         -9.6940   22.5990   13.3000 C.3       8 GLP5        0.0000 
     88 N         -12.3725   22.2710    9.0165 N.am      2 SEC2        0.0000 
     89 N         -11.3510   21.6530    9.8050 N.am     10 SEL2        0.0000 
     90 N         -13.3940   22.8890    8.2280 N.am      6 SEP2        0.0000 
     91 O         -11.2965   22.3820    8.6160 O.2       1 ALC1        0.0000 
     92 O         -11.3510   21.6530    9.8050 O.2       9 ALL1        0.0000 
     93 CA         -5.3163   21.2530   10.5968 C.3       4 GLC5        0.0000 
     94 CA         -7.0560   21.9490   11.0440 C.3      12 GLL5        0.0000 
     95 CA         -8.5008   22.4705   11.9113 C.3       4 GLC5        0.0000 
     96 CA         -0.6625   14.8440   15.9020 C.3       4 GLC5        0.0000 
     97 CA         -0.6073   14.0748   12.4290 C.3       4 GLC5        0.0000 
     98 CA         -2.6085   19.1530   16.4052 C.3       4 GLC5        0.0000 
     99 CA         -1.7810   17.7400   17.6990 C.3       8 GLP5        0.0000 
    100 CA          1.5433   14.8323   15.7390 C.3       4 GLC5        0.0000 
    101 CA          0.7520   14.4490   13.8250 C.3      12 GLL5        0.0000 
    102 CA          1.7220   15.5750   17.5160 C.3       8 GLP5        0.0000 
    103 CA         -3.2530   19.3065   12.3440 C.3       4 GLC5        0.0000 
    104 CA         -3.5080   18.8290   14.3730 C.3      12 GLL5        0.0000 
    105 CA         -3.1860   19.0640   10.2590 C.3       8 GLP5        0.0000 
    106 CA          1.5305   13.9150   16.2935 C.3       4 GLC5        0.0000 
    107 CA          0.7400   12.0060   15.3010 C.3      12 GLL5        0.0000 
    108 CA          0.7035   11.1820   13.6450 C.3       4 GLC5        0.0000 
    109 CA         -0.4880   10.2225   14.7398 C.3       4 GLC5        0.0000 
    110 CA          0.6970   10.7710   16.0690 C.3      12 GLL5        0.0000 
    111 CA         -2.4577   18.0670   15.8800 C.3       4 GLC5        0.0000 
    112 CA         -2.7610   17.9590   13.7490 C.3      12 GLL5        0.0000 
    113 CA         -3.0537   18.1530   11.9670 C.3       4 GLC5        0.0000 
    114 CA          1.8587    7.9300   14.7203 C.3       4 GLC5        0.0000 
    115 CA          2.1980    6.7520   13.3230 C.3       8 GLP5        0.0000 
    116 CA         -5.0006   17.2167   13.5640 C.3       4 GLC5        0.0000 
    117 CA         -6.8930   16.9740   13.2970 C.3       8 GLP5        0.0000 
    118 CA         -9.8440   19.6465   10.8558 C.3       4 GLC5        0.0000 
    119 CA        -10.0140   18.3260   12.0800 C.3       8 GLP5        0.0000 
    120 CA         -9.5060   19.3190    8.5667 C.3       4 GLC5        0.0000 
    121 CA         -9.3380   17.6710    7.5020 C.3       8 GLP5        0.0000 
@<TRIPOS>BOND
@<TRIPOS>SUBSTRUCTURE
     1 ALC1       47 GROUP        1 X    ALC  0     ROOT ALC X 1
     2 SEC2       23 GROUP        1 X    SEC  0     **** SEC X 2
     3 ZIC7       56 GROUP        1 X    ZIC  0     **** ZIC X 5
     4 GLC5        1 GROUP        1 X    GLC  0     **** GLC X 6
     5 ALP1       49 GROUP        1 Y    ALP  0     ROOT ALP Y 8
     6 SEP2       25 GROUP        1 Y    SEP  0     **** SEP Y 9
     7 ZIP7       58 GROUP        1 Y    ZIP  0     **** ZIP Y 12
     8 GLP5        3 GROUP        1 Y    GLP  0     **** GLP Y 13
     9 ALL1       48 GROUP        1 Z    ALL  0     ROOT ALL Z 15
    10 SEL2       24 GROUP        1 Z    SEL  0     **** SEL Z 16
    11 ZIL7       57 GROUP        1 Z    ZIL  0     **** ZIL Z 19
    12 GLL5        2 GROUP        1 Z    GLL  0     **** GLL Z 20
@<TRIPOS>SET

