#    Name: 3hvk_719_1_ligand
#    Modification time : Tue Mar 25 15:12:40 2014

@<TRIPOS>MOLECULE
3hvk_719_1_ligand
   67    71     1     0     0
SMALL
NO_CHARGES


@<TRIPOS>ATOM
      1 N1         -5.7990   21.6500   12.8170 N.pl3     1 719267      0.0000 
      2 C2         -4.7620   21.8080   13.8170 C.3       1 719267      0.0000 
      3 C3         -6.1870   22.5890   11.8910 C.ar      1 719267      0.0000 
      4 C4         -7.0560   21.9490   11.0440 C.ar      1 719267      0.0000 
      5 N5         -7.2440   20.6490   11.4360 N.2       1 719267      0.0000 
      6 C6         -5.1190   21.2230   15.1750 C.3       1 719267      0.0000 
      7 C7         -0.4730   13.9040   14.3510 C.ar      1 719267      0.0000 
      8 C8         -6.4750   20.4790   12.4790 C.2       1 719267      0.0000 
      9 O9         -3.6530   21.0220   13.3530 O.3       1 719267      0.0000 
     10 C10        -3.7400   20.8630   15.7380 C.3       1 719267      0.0000 
     11 C11         0.7520   14.4490   13.8250 C.ar      1 719267      0.0000 
     12 C12        -0.4610   12.7300   15.0470 C.ar      1 719267      0.0000 
     13 C13        -3.1320   20.2690   14.4850 C.3       1 719267      0.0000 
     14 C14        -1.7510   14.5650   14.1870 C.2       1 719267      0.0000 
     15 N15        -5.7790   23.8410   11.7910 N.ar      1 719267      0.0000 
     16 C16         0.7400   12.0060   15.3010 C.ar      1 719267      0.0000 
     17 C17         1.9770   13.7300   14.0990 C.ar      1 719267      0.0000 
     18 C18         1.9380   12.5040   14.8410 C.ar      1 719267      0.0000 
     19 C19        -7.5590   22.7350   10.0010 C.ar      1 719267      0.0000 
     20 N20        -7.1620   23.9880    9.8710 N.ar      1 719267      0.0000 
     21 C21        -6.2880   24.5100   10.7730 C.ar      1 719267      0.0000 
     22 C22         0.6970   10.7710   16.0690 C.ar      1 719267      0.0000 
     23 C23        -3.5080   18.8290   14.3730 C.2       1 719267      0.0000 
     24 O24        -2.8190   13.9860   14.4690 O.2       1 719267      0.0000 
     25 O25        -5.8510   22.1920   15.9300 O.3       1 719267      0.0000 
     26 N26        -1.8060   15.8040   13.6620 N.am      1 719267      0.0000 
     27 C27        -2.7610   17.9590   13.7490 C.2       1 719267      0.0000 
     28 C28         1.5330    9.6890   15.7390 C.ar      1 719267      0.0000 
     29 C29        -0.2330   10.6430   17.1200 C.ar      1 719267      0.0000 
     30 O30        -2.9660   21.9620   16.1770 O.3       1 719267      0.0000 
     31 O31         0.8430   15.4950   13.0890 O.3       1 719267      0.0000 
     32 O32         3.0620   14.2400   13.6320 O.3       1 719267      0.0000 
     33 C33         0.5820    8.4480   17.4990 C.ar      1 719267      0.0000 
     34 C34         1.5060    8.5270   16.4960 C.ar      1 719267      0.0000 
     35 C35        -0.2680    9.4690   17.8630 C.ar      1 719267      0.0000 
     36 F36         0.6080    7.2940   18.2360 F         1 719267      0.0000 
     37 C37        -3.0820   16.5250   13.6010 C.3       1 719267      0.0000 
     38 N38        -8.4850   22.3070    9.0560 N.pl3     1 719267      0.0000 
     39 C39        -9.1510   21.0030    9.0860 C.3       1 719267      0.0000 
     40 CA        -10.1970   20.9310   10.1770 C.3       1 719267      0.0000 
     41 OB        -11.3510   21.6530    9.8050 O.3       1 719267      0.0000 
     42 H          -4.4687   22.8182   13.9330 H         1 719267      0.0000 
     43 H          -5.6533   20.3186   14.9964 H         1 719267      0.0000 
     44 H          -6.3553   19.6458   12.9950 H         1 719267      0.0000 
     45 H          -3.8626   20.0798   16.4320 H         1 719267      0.0000 
     46 H          -1.3499   12.3269   15.4170 H         1 719267      0.0000 
     47 H          -2.0681   20.3674   14.5442 H         1 719267      0.0000 
     48 H           2.8224   12.0134   15.0172 H         1 719267      0.0000 
     49 H          -6.0027   25.5371   10.6336 H         1 719267      0.0000 
     50 H          -4.4137   18.5877   14.8355 H         1 719267      0.0000 
     51 H          -0.9830   16.2908   13.2897 H         1 719267      0.0000 
     52 H          -1.8407   18.2356   13.2906 H         1 719267      0.0000 
     53 H           2.1643    9.7683   14.9309 H         1 719267      0.0000 
     54 H          -0.8727   11.4121   17.3272 H         1 719267      0.0000 
     55 H           2.1538    7.7683   16.3037 H         1 719267      0.0000 
     56 H          -0.9038    9.3723   18.6504 H         1 719267      0.0000 
     57 H          -3.7334   16.2071   14.4064 H         1 719267      0.0000 
     58 H          -3.5678   16.3515   12.6481 H         1 719267      0.0000 
     59 H          -8.7427   22.9366    8.2595 H         1 719267      0.0000 
     60 H          -8.4159   20.1996    9.2533 H         1 719267      0.0000 
     61 H          -9.6394   20.7984    8.1199 H         1 719267      0.0000 
     62 H          -9.7456   21.3268   11.1023 H         1 719267      0.0000 
     63 H         -10.4199   19.8662   10.3594 H         1 719267      0.0000 
     64 H          -5.6465   23.0682   15.4936 H         1 719267      0.0000 
     65 H          -3.1080   22.6708   15.4861 H         1 719267      0.0000 
     66 H           3.5182   14.6468   14.4234 H         1 719267      0.0000 
     67 H         -11.1130   22.0927    8.9390 H         1 719267      0.0000 
@<TRIPOS>BOND
     1    2    1 1    
     2    3    1 1    
     3    8    1 1    
     4    6    2 1    
     5    9    2 1    
     6   42    2 1    
     7    4    3 ar   
     8   15    3 ar   
     9    5    4 1    
    10   19    4 ar   
    11    8    5 2    
    12   10    6 1    
    13   25    6 1    
    14   43    6 1    
    15   11    7 ar   
    16   12    7 ar   
    17   14    7 1    
    18   44    8 1    
    19   13    9 1    
    20   13   10 1    
    21   30   10 1    
    22   45   10 1    
    23   17   11 ar   
    24   31   11 1    
    25   16   12 ar   
    26   46   12 1    
    27   23   13 1    
    28   47   13 1    
    29   24   14 2    
    30   26   14 am   
    31   21   15 ar   
    32   18   16 ar   
    33   22   16 1    
    34   18   17 ar   
    35   32   17 1    
    36   48   18 1    
    37   20   19 ar   
    38   38   19 1    
    39   21   20 ar   
    40   49   21 1    
    41   28   22 ar   
    42   29   22 ar   
    43   27   23 2    
    44   50   23 1    
    45   64   25 1    
    46   37   26 1    
    47   51   26 1    
    48   37   27 1    
    49   52   27 1    
    50   34   28 ar   
    51   53   28 1    
    52   35   29 ar   
    53   54   29 1    
    54   65   30 1    
    55   66   32 1    
    56   34   33 ar   
    57   35   33 ar   
    58   36   33 1    
    59   55   34 1    
    60   56   35 1    
    61   57   37 1    
    62   58   37 1    
    63   39   38 1    
    64   59   38 1    
    65   40   39 1    
    66   60   39 1    
    67   61   39 1    
    68   41   40 1    
    69   62   40 1    
    70   63   40 1    
    71   67   41 1    
@<TRIPOS>SUBSTRUCTURE
     1 719267      1 GROUP   
@<TRIPOS>SET

