#    Name: 3ijd_C2F_1_INTS_M
#    Modification time : Tue Mar 25 16:38:03 2014

@<TRIPOS>MOLECULE
3ijd_C2F_1_INTS_M
   72     0    12     0     0
SMALL
NO_CHARGES


@<TRIPOS>ATOM
      1 O           8.5765    3.2675   -4.3300 O.2       1 ALC1        0.0000 
      2 O           7.9750    1.9430   -4.6320 O.2       9 ALL1        0.0000 
      3 O           9.1780    4.5920   -4.0280 O.2       5 ALP1        0.0000 
      4 O           6.6190    2.1180   -5.0755 O.2       1 ALC1        0.0000 
      5 O           5.2630    2.2930   -5.5190 O.2       5 ALP1        0.0000 
      6 O           6.0360    1.1080   -5.0395 O.2       1 ALC1        0.0000 
      7 O           6.8090   -0.0770   -4.5600 O.2       9 ALL1        0.0000 
      8 N           5.9150   -3.5005   -4.9610 N.am      2 SEC2        0.0000 
      9 N           5.7320   -2.0600   -4.5090 N.am     10 SEL2        0.0000 
     10 N           6.0980   -4.9410   -5.4130 N.am      6 SEP2        0.0000 
     11 CA         11.1510   -2.9070   -0.0975 C.3       4 GLC5        0.0000 
     12 CA          9.4670   -2.7780   -1.2680 C.3      12 GLL5        0.0000 
     13 CA         12.8350   -3.0360    1.0730 C.3       8 GLP5        0.0000 
     14 O          10.6805   -0.9500   -1.1085 O.2       1 ALC1        0.0000 
     15 O           9.6250   -1.4750   -1.8850 O.2       9 ALL1        0.0000 
     16 O          11.7360   -0.4250   -0.3320 O.2       5 ALP1        0.0000 
     17 CA          8.6495    0.9070   -1.9060 C.3       4 GLC5        0.0000 
     18 CA          8.7220   -1.0000   -2.7750 C.3      12 GLL5        0.0000 
     19 CA          8.5770    2.8140   -1.0370 C.3       8 GLP5        0.0000 
     20 CA         10.4250   -0.1520   -3.2465 C.3       4 GLC5        0.0000 
     21 CA         12.1280    0.6960   -3.7180 C.3       8 GLP5        0.0000 
     22 CA         10.0285   -2.5805   -4.9300 C.3       4 GLC5        0.0000 
     23 CA          9.8240   -4.1020   -3.4010 C.3      12 GLL5        0.0000 
     24 CA         10.2330   -1.0590   -6.4590 C.3       8 GLP5        0.0000 
     25 O           8.9605   -5.3720   -5.4625 O.2       1 ALC1        0.0000 
     26 O           9.4080   -5.3160   -4.0630 O.2       9 ALL1        0.0000 
     27 O           8.5130   -5.4280   -6.8620 O.2       5 ALP1        0.0000 
     28 CA          6.0110   -2.5370   -0.2725 C.3       4 GLC5        0.0000 
     29 CA          6.3410   -3.6720   -2.1550 C.3      12 GLL5        0.0000 
     30 CA          5.6810   -1.4020    1.6100 C.3       8 GLP5        0.0000 
     31 CA          5.6495   -4.5200   -0.3380 C.3       4 GLC5        0.0000 
     32 CA          4.9580   -5.3680    1.4790 C.3       8 GLP5        0.0000 
     33 CA          5.1320   -4.4045   -3.2495 C.3       4 GLC5        0.0000 
     34 CA          3.9230   -5.1370   -4.3440 C.3       8 GLP5        0.0000 
     35 N           6.8895  -12.1515   -1.9970 N.am      2 SEC2        0.0000 
     36 N           8.0190  -11.1400   -2.0260 N.am     10 SEL2        0.0000 
     37 N           5.7600  -13.1630   -1.9680 N.am      6 SEP2        0.0000 
     38 CA          8.7075  -11.3770    3.6200 C.3       4 GLC5        0.0000 
     39 CA          8.8630  -11.6430    1.4270 C.3      12 GLL5        0.0000 
     40 CA          8.5520  -11.1110    5.8130 C.3       8 GLP5        0.0000 
     41 N          11.8645  -12.0680    1.9955 N.am      2 SEC2        0.0000 
     42 N          11.1340  -13.6290    2.2930 N.am     10 SEL2        0.0000 
     43 N          12.5950  -10.5070    1.6980 N.am      6 SEP2        0.0000 
     44 NZ          6.3260  -10.0770    3.8530 N.4       3 LYC4        0.0000 
     45 NZ          7.4410   -9.2220    2.5320 N.4      11 LYL4        0.0000 
     46 NZ          5.2110  -10.9320    5.1740 N.4       7 LYP4        0.0000 
     47 N           8.7345   -8.8385    2.9410 N.am      2 SEC2        0.0000 
     48 N           7.4410   -9.2220    2.5320 N.am     10 SEL2        0.0000 
     49 N          10.0280   -8.4550    3.3500 N.am      6 SEP2        0.0000 
     50 NZ          5.5915  -10.8505    3.9365 N.4       3 LYC4        0.0000 
     51 NZ          5.9720  -10.7690    2.6990 N.4      11 LYL4        0.0000 
     52 N           5.5915  -10.8505    3.9365 N.am      2 SEC2        0.0000 
     53 N           5.9720  -10.7690    2.6990 N.am     10 SEL2        0.0000 
     54 N           5.2110  -10.9320    5.1740 N.am      6 SEP2        0.0000 
     55 CA          9.2085   -1.2500   -4.7207 C.3       4 GLC5        0.0000 
     56 CA          7.6460   -1.8820   -3.1900 C.3      12 GLL5        0.0000 
     57 CA          9.1675   -4.5450   -0.2390 C.3       4 GLC5        0.0000 
     58 CA          8.8550   -3.7940   -2.2280 C.3      12 GLL5        0.0000 
     59 CA          9.1740   -5.8040    1.2700 C.3       8 GLP5        0.0000 
     60 CA         10.5278   -9.4072   -2.4527 C.3       4 GLC5        0.0000 
     61 CA          9.4330   -7.9480   -1.5270 C.3      12 GLL5        0.0000 
     62 CA         12.0730  -10.4210   -3.0910 C.3       8 GLP5        0.0000 
     63 CA          6.4062   -9.2852   -2.9607 C.3       4 GLC5        0.0000 
     64 CA          8.5320   -8.8390   -2.1020 C.3      12 GLL5        0.0000 
     65 CA          4.5660   -9.8750   -3.2040 C.3       8 GLP5        0.0000 
     66 CA          9.3900   -6.5805   -0.2870 C.3       4 GLC5        0.0000 
     67 CA         10.6175   -8.1500   -3.7449 C.3       4 GLC5        0.0000 
     68 CA          9.7790   -6.7660   -2.1610 C.3      12 GLL5        0.0000 
     69 CA         12.3370   -9.3030   -4.1130 C.3       8 GLP5        0.0000 
     70 CA          9.6365  -10.4015    2.2273 C.3       4 GLC5        0.0000 
     71 CA          7.5830  -10.9590    0.9200 C.3      12 GLL5        0.0000 
     72 CA         11.0500   -9.5020    3.2810 C.3       8 GLP5        0.0000 
@<TRIPOS>BOND
@<TRIPOS>SUBSTRUCTURE
     1 ALC1        1 GROUP        1 X    ALC  0     ROOT ALC X 1
     2 SEC2        8 GROUP        1 X    SEC  0     **** SEC X 2
     3 LYC4       44 GROUP        1 X    LYC  0     **** LYC X 4
     4 GLC5       11 GROUP        1 X    GLC  0     **** GLC X 6
     5 ALP1        3 GROUP        1 Y    ALP  0     ROOT ALP Y 8
     6 SEP2       10 GROUP        1 Y    SEP  0     **** SEP Y 9
     7 LYP4       46 GROUP        1 Y    LYP  0     **** LYP Y 11
     8 GLP5       13 GROUP        1 Y    GLP  0     **** GLP Y 13
     9 ALL1        2 GROUP        1 Z    ALL  0     ROOT ALL Z 15
    10 SEL2        9 GROUP        1 Z    SEL  0     **** SEL Z 16
    11 LYL4       45 GROUP        1 Z    LYL  0     **** LYL Z 18
    12 GLL5       12 GROUP        1 Z    GLL  0     **** GLL Z 20
@<TRIPOS>SET

