#    Name: 3ijd_C2F_1_ligand
#    Modification time : Tue Mar 25 16:38:03 2014

@<TRIPOS>MOLECULE
3ijd_C2F_1_ligand
   56    58     1     0     0
SMALL
NO_CHARGES


@<TRIPOS>ATOM
      1 N1          8.7810    0.2400   -3.2870 N.2       1 C2F314      0.0000 
      2 C2          7.8470    0.6870   -4.1670 C.2       1 C2F314      0.0000 
      3 NA2         7.9750    1.9430   -4.6320 N.pl3     1 C2F314      0.0000 
      4 N3          6.8090   -0.0770   -4.5600 N.am      1 C2F314      0.0000 
      5 C4          6.6650   -1.3420   -4.1320 C.2       1 C2F314      0.0000 
      6 O4          5.7320   -2.0600   -4.5090 O.2       1 C2F314      0.0000 
      7 C4A         7.6460   -1.8820   -3.1900 C.2       1 C2F314      0.0000 
      8 N5          7.6180   -3.1330   -2.6090 N.pl3     1 C2F314      0.0000 
      9 C6          8.8550   -3.7940   -2.2280 C.3       1 C2F314      0.0000 
     10 C7          9.4670   -2.7780   -1.2680 C.3       1 C2F314      0.0000 
     11 N8          9.6250   -1.4750   -1.8850 N.pl3     1 C2F314      0.0000 
     12 C8A         8.7220   -1.0000   -2.7750 C.2       1 C2F314      0.0000 
     13 C9          9.8240   -4.1020   -3.4010 C.3       1 C2F314      0.0000 
     14 N10         9.4080   -5.3160   -4.0630 N.pl3     1 C2F314      0.0000 
     15 C11         6.3410   -3.6720   -2.1550 C.3       1 C2F314      0.0000 
     16 C12         8.5320   -8.8390   -2.1020 C.ar      1 C2F314      0.0000 
     17 C13         9.4330   -7.9480   -1.5270 C.ar      1 C2F314      0.0000 
     18 C14         9.7790   -6.7660   -2.1610 C.ar      1 C2F314      0.0000 
     19 C15         9.2150   -6.4820   -3.4100 C.ar      1 C2F314      0.0000 
     20 C16         8.2990   -7.3700   -3.9680 C.ar      1 C2F314      0.0000 
     21 C17         7.9610   -8.5520   -3.3330 C.ar      1 C2F314      0.0000 
     22 C           8.1450  -10.0910   -1.3920 C.2       1 C2F314      0.0000 
     23 O           8.0190  -11.1400   -2.0260 O.2       1 C2F314      0.0000 
     24 N           7.9240   -9.9380   -0.0690 N.am      1 C2F314      0.0000 
     25 CA          7.5830  -10.9590    0.9200 C.3       1 C2F314      0.0000 
     26 CB          8.8630  -11.6430    1.4270 C.3       1 C2F314      0.0000 
     27 CG          8.9380  -13.1610    1.3580 C.3       1 C2F314      0.0000 
     28 CD          9.8800  -13.6380    2.4620 C.2       1 C2F314      0.0000 
     29 OE1        11.1340  -13.6290    2.2930 O.co2     1 C2F314      0.0000 
     30 OE2         9.3570  -14.0260    3.5400 O.co2     1 C2F314      0.0000 
     31 CT          6.9460  -10.2730    2.1190 C.2       1 C2F314      0.0000 
     32 O1          7.4410   -9.2220    2.5320 O.co2     1 C2F314      0.0000 
     33 O2          5.9720  -10.7690    2.6990 O.co2     1 C2F314      0.0000 
     34 H           8.7691    2.4548   -4.3041 H         1 C2F314      0.0000 
     35 H           7.2647    2.2527   -5.2640 H         1 C2F314      0.0000 
     36 H           6.0938    0.3295   -5.2191 H         1 C2F314      0.0000 
     37 H           8.6558   -4.6817   -1.6708 H         1 C2F314      0.0000 
     38 H          10.4388   -3.1740   -0.9287 H         1 C2F314      0.0000 
     39 H           8.8175   -2.7170   -0.3788 H         1 C2F314      0.0000 
     40 H          10.4607   -0.9276   -1.6116 H         1 C2F314      0.0000 
     41 H          10.8267   -4.1923   -2.9817 H         1 C2F314      0.0000 
     42 H           9.8037   -3.2452   -4.0755 H         1 C2F314      0.0000 
     43 H           9.2591   -5.2490   -5.0988 H         1 C2F314      0.0000 
     44 H           9.8523   -8.1759   -0.6054 H         1 C2F314      0.0000 
     45 H          10.4312   -6.1114   -1.7317 H         1 C2F314      0.0000 
     46 H           7.8618   -7.1365   -4.8814 H         1 C2F314      0.0000 
     47 H           7.3013   -9.2042   -3.7630 H         1 C2F314      0.0000 
     48 H           7.9999   -8.9416    0.3548 H         1 C2F314      0.0000 
     49 H           6.9259  -11.6845    0.5391 H         1 C2F314      0.0000 
     50 H           9.0310  -11.3233    2.4878 H         1 C2F314      0.0000 
     51 H           9.7321  -11.2148    0.8640 H         1 C2F314      0.0000 
     52 H           9.3280  -13.4618    0.3994 H         1 C2F314      0.0000 
     53 H           7.9580  -13.5803    1.5171 H         1 C2F314      0.0000 
     54 H           6.4443   -4.5803   -1.7496 H         1 C2F314      0.0000 
     55 H           5.9167   -3.0885   -1.4625 H         1 C2F314      0.0000 
     56 H           5.6865   -3.7589   -2.9060 H         1 C2F314      0.0000 
@<TRIPOS>BOND
     1    2    1 2    
     2   12    1 1    
     3    3    2 1    
     4    4    2 1    
     5   34    3 1    
     6   35    3 1    
     7    5    4 am   
     8   36    4 1    
     9    6    5 2    
    10    7    5 1    
    11    8    7 1    
    12   12    7 2    
    13    9    8 1    
    14   15    8 1    
    15   10    9 1    
    16   13    9 1    
    17   37    9 1    
    18   11   10 1    
    19   38   10 1    
    20   39   10 1    
    21   12   11 1    
    22   40   11 1    
    23   14   13 1    
    24   41   13 1    
    25   42   13 1    
    26   19   14 1    
    27   43   14 1    
    28   54   15 1    
    29   55   15 1    
    30   56   15 1    
    31   17   16 ar   
    32   21   16 ar   
    33   22   16 1    
    34   18   17 ar   
    35   44   17 1    
    36   19   18 ar   
    37   45   18 1    
    38   20   19 ar   
    39   21   20 ar   
    40   46   20 1    
    41   47   21 1    
    42   23   22 2    
    43   24   22 am   
    44   25   24 1    
    45   48   24 1    
    46   26   25 1    
    47   31   25 1    
    48   49   25 1    
    49   27   26 1    
    50   50   26 1    
    51   51   26 1    
    52   28   27 1    
    53   52   27 1    
    54   53   27 1    
    55   29   28 ar   
    56   30   28 ar   
    57   32   31 ar   
    58   33   31 ar   
@<TRIPOS>SUBSTRUCTURE
     1 C2F314      1 GROUP   
@<TRIPOS>SET

