#    Name: 1srj_NAB_2_INTS_M
#    Modification time : Tue Mar 25 02:42:44 2014

@<TRIPOS>MOLECULE
1srj_NAB_2_INTS_M
   45     0     9     0     0
SMALL
NO_CHARGES


@<TRIPOS>ATOM
      1 CA         21.4355    3.2110   12.0875 C.3       3 GLC5        0.0000 
      2 CA         19.6060    4.4060   11.6970 C.3       9 GLL5        0.0000 
      3 CA         23.2650    2.0160   12.4780 C.3       6 GLP5        0.0000 
      4 CA         18.0400    6.5205   19.4235 C.3       3 GLC5        0.0000 
      5 CA         19.2970    5.6410   18.0450 C.3       9 GLL5        0.0000 
      6 CA         16.7830    7.4000   20.8020 C.3       6 GLP5        0.0000 
      7 CA         25.1385    3.8750   16.0600 C.3       3 GLC5        0.0000 
      8 CA         23.1500    2.8700   16.3610 C.3       9 GLL5        0.0000 
      9 CA         27.1270    4.8800   15.7590 C.3       6 GLP5        0.0000 
     10 N          14.7930    6.6145   13.7345 N.am      2 SEC2        0.0000 
     11 N          16.3490    6.1540   13.9070 N.am      8 SEL2        0.0000 
     12 N          13.2370    7.0750   13.5620 N.am      5 SEP2        0.0000 
     13 N          14.3430    6.2795   10.7770 N.am      2 SEC2        0.0000 
     14 N          15.1520    6.3570   11.9150 N.am      8 SEL2        0.0000 
     15 N          13.5340    6.2020    9.6390 N.am      5 SEP2        0.0000 
     16 N          14.1945    6.7160   12.7385 N.am      2 SEC2        0.0000 
     17 N          15.2640    7.5275   11.3085 N.am      2 SEC2        0.0000 
     18 N          15.3760    8.6980   10.7020 N.am      5 SEP2        0.0000 
     19 O          19.6470    5.0995   20.9080 O.2       1 ALC1        0.0000 
     20 O          20.6500    5.2570   20.0320 O.2       7 ALL1        0.0000 
     21 O          18.6440    4.9420   21.7840 O.2       4 ALP1        0.0000 
     22 O          20.3445    4.0710   20.4845 O.2       1 ALC1        0.0000 
     23 O          20.0390    2.8850   20.9370 O.2       4 ALP1        0.0000 
     24 CA         16.8645    4.1240   13.4920 C.3       3 GLC5        0.0000 
     25 CA         18.5670    4.9370   12.4850 C.3       9 GLL5        0.0000 
     26 CA         15.7470    3.0890   14.8050 C.3       6 GLP5        0.0000 
     27 CA         15.7220    3.9423   11.4887 C.3       3 GLC5        0.0000 
     28 CA         17.3970    5.3810   11.8730 C.3       9 GLL5        0.0000 
     29 CA         14.1210    2.5190   11.7980 C.3       6 GLP5        0.0000 
     30 CA         20.6220    5.7186   10.0139 C.3       3 GLC5        0.0000 
     31 CA         18.2900    4.8320    9.7060 C.3       9 GLL5        0.0000 
     32 CA         22.0050    6.9330    9.1760 C.3       6 GLP5        0.0000 
     33 CA         18.8777    3.3855   17.0968 C.3       3 GLC5        0.0000 
     34 CA         19.9870    4.7310   15.9040 C.3       9 GLL5        0.0000 
     35 CA         18.2230    1.6700   17.9060 C.3       6 GLP5        0.0000 
     36 CA         17.5808    6.6330   17.0820 C.3       3 GLC5        0.0000 
     37 CA         19.0780    5.4710   16.6710 C.3       9 GLL5        0.0000 
     38 CA         15.9740    7.7100   16.8060 C.3       6 GLP5        0.0000 
     39 CA         19.0397    3.5118   18.1273 C.3       3 GLC5        0.0000 
     40 CA         19.7230    2.9562   17.5505 C.3       3 GLC5        0.0000 
     41 CA         21.3280    4.3260   17.8810 C.3       9 GLL5        0.0000 
     42 CA         23.7509    4.4200   19.0044 C.3       3 GLC5        0.0000 
     43 CA         23.3580    3.0170   17.7300 C.3       9 GLL5        0.0000 
     44 CA         24.8780    5.3120   20.0520 C.3       6 GLP5        0.0000 
     45 CA         22.9270    2.5805   14.2680 C.3       3 GLC5        0.0000 
@<TRIPOS>BOND
@<TRIPOS>SUBSTRUCTURE
     1 ALC1       19 GROUP        1 X    ALC  0     ROOT ALC X 1
     2 SEC2       10 GROUP        1 X    SEC  0     **** SEC X 2
     3 GLC5        1 GROUP        1 X    GLC  0     **** GLC X 6
     4 ALP1       21 GROUP        1 Y    ALP  0     ROOT ALP Y 8
     5 SEP2       12 GROUP        1 Y    SEP  0     **** SEP Y 9
     6 GLP5        3 GROUP        1 Y    GLP  0     **** GLP Y 13
     7 ALL1       20 GROUP        1 Z    ALL  0     ROOT ALL Z 15
     8 SEL2       11 GROUP        1 Z    SEL  0     **** SEL Z 16
     9 GLL5        2 GROUP        1 Z    GLL  0     **** GLL Z 20
@<TRIPOS>SET

