#    Name: 1srj_NAB_2_ligand
#    Modification time : Tue Mar 25 02:42:44 2014

@<TRIPOS>MOLECULE
1srj_NAB_2_ligand
   33    35     1     0     0
SMALL
NO_CHARGES


@<TRIPOS>ATOM
      1 C1         18.5670    4.9370   12.4850 C.ar      1 NAB142      0.0000 
      2 C2         17.3970    5.3810   11.8730 C.ar      1 NAB142      0.0000 
      3 C3         17.2490    5.3500   10.4860 C.ar      1 NAB142      0.0000 
      4 C4         18.2900    4.8320    9.7060 C.ar      1 NAB142      0.0000 
      5 C5         19.4540    4.3730   10.3070 C.ar      1 NAB142      0.0000 
      6 C6         19.6060    4.4060   11.6970 C.ar      1 NAB142      0.0000 
      7 C1'        19.9870    4.7310   15.9040 C.ar      1 NAB142      0.0000 
      8 C2'        19.0780    5.4710   16.6710 C.ar      1 NAB142      0.0000 
      9 C3'        19.2970    5.6410   18.0450 C.ar      1 NAB142      0.0000 
     10 C4'        20.4160    5.0660   18.6520 C.ar      1 NAB142      0.0000 
     11 C4A        21.3280    4.3260   17.8810 C.ar      1 NAB142      0.0000 
     12 C5'        22.4510    3.7520   18.4860 C.ar      1 NAB142      0.0000 
     13 C6'        23.3580    3.0170   17.7300 C.ar      1 NAB142      0.0000 
     14 C7'        23.1500    2.8700   16.3610 C.ar      1 NAB142      0.0000 
     15 C8'        22.0280    3.4200   15.7550 C.ar      1 NAB142      0.0000 
     16 C8A        21.1180    4.1590   16.5090 C.ar      1 NAB142      0.0000 
     17 C          16.2450    5.9730   12.7000 C.2       1 NAB142      0.0000 
     18 N1         18.6790    4.9940   13.9650 N.2       1 NAB142      0.0000 
     19 N1'        19.7360    4.5610   14.4830 N.2       1 NAB142      0.0000 
     20 O          16.3490    6.1540   13.9070 O.co2     1 NAB142      0.0000 
     21 OXT        15.1520    6.3570   11.9150 O.co2     1 NAB142      0.0000 
     22 O4'        20.6500    5.2570   20.0320 O.3       1 NAB142      0.0000 
     23 H          16.3991    5.6977   10.0462 H         1 NAB142      0.0000 
     24 H          18.1865    4.7937    8.6827 H         1 NAB142      0.0000 
     25 H          20.2217    4.0008    9.7233 H         1 NAB142      0.0000 
     26 H          20.4527    4.0528   12.1360 H         1 NAB142      0.0000 
     27 H          18.2535    5.8879   16.2284 H         1 NAB142      0.0000 
     28 H          18.6334    6.1888   18.6037 H         1 NAB142      0.0000 
     29 H          22.6038    3.8762   19.4963 H         1 NAB142      0.0000 
     30 H          24.1736    2.5865   18.1764 H         1 NAB142      0.0000 
     31 H          23.8360    2.3480   15.7937 H         1 NAB142      0.0000 
     32 H          21.8662    3.2831   14.7484 H         1 NAB142      0.0000 
     33 H          20.0050    4.6459   20.4907 H         1 NAB142      0.0000 
@<TRIPOS>BOND
     1    2    1 ar   
     2    6    1 ar   
     3   18    1 1    
     4    3    2 ar   
     5   17    2 1    
     6    4    3 ar   
     7   23    3 1    
     8    5    4 ar   
     9   24    4 1    
    10    6    5 ar   
    11   25    5 1    
    12   26    6 1    
    13    8    7 ar   
    14   16    7 ar   
    15   19    7 1    
    16    9    8 ar   
    17   27    8 1    
    18   10    9 ar   
    19   28    9 1    
    20   11   10 ar   
    21   22   10 1    
    22   12   11 ar   
    23   16   11 ar   
    24   13   12 ar   
    25   29   12 1    
    26   14   13 ar   
    27   30   13 1    
    28   15   14 ar   
    29   31   14 1    
    30   16   15 ar   
    31   32   15 1    
    32   20   17 ar   
    33   21   17 ar   
    34   19   18 2    
    35   33   22 1    
@<TRIPOS>SUBSTRUCTURE
     1 NAB142      1 GROUP   
@<TRIPOS>SET

