#    Name: 3CLV_1_CAVITY_N1_6.mol2
#    Modification time : Tue Mar 11 14:29:28 2014

@<TRIPOS>MOLECULE
3CLV_1_CAVITY_N1_6.mol2
   58     0     5     0     0
SMALL
NO_CHARGES


@<TRIPOS>ATOM
      1 CA        -47.1897   -4.7032   -2.9728 C.3       4 GLY6        0.0000 
      2 DU        -46.5141   -4.4757   -4.2926 H         5 CUB7        0.0000 
      3 OG        -45.8127   -5.7951   -4.1610 O.2       1 SER1        0.0000 
      4 OG        -45.8384   -4.2481   -5.6123 O.2       1 SER1        0.0000 
      5 CA        -45.8642   -2.7012   -7.0636 C.3       4 GLY6        0.0000 
      6 OG        -45.1628   -4.0206   -6.9321 O.2       1 SER1        0.0000 
      7 CA        -45.1885   -2.4736   -8.3834 C.3       4 GLY6        0.0000 
      8 OG        -44.4872   -3.7930   -8.2519 O.2       1 SER1        0.0000 
      9 CA        -47.4258   -2.9351   -1.0840 C.3       4 GLY6        0.0000 
     10 CA        -46.7244   -4.2545   -0.9524 C.3       4 GLY6        0.0000 
     11 CA        -47.4515   -1.3881   -2.5353 C.3       4 GLY6        0.0000 
     12 CA        -46.7501   -2.7075   -2.4037 C.3       4 GLY6        0.0000 
     13 CA        -46.0488   -4.0269   -2.2722 C.3       4 GLY6        0.0000 
     14 N         -45.3475   -5.3463   -2.1406 N.2       2 ALA2        0.0000 
     15 CA        -46.0745   -2.4800   -3.7235 C.3       4 GLY6        0.0000 
     16 DU        -45.3732   -3.7994   -3.5919 H         5 CUB7        0.0000 
     17 N         -44.6718   -5.1188   -3.4604 N.2       2 ALA2        0.0000 
     18 O         -45.3989   -2.2524   -5.0432 O.2       2 ALA2        0.0000 
     19 O         -44.6975   -3.5718   -4.9117 O.2       2 ALA2        0.0000 
     20 OG        -43.9962   -4.8912   -4.7801 O.2       1 SER1        0.0000 
     21 CA        -44.0219   -3.3443   -6.2314 C.3       4 GLY6        0.0000 
     22 OG        -43.3206   -4.6637   -6.0999 O.2       1 SER1        0.0000 
     23 CA        -43.3463   -3.1167   -7.5512 C.3       4 GLY6        0.0000 
     24 OG        -42.6450   -4.4361   -7.4196 O.2       1 SER1        0.0000 
     25 N         -42.6707   -2.8892   -8.8709 N.2       2 ALA2        0.0000 
     26 OG        -41.9693   -4.2086   -8.7394 O.2       1 SER1        0.0000 
     27 CA        -46.9862   -0.9394   -0.5148 C.3       4 GLY6        0.0000 
     28 CA        -46.2849   -2.2588   -0.3833 C.3       4 GLY6        0.0000 
     29 N         -45.5835   -3.5782   -0.2517 N.2       2 ALA2        0.0000 
     30 O         -44.8822   -4.8976   -0.1202 O.2       2 ALA2        0.0000 
     31 CA        -45.6092   -2.0312   -1.7030 C.3       4 GLY6        0.0000 
     32 DU        -44.9079   -3.3506   -1.5715 H         5 CUB7        0.0000 
     33 N         -44.2066   -4.6700   -1.4399 N.2       2 ALA2        0.0000 
     34 N         -43.5052   -5.9894   -1.3084 N.2       2 ALA2        0.0000 
     35 CA        -44.2323   -3.1231   -2.8912 C.3       4 GLY6        0.0000 
     36 N         -43.5309   -4.4425   -2.7597 N.2       2 ALA2        0.0000 
     37 N         -42.8296   -5.7619   -2.6281 N.2       2 ALA2        0.0000 
     38 O         -43.5566   -2.8955   -4.2110 O.2       2 ALA2        0.0000 
     39 OG        -42.8553   -4.2149   -4.0794 O.2       1 SER1        0.0000 
     40 OG        -42.1540   -5.5343   -3.9479 O.2       1 SER1        0.0000 
     41 O         -42.8810   -2.6680   -5.5308 O.2       2 ALA2        0.0000 
     42 OG        -42.1797   -3.9874   -5.3992 O.2       1 SER1        0.0000 
     43 O         -42.2054   -2.4404   -6.8505 O.2       2 ALA2        0.0000 
     44 CA        -41.5041   -3.7598   -6.7190 C.3       4 GLY6        0.0000 
     45 CA        -44.4683   -1.3549   -1.0024 C.3       4 GLY6        0.0000 
     46 N         -43.7670   -2.6743   -0.8708 N.2       2 ALA2        0.0000 
     47 N         -43.0657   -3.9937   -0.7393 N.2       2 ALA2        0.0000 
     48 CA        -43.7927   -1.1273   -2.3221 C.3       4 GLY6        0.0000 
     49 OD1       -43.0914   -2.4467   -2.1906 O.3       3 ASP3        0.0000 
     50 DU        -42.3900   -3.7661   -2.0590 H         5 CUB7        0.0000 
     51 CA        -41.6887   -5.0855   -1.9275 C.3       4 GLY6        0.0000 
     52 O         -42.4157   -2.2192   -3.5103 O.2       2 ALA2        0.0000 
     53 O         -41.7144   -3.5386   -3.3788 O.2       2 ALA2        0.0000 
     54 O         -41.7401   -1.9916   -4.8301 O.2       2 ALA2        0.0000 
     55 O         -41.0388   -3.3110   -4.6985 O.2       2 ALA2        0.0000 
     56 OD1       -41.9505   -1.7704   -1.4899 O.3       3 ASP3        0.0000 
     57 CA        -41.2491   -3.0898   -1.3584 C.3       4 GLY6        0.0000 
     58 CA        -40.5735   -2.8623   -2.6781 C.3       4 GLY6        0.0000 
@<TRIPOS>BOND
@<TRIPOS>SUBSTRUCTURE
     1 SER1        3 GROUP   
     2 ALA2       14 GROUP   
     3 ASP3       49 GROUP   
     4 GLY6        1 GROUP   
     5 CUB7        2 GROUP   
@<TRIPOS>SET

