#    Name: 3clv_GDP_1_INTS_M
#    Modification time : Mon Mar 24 21:51:50 2014

@<TRIPOS>MOLECULE
3clv_GDP_1_INTS_M
   73     0    12     0     0
SMALL
NO_CHARGES


@<TRIPOS>ATOM
      1 N         -39.4065   -3.9020   -3.9515 N.am      2 SEC2        0.0000 
      2 N         -40.6970   -3.3200   -3.6950 N.am     10 SEL2        0.0000 
      3 N         -38.1160   -4.4840   -4.2080 N.am      6 SEP2        0.0000 
      4 NZ        -41.7185   -0.7825   -3.1275 N.4       3 LYC4        0.0000 
      5 NZ        -42.8400   -2.1050   -3.9500 N.4      11 LYL4        0.0000 
      6 NZ        -40.5970    0.5400   -2.3050 N.4       7 LYP4        0.0000 
      7 N         -43.5020   -1.0860   -4.7040 N.am      2 SEC2        0.0000 
      8 N         -42.8400   -2.1050   -3.9500 N.am     10 SEL2        0.0000 
      9 N         -44.1640   -0.0670   -5.4580 N.am      6 SEP2        0.0000 
     10 NZ        -40.6800   -0.2345   -3.4795 N.4       3 LYC4        0.0000 
     11 NZ        -40.7630   -1.0090   -4.6540 N.4      11 LYL4        0.0000 
     12 N         -40.3680   -0.9405   -6.0930 N.am      2 SEC2        0.0000 
     13 N         -40.7630   -1.0090   -4.6540 N.am     10 SEL2        0.0000 
     14 N         -39.9730   -0.8720   -7.5320 N.am      6 SEP2        0.0000 
     15 N         -39.4660   -1.4545   -5.1380 N.am      2 SEC2        0.0000 
     16 N         -38.1690   -1.9000   -5.6220 N.am      6 SEP2        0.0000 
     17 N         -40.6800   -0.2345   -3.4795 N.am      2 SEC2        0.0000 
     18 N         -40.5970    0.5400   -2.3050 N.am      6 SEP2        0.0000 
     19 N         -40.7985   -1.8725   -6.7895 N.am      2 SEC2        0.0000 
     20 N         -41.6240   -2.8730   -6.0470 N.am     10 SEL2        0.0000 
     21 N         -41.4065   -6.0280   -5.1940 N.am      2 SEC2        0.0000 
     22 N         -42.6940   -5.2020   -5.7370 N.am     10 SEL2        0.0000 
     23 N         -40.1190   -6.8540   -4.6510 N.am      6 SEP2        0.0000 
     24 N         -43.4785   -6.1015   -6.1730 N.am      2 SEC2        0.0000 
     25 N         -44.2630   -7.0010   -6.6090 N.am      6 SEP2        0.0000 
     26 N         -40.2025   -5.9570   -5.5935 N.am      2 SEC2        0.0000 
     27 N         -40.2860   -5.0600   -6.5360 N.am     10 SEL2        0.0000 
     28 N         -38.9515   -5.5630   -6.4270 N.am      2 SEC2        0.0000 
     29 N         -37.6170   -6.0660   -6.3180 N.am      6 SEP2        0.0000 
     30 N         -39.7570   -5.7440   -7.6010 N.am      2 SEC2        0.0000 
     31 N         -39.2280   -6.4280   -8.6660 N.am      6 SEP2        0.0000 
     32 CA        -43.8520   -2.0750   -7.6115 C.3       4 GLC5        0.0000 
     33 CA        -43.4550   -3.7330   -8.3410 C.3      12 GLL5        0.0000 
     34 CA        -44.2490   -0.4170   -6.8820 C.3       8 GLP5        0.0000 
     35 N         -42.9815   -2.2085  -11.1995 N.am      2 SEC2        0.0000 
     36 N         -42.9760   -3.6280  -10.7240 N.am     10 SEL2        0.0000 
     37 N         -42.9870   -0.7890  -11.6750 N.am      6 SEP2        0.0000 
     38 O         -44.9255   -7.2170  -11.5840 O.2       1 ALC1        0.0000 
     39 O         -44.8530   -6.0320  -10.8350 O.2       9 ALL1        0.0000 
     40 O         -44.9980   -8.4020  -12.3330 O.2       5 ALP1        0.0000 
     41 O         -42.0255   -8.3225  -11.2390 O.2       1 ALC1        0.0000 
     42 O         -42.4270   -7.0960  -11.5560 O.2       9 ALL1        0.0000 
     43 O         -41.6240   -9.5490  -10.9220 O.2       5 ALP1        0.0000 
     44 CA        -41.9535   -2.5155  -11.6295 C.3       4 GLC5        0.0000 
     45 CA        -42.3630   -4.6560  -11.5160 C.3      12 GLL5        0.0000 
     46 CA        -41.5440   -0.3750  -11.7430 C.3       8 GLP5        0.0000 
     47 N         -37.9895   -2.3235  -11.1100 N.am      2 SEC2        0.0000 
     48 N         -38.8700   -3.6680  -11.4010 N.am     10 SEL2        0.0000 
     49 N         -37.1090   -0.9790  -10.8190 N.am      6 SEP2        0.0000 
     50 CA        -39.3365   -1.7615  -12.9920 C.3       4 GLC5        0.0000 
     51 CA        -39.1030   -3.5700  -12.7300 C.3      12 GLL5        0.0000 
     52 CA        -39.5700    0.0470  -13.2540 C.3       8 GLP5        0.0000 
     53 CA        -37.3010   -4.3010  -12.0040 C.3       4 GLC5        0.0000 
     54 CA        -35.4990   -5.0320  -11.2780 C.3       8 GLP5        0.0000 
     55 N         -35.8080   -3.3310  -13.4950 N.am      2 SEC2        0.0000 
     56 N         -37.1160   -2.8540  -13.8100 N.am     10 SEL2        0.0000 
     57 N         -34.5000   -3.8080  -13.1800 N.am      6 SEP2        0.0000 
     58 N         -36.4805   -4.3625  -14.0910 N.am      2 SEC2        0.0000 
     59 N         -35.8450   -5.8710  -14.3720 N.am      6 SEP2        0.0000 
     60 O         -38.1940   -2.9385  -16.1680 O.2       1 ALC1        0.0000 
     61 O         -38.9460   -3.2220  -15.1350 O.2       9 ALL1        0.0000 
     62 O         -37.4420   -2.6550  -17.2010 O.2       5 ALP1        0.0000 
     63 O         -39.9265   -3.3055  -17.5815 O.2       1 ALC1        0.0000 
     64 O         -40.7920   -3.5610  -16.5310 O.2       9 ALL1        0.0000 
     65 O         -39.0610   -3.0500  -18.6320 O.2       5 ALP1        0.0000 
     66 CA        -40.7855   -2.0855  -13.0690 C.3       4 GLC5        0.0000 
     67 CA        -40.5080   -3.9510  -12.9580 C.3      12 GLL5        0.0000 
     68 CA        -41.0630   -0.2200  -13.1800 C.3       8 GLP5        0.0000 
     69 CA        -42.8358   -7.1648   -8.9060 C.3       4 GLC5        0.0000 
     70 CA        -42.4420   -5.9410  -10.7050 C.3      12 GLL5        0.0000 
     71 CA        -42.5700   -8.4990   -7.4790 C.3       8 GLP5        0.0000 
     72 CA        -41.1868   -6.4322  -12.3933 C.3       4 GLC5        0.0000 
     73 CA        -39.9710   -7.5660  -13.6760 C.3       8 GLP5        0.0000 
@<TRIPOS>BOND
@<TRIPOS>SUBSTRUCTURE
     1 ALC1       38 GROUP        1 X    ALC  0     ROOT ALC X 1
     2 SEC2        1 GROUP        1 X    SEC  0     **** SEC X 2
     3 LYC4        4 GROUP        1 X    LYC  0     **** LYC X 4
     4 GLC5       32 GROUP        1 X    GLC  0     **** GLC X 6
     5 ALP1       40 GROUP        1 Y    ALP  0     ROOT ALP Y 8
     6 SEP2        3 GROUP        1 Y    SEP  0     **** SEP Y 9
     7 LYP4        6 GROUP        1 Y    LYP  0     **** LYP Y 11
     8 GLP5       34 GROUP        1 Y    GLP  0     **** GLP Y 13
     9 ALL1       39 GROUP        1 Z    ALL  0     ROOT ALL Z 15
    10 SEL2        2 GROUP        1 Z    SEL  0     **** SEL Z 16
    11 LYL4        5 GROUP        1 Z    LYL  0     **** LYL Z 18
    12 GLL5       33 GROUP        1 Z    GLL  0     **** GLL Z 20
@<TRIPOS>SET

