#    Name: 3clv_GDP_1_ligand
#    Modification time : Mon Mar 24 21:51:50 2014

@<TRIPOS>MOLECULE
3clv_GDP_1_ligand
   40    42     1     0     0
SMALL
NO_CHARGES


@<TRIPOS>ATOM
      1 PB        -41.4610   -2.3390   -4.5240 P.3       1 GDP211      0.0000 
      2 O1B       -40.6970   -3.3200   -3.6950 O.co2     1 GDP211      0.0000 
      3 O2B       -42.8400   -2.1050   -3.9500 O.co2     1 GDP211      0.0000 
      4 O3B       -40.7630   -1.0090   -4.6540 O.co2     1 GDP211      0.0000 
      5 O3A       -41.6240   -2.8730   -6.0470 O.3       1 GDP211      0.0000 
      6 PA        -41.6430   -4.4280   -6.5160 P.3       1 GDP211      0.0000 
      7 O1A       -42.6940   -5.2020   -5.7370 O.co2     1 GDP211      0.0000 
      8 O2A       -40.2860   -5.0600   -6.5360 O.co2     1 GDP211      0.0000 
      9 O5'       -42.1650   -4.2720   -8.0290 O.3       1 GDP211      0.0000 
     10 C5'       -43.4550   -3.7330   -8.3410 C.3       1 GDP211      0.0000 
     11 C4'       -43.8410   -4.2110   -9.7460 C.3       1 GDP211      0.0000 
     12 O4'       -42.9760   -3.6280  -10.7240 O.3       1 GDP211      0.0000 
     13 C3'       -43.7610   -5.7200   -9.9610 C.3       1 GDP211      0.0000 
     14 O3'       -44.8530   -6.0320  -10.8350 O.3       1 GDP211      0.0000 
     15 C2'       -42.4420   -5.9410  -10.7050 C.3       1 GDP211      0.0000 
     16 O2'       -42.4270   -7.0960  -11.5560 O.3       1 GDP211      0.0000 
     17 C1'       -42.3630   -4.6560  -11.5160 C.3       1 GDP211      0.0000 
     18 N9        -40.9780   -4.2390  -11.7560 N.pl3     1 GDP211      0.0000 
     19 C8        -40.0190   -4.0650  -10.8210 C.2       1 GDP211      0.0000 
     20 N7        -38.8700   -3.6680  -11.4010 N.2       1 GDP211      0.0000 
     21 C5        -39.1030   -3.5700  -12.7300 C.2       1 GDP211      0.0000 
     22 C6        -38.3180   -3.1930  -13.9290 C.2       1 GDP211      0.0000 
     23 O6        -37.1160   -2.8540  -13.8100 O.2       1 GDP211      0.0000 
     24 N1        -38.9460   -3.2220  -15.1350 N.am      1 GDP211      0.0000 
     25 C2        -40.2500   -3.5710  -15.2860 C.2       1 GDP211      0.0000 
     26 N2        -40.7920   -3.5610  -16.5310 N.pl3     1 GDP211      0.0000 
     27 N3        -41.0330   -3.9500  -14.2270 N.2       1 GDP211      0.0000 
     28 C4        -40.5080   -3.9510  -12.9580 C.2       1 GDP211      0.0000 
     29 H         -43.4503   -2.6452   -8.3484 H         1 GDP211      0.0000 
     30 H         -44.2191   -4.0803   -7.6489 H         1 GDP211      0.0000 
     31 H         -44.8691   -3.9035   -9.9463 H         1 GDP211      0.0000 
     32 H         -43.7695   -6.2079   -9.0650 H         1 GDP211      0.0000 
     33 H         -41.6552   -5.9128   -9.9891 H         1 GDP211      0.0000 
     34 H         -42.8874   -4.7869  -12.4307 H         1 GDP211      0.0000 
     35 H         -40.1430   -4.2072   -9.8619 H         1 GDP211      0.0000 
     36 H         -38.3899   -2.9592  -15.9992 H         1 GDP211      0.0000 
     37 H         -40.1863   -3.2719  -17.2723 H         1 GDP211      0.0000 
     38 H         -41.7490   -3.8436  -16.5966 H         1 GDP211      0.0000 
     39 H         -44.4536   -6.5980  -11.5561 H         1 GDP211      0.0000 
     40 H         -42.1007   -7.8414  -10.9747 H         1 GDP211      0.0000 
@<TRIPOS>BOND
     1    2    1 ar   
     2    3    1 ar   
     3    4    1 ar   
     4    5    1 1    
     5    6    5 1    
     6    7    6 ar   
     7    8    6 ar   
     8    9    6 1    
     9   10    9 1    
    10   11   10 1    
    11   29   10 1    
    12   30   10 1    
    13   12   11 1    
    14   13   11 1    
    15   31   11 1    
    16   17   12 1    
    17   14   13 1    
    18   15   13 1    
    19   32   13 1    
    20   39   14 1    
    21   16   15 1    
    22   17   15 1    
    23   33   15 1    
    24   40   16 1    
    25   18   17 1    
    26   34   17 1    
    27   19   18 1    
    28   28   18 1    
    29   20   19 2    
    30   35   19 1    
    31   21   20 1    
    32   22   21 1    
    33   28   21 2    
    34   23   22 2    
    35   24   22 am   
    36   25   24 1    
    37   36   24 1    
    38   26   25 1    
    39   27   25 2    
    40   37   26 1    
    41   38   26 1    
    42   28   27 1    
@<TRIPOS>SUBSTRUCTURE
     1 GDP211      1 GROUP   
@<TRIPOS>SET

