#    Name: 3b5r_B5R_1_INTS_M
#    Modification time : Mon Mar 24 18:53:26 2014

@<TRIPOS>MOLECULE
3b5r_B5R_1_INTS_M
   99     0     9     0     0
SMALL
NO_CHARGES


@<TRIPOS>ATOM
      1 CA         31.5605   -1.4505    8.2415 C.3       3 GLC5        0.0000 
      2 CA         29.5630   -0.6500    8.0000 C.3       9 GLL5        0.0000 
      3 CA         33.5580   -2.2510    8.4830 C.3       6 GLP5        0.0000 
      4 CA         29.8355   -2.9840    8.1065 C.3       3 GLC5        0.0000 
      5 CA         29.7060   -2.0930    9.8420 C.3       9 GLL5        0.0000 
      6 CA         29.9650   -3.8750    6.3710 C.3       6 GLP5        0.0000 
      7 CA         30.0590    1.8235   11.9400 C.3       3 GLC5        0.0000 
      8 CA         29.4480    0.1230   11.9470 C.3       9 GLL5        0.0000 
      9 CA         30.6700    3.5240   11.9330 C.3       6 GLP5        0.0000 
     10 CA         30.9430    0.4110   13.1115 C.3       3 GLC5        0.0000 
     11 CA         32.4380    0.6990   14.2760 C.3       6 GLP5        0.0000 
     12 CA         30.8280   -1.1070    5.7985 C.3       3 GLC5        0.0000 
     13 CA         30.3680    0.9100    5.3260 C.3       9 GLL5        0.0000 
     14 CA         31.2880   -3.1240    6.2710 C.3       6 GLP5        0.0000 
     15 CA         32.0060    1.1540    5.8840 C.3       3 GLC5        0.0000 
     16 CA         33.6440    1.3980    6.4420 C.3       6 GLP5        0.0000 
     17 CA         29.9815    1.6985    1.9340 C.3       3 GLC5        0.0000 
     18 CA         29.8990    0.8780    3.8800 C.3       9 GLL5        0.0000 
     19 CA         30.0640    2.5190   -0.0120 C.3       6 GLP5        0.0000 
     20 CA         31.7265    2.0020    3.3185 C.3       3 GLC5        0.0000 
     21 CA         33.5540    3.1260    2.7570 C.3       6 GLP5        0.0000 
     22 O          32.1220    0.9450    3.0795 O.2       1 ALC1        0.0000 
     23 O          30.8690    1.5460    3.0700 O.2       7 ALL1        0.0000 
     24 O          33.3750    0.3440    3.0890 O.2       4 ALP1        0.0000 
     25 CA         30.4670   -1.2165    1.5730 C.3       3 GLC5        0.0000 
     26 CA         29.7260   -0.5710    3.4190 C.3       9 GLL5        0.0000 
     27 CA         31.2080   -1.8620   -0.2730 C.3       6 GLP5        0.0000 
     28 CA         27.8590   -1.3060    2.4565 C.3       3 GLC5        0.0000 
     29 CA         25.9920   -2.0410    1.4940 C.3       6 GLP5        0.0000 
     30 CA         30.5070   -1.8475    4.8450 C.3       3 GLC5        0.0000 
     31 O          29.9260    3.7010    3.0320 O.2       1 ALC1        0.0000 
     32 O          28.6810    2.9400    3.6410 O.2       7 ALL1        0.0000 
     33 O          31.1710    4.4620    2.4230 O.2       4 ALP1        0.0000 
     34 CA         28.6035    6.9610    2.5610 C.3       3 GLC5        0.0000 
     35 CA         28.0190    5.1500    3.3910 C.3       9 GLL5        0.0000 
     36 CA         29.1880    8.7720    1.7310 C.3       6 GLP5        0.0000 
     37 CA         27.5915    7.2695    2.0325 C.3       3 GLC5        0.0000 
     38 CA         27.0230    6.1190    3.3990 C.3       9 GLL5        0.0000 
     39 CA         28.1600    8.4200    0.6660 C.3       6 GLP5        0.0000 
     40 CA         24.5965    6.6415    5.5255 C.3       3 GLC5        0.0000 
     41 CA         24.7430    6.8380    3.5720 C.3       9 GLL5        0.0000 
     42 CA         24.4500    6.4450    7.4790 C.3       6 GLP5        0.0000 
     43 CA         22.7760    7.1960    3.3025 C.3       3 GLC5        0.0000 
     44 CA         20.8090    7.5540    3.0330 C.3       6 GLP5        0.0000 
     45 CA         24.5720    6.0735    1.8275 C.3       3 GLC5        0.0000 
     46 CA         24.4010    5.3090    0.0830 C.3       6 GLP5        0.0000 
     47 N          23.4700    9.0495    3.1020 N.am      2 SEC2        0.0000 
     48 N          24.0010    7.7010    3.5600 N.am      8 SEL2        0.0000 
     49 N          22.9390   10.3980    2.6440 N.am      5 SEP2        0.0000 
     50 CA         21.6705    4.7545    4.9050 C.3       3 GLC5        0.0000 
     51 CA         22.9710    4.6510    3.2850 C.3       9 GLL5        0.0000 
     52 CA         20.3700    4.8580    6.5250 C.3       6 GLP5        0.0000 
     53 CA         21.8900    6.1025    3.1590 C.3       3 GLC5        0.0000 
     54 CA         24.4145    1.8645    5.6415 C.3       3 GLC5        0.0000 
     55 CA         23.6550    2.7090    3.7480 C.3       9 GLL5        0.0000 
     56 CA         25.1740    1.0200    7.5350 C.3       6 GLP5        0.0000 
     57 CA         23.2100    1.2080    4.4830 C.3       3 GLC5        0.0000 
     58 CA         22.7650   -0.2930    5.2180 C.3       6 GLP5        0.0000 
     59 CA         24.3675    2.6035    6.4160 C.3       3 GLC5        0.0000 
     60 CA         23.5610    4.1870    5.2970 C.3       9 GLL5        0.0000 
     61 CA         21.9655    4.5225    5.9110 C.3       3 GLC5        0.0000 
     62 CA         28.0510   -1.9270   10.4332 C.3       3 GLC5        0.0000 
     63 CA         29.5860   -0.8310    9.3790 C.3       9 GLL5        0.0000 
     64 CA         26.4560   -2.3920   11.2560 C.3       6 GLP5        0.0000 
     65 CA         31.4405   -1.8470    9.7843 C.3       3 GLC5        0.0000 
     66 CA         33.2350   -2.2320    9.9580 C.3       6 GLP5        0.0000 
     67 CA         29.8025   -2.3860   11.2032 C.3       3 GLC5        0.0000 
     68 CA         29.9590   -3.3100   12.7960 C.3       6 GLP5        0.0000 
     69 CA         28.0086   -0.8384    8.3914 C.3       3 GLC5        0.0000 
     70 CA         26.3770   -0.2600    7.5170 C.3       6 GLP5        0.0000 
     71 CA         27.9005    0.3260    8.7335 C.3       3 GLC5        0.0000 
     72 CA         29.4810    0.2740   10.2230 C.3       9 GLL5        0.0000 
     73 CA         27.9602   -1.0968   11.1705 C.3       3 GLC5        0.0000 
     74 CA         29.7117   -1.5558   11.9405 C.3       3 GLC5        0.0000 
     75 CA         28.3395    3.2192    8.3283 C.3       3 GLC5        0.0000 
     76 CA         29.3670    1.5500    9.6770 C.3       9 GLL5        0.0000 
     77 CA         27.3240    4.7970    7.6690 C.3       6 GLP5        0.0000 
     78 CA         27.8818    0.4597    7.6978 C.3       3 GLC5        0.0000 
     79 CA         29.3430    1.7330    8.2980 C.3       9 GLL5        0.0000 
     80 CA         31.1557    2.1233    7.1973 C.3       3 GLC5        0.0000 
     81 CA         29.4300    0.6260    7.4590 C.3       9 GLL5        0.0000 
     82 CA         32.9250    3.0670    6.5160 C.3       6 GLP5        0.0000 
     83 CA         30.3951   -1.5906    7.1726 C.3       3 GLC5        0.0000 
     84 CA         27.8872    4.0622    1.4205 C.3       3 GLC5        0.0000 
     85 CA         27.6780    3.8130    3.5630 C.3       9 GLL5        0.0000 
     86 CA         27.9260    3.6430   -0.6360 C.3       6 GLP5        0.0000 
     87 CA         27.1660    4.2192    5.6585 C.3       3 GLC5        0.0000 
     88 CA         29.0499    5.8291    4.4945 C.3       3 GLC5        0.0000 
     89 CA         30.6640    6.3580    5.5510 C.3       6 GLP5        0.0000 
     90 CA         26.9005    6.1156    5.3952 C.3       3 GLC5        0.0000 
     91 CA         27.1960    6.5320    7.3050 C.3       6 GLP5        0.0000 
     92 CA         22.3592    2.8807    5.3520 C.3       3 GLC5        0.0000 
     93 CA         23.8660    3.9940    4.0180 C.3       9 GLL5        0.0000 
     94 CA         20.9580    2.4100    6.8210 C.3       6 GLP5        0.0000 
     95 CA         23.7324    3.7534    1.9229 C.3       3 GLC5        0.0000 
     96 CA         23.9280    3.9910    0.1460 C.3       6 GLP5        0.0000 
     97 CA         21.8409    2.6839    3.3159 C.3       3 GLC5        0.0000 
     98 CA         20.1450    1.8520    2.9320 C.3       6 GLP5        0.0000 
     99 CA         24.2635    5.3219    6.0344 C.3       3 GLC5        0.0000 
@<TRIPOS>BOND
@<TRIPOS>SUBSTRUCTURE
     1 ALC1       22 GROUP        1 X    ALC  0     ROOT ALC X 1
     2 SEC2       47 GROUP        1 X    SEC  0     **** SEC X 2
     3 GLC5        1 GROUP        1 X    GLC  0     **** GLC X 6
     4 ALP1       24 GROUP        1 Y    ALP  0     ROOT ALP Y 8
     5 SEP2       49 GROUP        1 Y    SEP  0     **** SEP Y 9
     6 GLP5        3 GROUP        1 Y    GLP  0     **** GLP Y 13
     7 ALL1       23 GROUP        1 Z    ALL  0     ROOT ALL Z 15
     8 SEL2       48 GROUP        1 Z    SEL  0     **** SEL Z 16
     9 GLL5        2 GROUP        1 Z    GLL  0     **** GLL Z 20
@<TRIPOS>SET

