#    Name: 3b5r_B5R_1_ligand
#    Modification time : Mon Mar 24 18:53:26 2014

@<TRIPOS>MOLECULE
3b5r_B5R_1_ligand
   41    42     1     0     0
SMALL
NO_CHARGES


@<TRIPOS>ATOM
      1 C21        29.5630   -0.6500    8.0000 C.ar      1 B5R1        0.0000 
      2 C20        29.5860   -0.8310    9.3790 C.ar      1 B5R1        0.0000 
      3 F20        29.7060   -2.0930    9.8420 F         1 B5R1        0.0000 
      4 C19        29.4810    0.2740   10.2230 C.ar      1 B5R1        0.0000 
      5 CL19       29.4480    0.1230   11.9470 Cl        1 B5R1        0.0000 
      6 C18        29.3670    1.5500    9.6770 C.ar      1 B5R1        0.0000 
      7 C17        29.3430    1.7330    8.2980 C.ar      1 B5R1        0.0000 
      8 C16        29.4300    0.6260    7.4590 C.ar      1 B5R1        0.0000 
      9 O14        29.1890    0.7630    6.1290 O.3       1 B5R1        0.0000 
     10 C13        30.3680    0.9100    5.3260 C.3       1 B5R1        0.0000 
     11 C11        29.8990    0.8780    3.8800 C.3       1 B5R1        0.0000 
     12 O11        30.8690    1.5460    3.0700 O.3       1 B5R1        0.0000 
     13 C12        29.7260   -0.5710    3.4190 C.3       1 B5R1        0.0000 
     14 C10        28.5650    1.6230    3.7980 C.2       1 B5R1        0.0000 
     15 O10        27.5010    1.0160    3.9160 O.2       1 B5R1        0.0000 
     16 N9         28.6810    2.9400    3.6410 N.am      1 B5R1        0.0000 
     17 C6         27.6780    3.8130    3.5630 C.ar      1 B5R1        0.0000 
     18 C5         26.3380    3.4700    3.7330 C.ar      1 B5R1        0.0000 
     19 C1         28.0190    5.1500    3.3910 C.ar      1 B5R1        0.0000 
     20 C2         27.0230    6.1190    3.3990 C.ar      1 B5R1        0.0000 
     21 C3         25.6890    5.7640    3.5760 C.ar      1 B5R1        0.0000 
     22 C8         24.7430    6.8380    3.5720 C.1       1 B5R1        0.0000 
     23 N8         24.0010    7.7010    3.5600 N.1       1 B5R1        0.0000 
     24 C4         25.3200    4.4270    3.7470 C.ar      1 B5R1        0.0000 
     25 C7         23.8660    3.9940    4.0180 C.3       1 B5R1        0.0000 
     26 F2         22.9710    4.6510    3.2850 F         1 B5R1        0.0000 
     27 F1         23.6550    2.7090    3.7480 F         1 B5R1        0.0000 
     28 F3         23.5610    4.1870    5.2970 F         1 B5R1        0.0000 
     29 H          29.6449   -1.4650    7.3744 H         1 B5R1        0.0000 
     30 H          29.2996    2.3688   10.3028 H         1 B5R1        0.0000 
     31 H          29.2620    2.6746    7.9033 H         1 B5R1        0.0000 
     32 H          31.0629    0.0954    5.4769 H         1 B5R1        0.0000 
     33 H          30.8614    1.8557    5.5033 H         1 B5R1        0.0000 
     34 H          29.6914    3.3417    3.5696 H         1 B5R1        0.0000 
     35 H          26.0850    2.4661    3.8539 H         1 B5R1        0.0000 
     36 H          28.9999    5.4190    3.2590 H         1 B5R1        0.0000 
     37 H          27.2742    7.1128    3.2724 H         1 B5R1        0.0000 
     38 H          30.5824   -1.0840    3.4772 H         1 B5R1        0.0000 
     39 H          29.0533   -1.0597    3.9746 H         1 B5R1        0.0000 
     40 H          29.4163   -0.6242    2.4696 H         1 B5R1        0.0000 
     41 H          31.7159    1.0313    3.2033 H         1 B5R1        0.0000 
@<TRIPOS>BOND
     1    2    1 ar   
     2    8    1 ar   
     3   29    1 1    
     4    3    2 1    
     5    4    2 ar   
     6    5    4 1    
     7    6    4 ar   
     8    7    6 ar   
     9   30    6 1    
    10    8    7 ar   
    11   31    7 1    
    12    9    8 1    
    13   10    9 1    
    14   11   10 1    
    15   32   10 1    
    16   33   10 1    
    17   12   11 1    
    18   13   11 1    
    19   14   11 1    
    20   41   12 1    
    21   38   13 1    
    22   39   13 1    
    23   40   13 1    
    24   15   14 2    
    25   16   14 am   
    26   17   16 1    
    27   34   16 1    
    28   18   17 ar   
    29   19   17 ar   
    30   24   18 ar   
    31   35   18 1    
    32   20   19 ar   
    33   36   19 1    
    34   21   20 ar   
    35   37   20 1    
    36   22   21 1    
    37   24   21 ar   
    38   23   22 3    
    39   25   24 1    
    40   26   25 1    
    41   27   25 1    
    42   28   25 1    
@<TRIPOS>SUBSTRUCTURE
     1 B5R1        1 GROUP   
@<TRIPOS>SET

