#    Name: 3az2_DS3_1_INTS_M
#    Modification time : Mon Mar 24 18:29:23 2014

@<TRIPOS>MOLECULE
3az2_DS3_1_INTS_M
  133     0     9     0     0
SMALL
NO_CHARGES


@<TRIPOS>ATOM
      1 NZ         13.6705   11.9440   38.1550 N.4       2 LYC4        0.0000 
      2 NZ         13.6920   12.0530   36.8290 N.4       8 LYL4        0.0000 
      3 NZ         13.5330   12.9330   40.2010 N.4       5 LYP4        0.0000 
      4 N          13.4420   13.0660   38.2250 N.am      1 SEC2        0.0000 
      5 N          13.6920   12.0530   36.8290 N.am      7 SEL2        0.0000 
      6 N          13.1920   14.0790   39.6210 N.am      4 SEP2        0.0000 
      7 N          13.6705   11.9440   38.1550 N.am      1 SEC2        0.0000 
      8 N          13.6490   11.8350   39.4810 N.am      4 SEP2        0.0000 
      9 NZ         12.9785   14.2235   38.3955 N.4       2 LYC4        0.0000 
     10 NZ         12.7650   14.3680   37.1700 N.4       8 LYL4        0.0000 
     11 N          11.8370   15.0845   37.3055 N.am      1 SEC2        0.0000 
     12 N          12.7650   14.3680   37.1700 N.am      7 SEL2        0.0000 
     13 N          10.9090   15.8010   37.4410 N.am      4 SEP2        0.0000 
     14 N          12.9785   14.2235   38.3955 N.am      1 SEC2        0.0000 
     15 CA         16.1300   21.4130   31.9485 C.3       3 GLC5        0.0000 
     16 CA         14.1800   21.0940   32.8590 C.3       9 GLL5        0.0000 
     17 CA         18.0800   21.7320   31.0380 C.3       6 GLP5        0.0000 
     18 CA         15.0920   23.7205   33.6260 C.3       3 GLC5        0.0000 
     19 CA         12.9200   23.2300   33.5200 C.3       9 GLL5        0.0000 
     20 CA         17.2640   24.2110   33.7320 C.3       6 GLP5        0.0000 
     21 CA         12.0260   21.9355   36.9520 C.3       3 GLC5        0.0000 
     22 CA         13.3660   23.4690   36.1490 C.3       9 GLL5        0.0000 
     23 CA         10.6860   20.4020   37.7550 C.3       6 GLP5        0.0000 
     24 CA         13.0225   23.9715   38.0460 C.3       3 GLC5        0.0000 
     25 CA         12.6790   24.4740   39.9430 C.3       6 GLP5        0.0000 
     26 CA         11.6260   22.7355   29.7140 C.3       3 GLC5        0.0000 
     27 CA         13.0400   23.5460   30.8700 C.3       9 GLL5        0.0000 
     28 CA         10.2120   21.9250   28.5580 C.3       6 GLP5        0.0000 
     29 CA         14.2065   23.2515   29.4085 C.3       3 GLC5        0.0000 
     30 CA         15.3730   22.9570   27.9470 C.3       6 GLP5        0.0000 
     31 CA         11.7265   26.1055   32.4270 C.3       3 GLC5        0.0000 
     32 CA         11.0760   24.9030   34.1340 C.3       9 GLL5        0.0000 
     33 CA         12.3770   27.3080   30.7200 C.3       6 GLP5        0.0000 
     34 CA         12.4085   26.3530   34.9055 C.3       3 GLC5        0.0000 
     35 CA         13.7410   27.8030   35.6770 C.3       6 GLP5        0.0000 
     36 CA          8.4480   22.8960   30.9805 C.3       3 GLC5        0.0000 
     37 CA          9.1400   23.4220   32.7720 C.3       9 GLL5        0.0000 
     38 CA          7.7560   22.3700   29.1890 C.3       6 GLP5        0.0000 
     39 CA         10.3320   22.4290   30.6995 C.3       3 GLC5        0.0000 
     40 CA         10.4520   22.9330   32.8410 C.3       9 GLL5        0.0000 
     41 CA         16.8575   20.3780   31.6195 C.3       3 GLC5        0.0000 
     42 CA         15.6350   19.0240   32.2010 C.3       9 GLL5        0.0000 
     43 CA         16.5080   18.1280   31.0480 C.3       3 GLC5        0.0000 
     44 CA         17.3810   17.2320   29.8950 C.3       6 GLP5        0.0000 
     45 CA         15.3620   19.7545   30.2830 C.3       3 GLC5        0.0000 
     46 CA         15.0890   20.4850   28.3650 C.3       6 GLP5        0.0000 
     47 CA          7.9945   27.7030   33.7755 C.3       3 GLC5        0.0000 
     48 CA          9.3420   26.7280   34.8260 C.3       9 GLL5        0.0000 
     49 CA          6.6470   28.6780   32.7250 C.3       6 GLP5        0.0000 
     50 CA          9.0640   28.3985   35.6035 C.3       3 GLC5        0.0000 
     51 CA          8.7860   30.0690   36.3810 C.3       6 GLP5        0.0000 
     52 CA          7.8105   26.9610   36.2540 C.3       3 GLC5        0.0000 
     53 CA          6.2790   27.1940   37.6820 C.3       6 GLP5        0.0000 
     54 CA          7.0960   22.3650   34.0285 C.3       3 GLC5        0.0000 
     55 CA          6.5130   24.1680   33.6530 C.3       9 GLL5        0.0000 
     56 CA          7.6790   20.5620   34.4040 C.3       6 GLP5        0.0000 
     57 CA          5.9185   26.7795   33.1900 C.3       3 GLC5        0.0000 
     58 CA          5.1900   24.8810   33.6550 C.3       9 GLL5        0.0000 
     59 N           5.5135   26.9800   34.1395 N.am      1 SEC2        0.0000 
     60 N           5.1780   25.8400   34.5910 N.am      7 SEL2        0.0000 
     61 N           5.8490   28.1200   33.6880 N.am      4 SEP2        0.0000 
     62 N           5.2895   26.0240   35.9385 N.am      1 SEC2        0.0000 
     63 N           5.4010   26.2080   37.2860 N.am      4 SEP2        0.0000 
     64 CA          2.8735   24.6500   31.4930 C.3       3 GLC5        0.0000 
     65 CA          2.7600   24.6920   33.4390 C.3       9 GLL5        0.0000 
     66 CA          2.9870   24.6080   29.5470 C.3       6 GLP5        0.0000 
     67 CA          1.5745   25.3440   34.8365 C.3       3 GLC5        0.0000 
     68 CA          0.3890   25.9960   36.2340 C.3       6 GLP5        0.0000 
     69 CA          2.2265   26.2350   32.6365 C.3       3 GLC5        0.0000 
     70 CA          1.6930   27.7780   31.8340 C.3       6 GLP5        0.0000 
     71 CA          1.3480   23.9135   32.4020 C.3       3 GLC5        0.0000 
     72 CA         -0.0640   23.1350   31.3650 C.3       6 GLP5        0.0000 
     73 CA          4.8945   21.5860   35.6695 C.3       3 GLC5        0.0000 
     74 CA          3.9090   23.4290   35.3720 C.3       9 GLL5        0.0000 
     75 CA          5.8800   19.7430   35.9670 C.3       6 GLP5        0.0000 
     76 CA          2.1490   24.7125   35.8030 C.3       3 GLC5        0.0000 
     77 CA          2.2280   22.2175   35.1735 C.3       3 GLC5        0.0000 
     78 CA          0.5470   21.0060   34.9750 C.3       6 GLP5        0.0000 
     79 CA          3.5655   22.4645   36.9915 C.3       3 GLC5        0.0000 
     80 CA          3.2220   21.5000   38.6110 C.3       6 GLP5        0.0000 
     81 CA          3.4880   23.6470   31.2405 C.3       3 GLC5        0.0000 
     82 CA          3.9890   22.6860   32.9340 C.3       9 GLL5        0.0000 
     83 CA          4.0230   21.2965   31.8185 C.3       3 GLC5        0.0000 
     84 CA          4.0570   19.9070   30.7030 C.3       6 GLP5        0.0000 
     85 CA          5.2765   21.1125   33.7725 C.3       3 GLC5        0.0000 
     86 CA          6.5640   19.5390   34.6110 C.3       6 GLP5        0.0000 
     87 CA          1.9625   22.9105   32.1495 C.3       3 GLC5        0.0000 
     88 CA          2.2680   21.8460   33.9545 C.3       3 GLC5        0.0000 
     89 CA         11.8645   16.2625   35.9415 C.3       3 GLC5        0.0000 
     90 CA         13.8860   16.8490   35.3700 C.3       9 GLL5        0.0000 
     91 CA          9.8430   15.6760   36.5130 C.3       6 GLP5        0.0000 
     92 CA         13.8995   16.6365   37.4955 C.3       3 GLC5        0.0000 
     93 CA         13.9130   16.4240   39.6210 C.3       6 GLP5        0.0000 
     94 CA         15.3170   18.1245   36.0595 C.3       3 GLC5        0.0000 
     95 CA         16.7480   19.4000   36.7490 C.3       6 GLP5        0.0000 
     96 CA         15.8470   14.3670   35.7085 C.3       3 GLC5        0.0000 
     97 CA         14.4090   15.4420   34.8990 C.3       9 GLL5        0.0000 
     98 CA         17.2850   13.2920   36.5180 C.3       6 GLP5        0.0000 
     99 CA         13.8100   14.5135   32.2165 C.3       3 GLC5        0.0000 
    100 CA         13.5410   14.5040   34.0900 C.3       9 GLL5        0.0000 
    101 CA         14.0790   14.5230   30.3430 C.3       6 GLP5        0.0000 
    102 CA         12.4665   15.4820   32.8130 C.3       3 GLC5        0.0000 
    103 CA         11.3920   16.4600   31.5360 C.3       6 GLP5        0.0000 
    104 CA         15.2095   13.2535   35.6715 C.3       3 GLC5        0.0000 
    105 CA         13.1340   13.2150   34.8250 C.3       9 GLL5        0.0000 
    106 CA         11.4885   14.4455   35.6690 C.3       3 GLC5        0.0000 
    107 CA         12.6045   20.1457   31.9855 C.3       3 GLC5        0.0000 
    108 CA         11.5650   18.8950   30.7400 C.3       6 GLP5        0.0000 
    109 CA         14.7765   21.0063   34.7810 C.3       3 GLC5        0.0000 
    110 CA         15.9090   20.6160   36.3310 C.3       6 GLP5        0.0000 
    111 CA         12.0417   19.5242   32.6260 C.3       3 GLC5        0.0000 
    112 CA         12.3540   20.8370   34.4700 C.3       9 GLL5        0.0000 
    113 CA         11.6022   20.2778   36.1335 C.3       3 GLC5        0.0000 
    114 CA         12.6830   19.4700   34.5540 C.3       9 GLL5        0.0000 
    115 CA         14.2137   20.3848   35.4215 C.3       3 GLC5        0.0000 
    116 CA         15.2120   24.3015   31.4780 C.3       3 GLC5        0.0000 
    117 CA         13.5520   23.9100   32.2580 C.3       9 GLL5        0.0000 
    118 CA         17.1280   24.8750   31.3920 C.3       6 GLP5        0.0000 
    119 CA         12.8365   25.5180   31.1420 C.3       3 GLC5        0.0000 
    120 CA         14.7472   22.1298   35.8835 C.3       3 GLC5        0.0000 
    121 CA         13.8050   23.8180   34.7230 C.3       9 GLL5        0.0000 
    122 CA         15.2052   24.5548   34.7990 C.3       3 GLC5        0.0000 
    123 CA         16.8250   25.4660   34.1620 C.3       6 GLP5        0.0000 
    124 CA         13.6632   25.7233   35.5565 C.3       3 GLC5        0.0000 
    125 CA         10.0292   27.3648   33.0950 C.3       3 GLC5        0.0000 
    126 CA          9.7510   25.4070   34.1160 C.3       9 GLL5        0.0000 
    127 CA         10.5120   28.6620   31.7190 C.3       6 GLP5        0.0000 
    128 CA          8.6966   22.0216   33.6856 C.3       3 GLC5        0.0000 
    129 CA         13.2291   19.0320   31.7756 C.3       3 GLC5        0.0000 
    130 CA         13.7650   18.9160   33.8330 C.3       9 GLL5        0.0000 
    131 CA         15.4011   19.8925   34.5711 C.3       3 GLC5        0.0000 
    132 CA         12.2317   12.4062   33.8047 C.3       3 GLC5        0.0000 
    133 CA         11.1260   10.9530   33.1520 C.3       6 GLP5        0.0000 
@<TRIPOS>BOND
@<TRIPOS>SUBSTRUCTURE
     1 SEC2        4 GROUP        1 X    SEC  0     ROOT SEC X 2
     2 LYC4        1 GROUP        1 X    LYC  0     **** LYC X 4
     3 GLC5       15 GROUP        1 X    GLC  0     **** GLC X 6
     4 SEP2        6 GROUP        1 Y    SEP  0     ROOT SEP Y 9
     5 LYP4        3 GROUP        1 Y    LYP  0     **** LYP Y 11
     6 GLP5       17 GROUP        1 Y    GLP  0     **** GLP Y 13
     7 SEL2        5 GROUP        1 Z    SEL  0     ROOT SEL Z 16
     8 LYL4        2 GROUP        1 Z    LYL  0     **** LYL Z 18
     9 GLL5       16 GROUP        1 Z    GLL  0     **** GLL Z 20
@<TRIPOS>SET

