#    Name: 3az2_DS3_1_ligand
#    Modification time : Mon Mar 24 18:29:23 2014

@<TRIPOS>MOLECULE
3az2_DS3_1_ligand
   78    79     1     0     0
SMALL
NO_CHARGES


@<TRIPOS>ATOM
      1 C1         13.7650   18.9160   33.8330 C.ar      1 DS31        0.0000 
      2 O1         13.6920   12.0530   36.8290 O.co2     1 DS31        0.0000 
      3 C2         14.5380   19.7120   33.0100 C.ar      1 DS31        0.0000 
      4 O2         12.7650   14.3680   37.1700 O.co2     1 DS31        0.0000 
      5 C3         14.1800   21.0940   32.8590 C.ar      1 DS31        0.0000 
      6 C4         13.1080   21.6990   33.6030 C.ar      1 DS31        0.0000 
      7 C5         12.3540   20.8370   34.4700 C.ar      1 DS31        0.0000 
      8 C6         12.6830   19.4700   34.5540 C.ar      1 DS31        0.0000 
      9 C10        12.9200   23.2300   33.5200 C.3       1 DS31        0.0000 
     10 C11        11.4410   23.6930   33.5050 C.ar      1 DS31        0.0000 
     11 C12        13.5520   23.9100   32.2580 C.3       1 DS31        0.0000 
     12 C13        13.8050   23.8180   34.7230 C.3       1 DS31        0.0000 
     13 C14        13.3660   23.4690   36.1490 C.3       1 DS31        0.0000 
     14 C20        13.0400   23.5460   30.8700 C.3       1 DS31        0.0000 
     15 C26        11.0760   24.9030   34.1340 C.ar      1 DS31        0.0000 
     16 C27         9.7510   25.4070   34.1160 C.ar      1 DS31        0.0000 
     17 C28         8.8130   24.6370   33.4150 C.ar      1 DS31        0.0000 
     18 C29         9.1400   23.4220   32.7720 C.ar      1 DS31        0.0000 
     19 C30        10.4520   22.9330   32.8410 C.ar      1 DS31        0.0000 
     20 C34        15.6350   19.0240   32.2010 C.3       1 DS31        0.0000 
     21 C38         9.3420   26.7280   34.8260 C.3       1 DS31        0.0000 
     22 O42         7.5460   25.1450   33.4420 O.3       1 DS31        0.0000 
     23 C43         6.5130   24.1680   33.6530 C.3       1 DS31        0.0000 
     24 C44         5.1900   24.8810   33.6550 C.3       1 DS31        0.0000 
     25 O47         5.1780   25.8400   34.5910 O.3       1 DS31        0.0000 
     26 C48         3.9940   23.8810   33.9020 C.3       1 DS31        0.0000 
     27 C50         2.7600   24.6920   33.4390 C.3       1 DS31        0.0000 
     28 C54         3.9090   23.4290   35.3720 C.3       1 DS31        0.0000 
     29 C58         3.9890   22.6860   32.9340 C.3       1 DS31        0.0000 
     30 O62        13.9140   17.5630   34.1100 O.3       1 DS31        0.0000 
     31 C63        13.8860   16.8490   35.3700 C.3       1 DS31        0.0000 
     32 C64        14.4090   15.4420   34.8990 C.3       1 DS31        0.0000 
     33 C65        13.5410   14.5040   34.0900 C.3       1 DS31        0.0000 
     34 C66        13.1340   13.2150   34.8250 C.3       1 DS31        0.0000 
     35 C67        13.1610   13.2790   36.3470 C.2       1 DS31        0.0000 
     36 H          14.7101   21.6751   32.1931 H         1 DS31        0.0000 
     37 H          11.5891   21.2235   35.0151 H         1 DS31        0.0000 
     38 H          12.1169   18.8513   35.1611 H         1 DS31        0.0000 
     39 H          14.6604   23.7213   32.2980 H         1 DS31        0.0000 
     40 H          13.4618   25.0225   32.3989 H         1 DS31        0.0000 
     41 H          13.8256   24.9193   34.5981 H         1 DS31        0.0000 
     42 H          14.8443   23.4700   34.5571 H         1 DS31        0.0000 
     43 H          11.8075   25.4491   34.6318 H         1 DS31        0.0000 
     44 H           8.4221   22.9075   32.2619 H         1 DS31        0.0000 
     45 H          10.6950   22.0391   32.4182 H         1 DS31        0.0000 
     46 H           6.6371   23.6595   34.6098 H         1 DS31        0.0000 
     47 H           6.5056   23.4204   32.8589 H         1 DS31        0.0000 
     48 H           5.0266   25.2824   32.6437 H         1 DS31        0.0000 
     49 H          12.9109   16.7175   35.7410 H         1 DS31        0.0000 
     50 H          14.5764   17.2275   36.0670 H         1 DS31        0.0000 
     51 H          14.7666   14.9006   35.8303 H         1 DS31        0.0000 
     52 H          15.3755   15.6279   34.3336 H         1 DS31        0.0000 
     53 H          14.0713   14.2225   33.1616 H         1 DS31        0.0000 
     54 H          12.6210   15.0324   33.7787 H         1 DS31        0.0000 
     55 H          13.8011   12.3941   34.4868 H         1 DS31        0.0000 
     56 H          12.1125   12.9314   34.4942 H         1 DS31        0.0000 
     57 H          13.3661   22.4815   36.3064 H         1 DS31        0.0000 
     58 H          13.9712   23.8750   36.8338 H         1 DS31        0.0000 
     59 H          12.4415   23.7968   36.3437 H         1 DS31        0.0000 
     60 H          13.5239   24.0469   30.1525 H         1 DS31        0.0000 
     61 H          13.1545   22.5718   30.6756 H         1 DS31        0.0000 
     62 H          12.0671   23.7531   30.7669 H         1 DS31        0.0000 
     63 H          16.1414   19.6738   31.6341 H         1 DS31        0.0000 
     64 H          16.3014   18.5685   32.7912 H         1 DS31        0.0000 
     65 H          15.2627   18.3277   31.5874 H         1 DS31        0.0000 
     66 H           9.5175   26.6906   35.8098 H         1 DS31        0.0000 
     67 H           9.8464   27.5137   34.4679 H         1 DS31        0.0000 
     68 H           8.3689   26.9265   34.7092 H         1 DS31        0.0000 
     69 H           2.7226   25.5919   33.8736 H         1 DS31        0.0000 
     70 H           2.7649   24.8438   32.4506 H         1 DS31        0.0000 
     71 H           1.9041   24.2242   33.6595 H         1 DS31        0.0000 
     72 H           4.7421   22.9599   35.6651 H         1 DS31        0.0000 
     73 H           3.7749   24.2026   35.9913 H         1 DS31        0.0000 
     74 H           3.1485   22.7975   35.5230 H         1 DS31        0.0000 
     75 H           4.8242   22.1415   33.0118 H         1 DS31        0.0000 
     76 H           3.2204   22.0703   33.1080 H         1 DS31        0.0000 
     77 H           3.9188   22.9804   31.9809 H         1 DS31        0.0000 
     78 H           4.2450   26.1996   34.5809 H         1 DS31        0.0000 
@<TRIPOS>BOND
     1    3    1 ar   
     2    8    1 ar   
     3   30    1 1    
     4   35    2 ar   
     5    5    3 ar   
     6   20    3 1    
     7   35    4 ar   
     8    6    5 ar   
     9   36    5 1    
    10    7    6 ar   
    11    9    6 1    
    12    8    7 ar   
    13   37    7 1    
    14   38    8 1    
    15   10    9 1    
    16   11    9 1    
    17   12    9 1    
    18   15   10 ar   
    19   19   10 ar   
    20   14   11 1    
    21   39   11 1    
    22   40   11 1    
    23   13   12 1    
    24   41   12 1    
    25   42   12 1    
    26   57   13 1    
    27   58   13 1    
    28   59   13 1    
    29   60   14 1    
    30   61   14 1    
    31   62   14 1    
    32   16   15 ar   
    33   43   15 1    
    34   17   16 ar   
    35   21   16 1    
    36   18   17 ar   
    37   22   17 1    
    38   19   18 ar   
    39   44   18 1    
    40   45   19 1    
    41   63   20 1    
    42   64   20 1    
    43   65   20 1    
    44   66   21 1    
    45   67   21 1    
    46   68   21 1    
    47   23   22 1    
    48   24   23 1    
    49   46   23 1    
    50   47   23 1    
    51   25   24 1    
    52   26   24 1    
    53   48   24 1    
    54   78   25 1    
    55   27   26 1    
    56   28   26 1    
    57   29   26 1    
    58   69   27 1    
    59   70   27 1    
    60   71   27 1    
    61   72   28 1    
    62   73   28 1    
    63   74   28 1    
    64   75   29 1    
    65   76   29 1    
    66   77   29 1    
    67   31   30 1    
    68   32   31 1    
    69   49   31 1    
    70   50   31 1    
    71   33   32 1    
    72   51   32 1    
    73   52   32 1    
    74   34   33 1    
    75   53   33 1    
    76   54   33 1    
    77   35   34 1    
    78   55   34 1    
    79   56   34 1    
@<TRIPOS>SUBSTRUCTURE
     1 DS31        1 GROUP   
@<TRIPOS>SET

