#    Name: 3W2Z_1_CAVITY_N1_ALL.mol2
#    Modification time : Tue Mar 11 12:39:05 2014

@<TRIPOS>MOLECULE
3W2Z_1_CAVITY_N1_ALL.mol2
   94     0     6     0     0
SMALL
NO_CHARGES


@<TRIPOS>ATOM
      1 CZ         -1.3474   39.2699    1.6884 C.ar      4 PHE5        0.0000 
      2 N           2.2633   39.0086    2.3165 N.2       2 ALA2        0.0000 
      3 O           0.2757   38.4029    2.7437 O.2       2 ALA2        0.0000 
      4 DU         -0.8682   37.8698    1.9329 H         6 CUB7        0.0000 
      5 O          -2.0120   37.3366    1.1221 O.2       2 ALA2        0.0000 
      6 CA         -2.8557   37.2640    2.3602 C.3       5 GLY6        0.0000 
      7 N           2.7426   37.6085    2.5609 N.2       2 ALA2        0.0000 
      8 O           1.5987   37.0753    1.7501 O.2       2 ALA2        0.0000 
      9 O           0.7550   37.0027    2.9882 O.2       2 ALA2        0.0000 
     10 DU          0.4549   36.5422    0.9393 H         6 CUB7        0.0000 
     11 DU         -0.3889   36.4696    2.1774 H         6 CUB7        0.0000 
     12 O          -1.2326   36.3969    3.4154 O.2       2 ALA2        0.0000 
     13 N          -0.6890   36.0091    0.1285 N.2       2 ALA2        0.0000 
     14 CA         -1.5327   35.9365    1.3666 C.3       5 GLY6        0.0000 
     15 CA         -2.3764   35.8638    2.6046 C.3       5 GLY6        0.0000 
     16 O          -3.2202   35.7912    3.8427 O.2       2 ALA2        0.0000 
     17 O           3.2219   36.2083    2.8054 O.2       2 ALA2        0.0000 
     18 O           2.9218   35.7478    0.7565 O.2       2 ALA2        0.0000 
     19 O           2.0780   35.6752    1.9946 O.2       2 ALA2        0.0000 
     20 O           1.2343   35.6025    3.2327 O.2       2 ALA2        0.0000 
     21 O           1.7779   35.2147   -0.0543 O.2       2 ALA2        0.0000 
     22 O           0.9342   35.1420    1.1838 O.2       2 ALA2        0.0000 
     23 DU          0.0904   35.0694    2.4219 H         6 CUB7        0.0000 
     24 O          -0.7533   34.9968    3.6599 O.2       2 ALA2        0.0000 
     25 O           0.6341   34.6816   -0.8651 O.2       2 ALA2        0.0000 
     26 N          -0.2097   34.6089    0.3730 N.2       2 ALA2        0.0000 
     27 N          -1.0534   34.5363    1.6111 N.2       2 ALA2        0.0000 
     28 CA         -1.8972   34.4636    2.8491 C.3       5 GLY6        0.0000 
     29 O          -2.7409   34.3910    4.0872 O.2       2 ALA2        0.0000 
     30 N          -0.5098   34.1485   -1.6759 N.2       2 ALA2        0.0000 
     31 NZ         -3.8847   33.8579    3.2764 N.2       3 LYS4        0.0000 
     32 CZ          2.5573   34.2750    2.2391 C.ar      4 PHE5        0.0000 
     33 CZ          1.7136   34.2023    3.4772 C.ar      4 PHE5        0.0000 
     34 O           1.4135   33.7419    1.4283 O.2       2 ALA2        0.0000 
     35 CZ          0.5697   33.6692    2.6663 C.ar      4 PHE5        0.0000 
     36 N          -0.2740   33.5966    3.9044 N.2       2 ALA2        0.0000 
     37 N           0.2696   33.2088    0.6175 N.2       2 ALA2        0.0000 
     38 N          -0.5741   33.1361    1.8555 N.2       2 ALA2        0.0000 
     39 CA         -1.4179   33.0635    3.0936 C.3       5 GLY6        0.0000 
     40 N          -2.2616   32.9908    4.3317 N.2       2 ALA2        0.0000 
     41 NZ         -3.1054   32.9182    5.5697 N.2       3 LYS4        0.0000 
     42 O          -0.0305   32.7483   -1.4314 O.2       2 ALA2        0.0000 
     43 N          -0.8742   32.6756   -0.1933 N.2       2 ALA2        0.0000 
     44 N          -1.7180   32.6030    1.0447 N.2       2 ALA2        0.0000 
     45 CA         -2.5617   32.5303    2.2828 C.3       5 GLY6        0.0000 
     46 CA         -3.4055   32.4577    3.5209 C.3       5 GLY6        0.0000 
     47 OG          0.5054   32.6569    6.1978 O.2       1 SER1        0.0000 
     48 CZ          1.8928   32.3417    1.6728 C.ar      4 PHE5        0.0000 
     49 OG          1.0490   32.2690    2.9108 O.2       1 SER1        0.0000 
     50 OG          0.2053   32.1964    4.1489 O.2       1 SER1        0.0000 
     51 N          -0.6385   32.1238    5.3870 N.2       2 ALA2        0.0000 
     52 N          -1.4822   32.0511    6.6250 N.2       2 ALA2        0.0000 
     53 CZ         -2.3260   31.9785    7.8631 C.ar      4 PHE5        0.0000 
     54 O           0.7489   31.8086    0.8619 O.2       2 ALA2        0.0000 
     55 CZ         -0.0948   31.7359    2.1000 C.ar      4 PHE5        0.0000 
     56 CZ         -0.9386   31.6633    3.3381 C.ar      4 PHE5        0.0000 
     57 DU         -1.7823   31.5906    4.5762 H         6 CUB7        0.0000 
     58 N          -2.6261   31.5180    5.8142 N.2       2 ALA2        0.0000 
     59 CZ         -3.4698   31.4453    7.0523 C.ar      4 PHE5        0.0000 
     60 CZ         -1.2387   31.2028    1.2892 C.ar      4 PHE5        0.0000 
     61 CA         -2.0824   31.1302    2.5273 C.3       5 GLY6        0.0000 
     62 CA         -2.9262   31.0575    3.7653 C.3       5 GLY6        0.0000 
     63 CA         -3.7699   30.9849    5.0034 C.3       5 GLY6        0.0000 
     64 CA         -4.6137   30.9122    6.2415 C.3       5 GLY6        0.0000 
     65 CA          0.9847   31.2567    6.4423 C.3       5 GLY6        0.0000 
     66 CA          0.1409   31.1840    7.6803 C.3       5 GLY6        0.0000 
     67 CZ         -0.7028   31.1114    8.9184 C.ar      4 PHE5        0.0000 
     68 OG          0.6846   30.7962    4.3934 O.2       1 SER1        0.0000 
     69 CA         -0.1592   30.7236    5.6314 C.3       5 GLY6        0.0000 
     70 CA         -1.0029   30.6509    6.8695 C.3       5 GLY6        0.0000 
     71 CZ         -1.8467   30.5783    8.1076 C.ar      4 PHE5        0.0000 
     72 OG         -0.4593   30.2631    3.5826 O.2       1 SER1        0.0000 
     73 CA         -1.3030   30.1905    4.8206 C.3       5 GLY6        0.0000 
     74 CA         -2.1468   30.1178    6.0587 C.3       5 GLY6        0.0000 
     75 CZ         -2.9905   30.0452    7.2968 C.ar      4 PHE5        0.0000 
     76 CA         -2.4469   29.6573    4.0098 C.3       5 GLY6        0.0000 
     77 CA         -3.2906   29.5847    5.2479 C.3       5 GLY6        0.0000 
     78 CA         -4.1344   29.5120    6.4860 C.3       5 GLY6        0.0000 
     79 CZ         -4.9781   29.4394    7.7240 C.ar      4 PHE5        0.0000 
     80 CA         -1.3674   29.1781    8.3521 C.3       5 GLY6        0.0000 
     81 CA         -1.6675   28.7176    6.3032 C.3       5 GLY6        0.0000 
     82 CZ         -2.5112   28.6450    7.5412 C.ar      4 PHE5        0.0000 
     83 CZ         -3.3550   28.5723    8.7793 C.ar      4 PHE5        0.0000 
     84 CA         -2.8113   28.1845    5.4924 C.3       5 GLY6        0.0000 
     85 CA         -3.6551   28.1119    6.7304 C.3       5 GLY6        0.0000 
     86 CZ         -4.4988   28.0392    7.9685 C.ar      4 PHE5        0.0000 
     87 CA         -1.1882   27.3174    6.5477 C.3       5 GLY6        0.0000 
     88 OG         -2.0319   27.2448    7.7857 O.2       1 SER1        0.0000 
     89 OG         -2.8757   27.1722    9.0238 O.2       1 SER1        0.0000 
     90 CA         -3.1758   26.7117    6.9749 C.3       5 GLY6        0.0000 
     91 CZ         -4.0195   26.6390    8.2130 C.ar      4 PHE5        0.0000 
     92 OG         -1.5526   25.8446    8.0302 O.2       1 SER1        0.0000 
     93 OG         -2.3964   25.7720    9.2683 O.2       1 SER1        0.0000 
     94 CA         -2.6965   25.3115    7.2194 C.3       5 GLY6        0.0000 
@<TRIPOS>BOND
@<TRIPOS>SUBSTRUCTURE
     1 SER1       47 GROUP   
     2 ALA2        2 GROUP   
     3 LYS4       31 GROUP   
     4 PHE5        1 GROUP   
     5 GLY6        6 GROUP   
     6 CUB7        4 GROUP   
@<TRIPOS>SET

