#    Name: 3w2z_CYC_1_INTS_M
#    Modification time : Tue Mar 25 02:08:32 2014

@<TRIPOS>MOLECULE
3w2z_CYC_1_INTS_M
  116     0    12     0     0
SMALL
NO_CHARGES


@<TRIPOS>ATOM
      1 CA         -3.6405   30.7065    3.9560 C.3       4 GLC5        0.0000 
      2 CA         -1.9110   31.8990    4.5070 C.3      12 GLL5        0.0000 
      3 CA         -5.3700   29.5140    3.4050 C.3       8 GLP5        0.0000 
      4 CA         -0.7215   29.6765    2.7300 C.3       4 GLC5        0.0000 
      5 CA         -1.0950   30.5910    4.3860 C.3      12 GLL5        0.0000 
      6 CA         -0.3480   28.7620    1.0740 C.3       8 GLP5        0.0000 
      7 CA          0.1030   29.5775    5.2940 C.3       4 GLC5        0.0000 
      8 CA          1.3010   28.5640    6.2020 C.3       8 GLP5        0.0000 
      9 CA          2.5880   32.9285    2.9865 C.3       4 GLC5        0.0000 
     10 CA          0.7770   33.1680    2.8860 C.3      12 GLL5        0.0000 
     11 CA          4.3990   32.6890    3.0870 C.3       8 GLP5        0.0000 
     12 NZ          2.2145   31.5960   -0.1170 N.4       3 LYC4        0.0000 
     13 NZ          1.3680   31.7440    1.0190 N.4      11 LYL4        0.0000 
     14 NZ          3.5810   32.5280   -1.8490 N.4       7 LYP4        0.0000 
     15 N           2.2145   31.5960   -0.1170 N.am      2 SEC2        0.0000 
     16 N           1.3680   31.7440    1.0190 N.am     10 SEL2        0.0000 
     17 N           3.0610   31.4480   -1.2530 N.am      6 SEP2        0.0000 
     18 NZ          2.7010   33.8315   -0.1585 N.4       3 LYC4        0.0000 
     19 NZ          1.9640   33.9250    0.9930 N.4      11 LYL4        0.0000 
     20 N           2.7010   33.8315   -0.1585 N.am      2 SEC2        0.0000 
     21 N           1.9640   33.9250    0.9930 N.am     10 SEL2        0.0000 
     22 N           3.4380   33.7380   -1.3100 N.am      6 SEP2        0.0000 
     23 CA         -3.8310   31.8595    8.0270 C.3       4 GLC5        0.0000 
     24 CA         -3.5150   31.2370    6.2980 C.3      12 GLL5        0.0000 
     25 CA         -4.1470   32.4820    9.7560 C.3       8 GLP5        0.0000 
     26 CA         -5.5310   31.7955    5.9190 C.3       4 GLC5        0.0000 
     27 CA         -7.5470   32.3540    5.5400 C.3       8 GLP5        0.0000 
     28 CA         -3.0590   30.9560    8.6955 C.3       4 GLC5        0.0000 
     29 CA         -2.9350   30.2200    7.0530 C.3      12 GLL5        0.0000 
     30 CA         -3.1830   31.6920   10.3380 C.3       8 GLP5        0.0000 
     31 CA         -4.2600   29.5095    9.1250 C.3       4 GLC5        0.0000 
     32 CA         -3.7110   29.1160    7.4680 C.3      12 GLL5        0.0000 
     33 CA         -4.8090   29.9030   10.7820 C.3       8 GLP5        0.0000 
     34 CA         -3.1895   29.3460    9.5375 C.3       4 GLC5        0.0000 
     35 CA         -2.8850   28.2820    8.2250 C.3      12 GLL5        0.0000 
     36 CA         -3.4940   30.4100   10.8500 C.3       8 GLP5        0.0000 
     37 CA         -6.3530   27.5550    7.1115 C.3       4 GLC5        0.0000 
     38 CA         -5.0740   28.8790    7.1560 C.3      12 GLL5        0.0000 
     39 CA         -7.6320   26.2310    7.0670 C.3       8 GLP5        0.0000 
     40 CA         -5.4405   29.7930    8.6815 C.3       4 GLC5        0.0000 
     41 CA         -5.8070   30.7070   10.2070 C.3       8 GLP5        0.0000 
     42 CA         -4.8785   25.8890    8.7940 C.3       4 GLC5        0.0000 
     43 CA         -3.2260   26.9250    8.8850 C.3      12 GLL5        0.0000 
     44 CA         -6.5310   24.8530    8.7030 C.3       8 GLP5        0.0000 
     45 CA         -3.6175   26.4700   10.5530 C.3       4 GLC5        0.0000 
     46 CA         -4.0090   26.0150   12.2210 C.3       8 GLP5        0.0000 
     47 CA         -4.0175   28.4140    9.8335 C.3       4 GLC5        0.0000 
     48 CA         -3.6660   24.4465    8.0800 C.3       4 GLC5        0.0000 
     49 CA         -2.4970   25.7920    8.1450 C.3      12 GLL5        0.0000 
     50 CA         -4.8350   23.1010    8.0150 C.3       8 GLP5        0.0000 
     51 CA         -3.0360   25.2670    9.9790 C.3       4 GLC5        0.0000 
     52 CA         -3.5750   24.7420   11.8130 C.3       8 GLP5        0.0000 
     53 CA         -2.7735   25.8585    6.1660 C.3       4 GLC5        0.0000 
     54 CA         -3.0500   25.9250    4.1870 C.3       8 GLP5        0.0000 
     55 CA         -0.5390   25.1020    8.5580 C.3       4 GLC5        0.0000 
     56 CA          1.4190   24.4120    8.9710 C.3       8 GLP5        0.0000 
     57 N          -0.5350   27.5655    9.7420 N.am      2 SEC2        0.0000 
     58 N          -0.6380   28.5340    8.8510 N.am     10 SEL2        0.0000 
     59 N          -0.4320   26.5970   10.6330 N.am      6 SEP2        0.0000 
     60 O          -6.3965   35.1470    6.5370 O.2       1 ALC1        0.0000 
     61 O          -6.9460   36.3240    7.0570 O.2       9 ALL1        0.0000 
     62 O          -5.8470   33.9700    6.0170 O.2       5 ALP1        0.0000 
     63 CA         -7.8625   36.5545    9.7200 C.3       4 GLC5        0.0000 
     64 CA         -8.8890   37.3020    8.0740 C.3      12 GLL5        0.0000 
     65 CA         -6.8360   35.8070   11.3660 C.3       8 GLP5        0.0000 
     66 CA         -9.7610   37.4545    5.1695 C.3       4 GLC5        0.0000 
     67 CA         -8.4770   38.1370    6.8720 C.3      12 GLL5        0.0000 
     68 CA        -11.0450   36.7720    3.4670 C.3       8 GLP5        0.0000 
     69 CA        -11.2515   36.6775    6.1560 C.3       4 GLC5        0.0000 
     70 CA        -10.3100   36.7420    7.8940 C.3      12 GLL5        0.0000 
     71 CA        -12.1930   36.6130    4.4180 C.3       8 GLP5        0.0000 
     72 N          -7.2060   33.8990    9.0055 N.am      2 SEC2        0.0000 
     73 N          -7.8170   35.2450    8.8230 N.am     10 SEL2        0.0000 
     74 N          -6.5950   32.5530    9.1880 N.am      6 SEP2        0.0000 
     75 O          -5.2870   35.1145    5.3595 O.2       1 ALC1        0.0000 
     76 O          -4.7270   36.2590    4.7020 O.2       9 ALL1        0.0000 
     77 CA         -4.0355   37.6280    6.3475 C.3       4 GLC5        0.0000 
     78 CA         -5.3780   37.4410    4.6220 C.3      12 GLL5        0.0000 
     79 CA         -2.6930   37.8150    8.0730 C.3       8 GLP5        0.0000 
     80 CA         -5.4950   37.7275    2.2680 C.3       4 GLC5        0.0000 
     81 CA         -5.1220   39.6480    3.2330 C.3      12 GLL5        0.0000 
     82 CA         -5.8680   35.8070    1.3030 C.3       8 GLP5        0.0000 
     83 CA         -4.7430   41.3265    3.7215 C.3       4 GLC5        0.0000 
     84 CA         -4.3640   43.0050    4.2100 C.3       8 GLP5        0.0000 
     85 CA         -3.7310   36.5815    1.2365 C.3       4 GLC5        0.0000 
     86 CA         -2.6660   37.9280    2.0650 C.3      12 GLL5        0.0000 
     87 CA         -4.7960   35.2350    0.4080 C.3       8 GLP5        0.0000 
     88 CA         -1.9100   40.6690    3.1095 C.3       4 GLC5        0.0000 
     89 CA         -1.7080   38.9720    2.5970 C.3      12 GLL5        0.0000 
     90 CA         -2.1120   42.3660    3.6220 C.3       8 GLP5        0.0000 
     91 N          -0.9065   39.8875    5.4865 N.am      2 SEC2        0.0000 
     92 N          -1.1610   38.6910    4.8680 N.am     10 SEL2        0.0000 
     93 N          -0.6520   41.0840    6.1050 N.am      6 SEP2        0.0000 
     94 N          -1.2115   37.5100    5.7455 N.am      2 SEC2        0.0000 
     95 N          -1.2620   36.3290    6.6230 N.am      6 SEP2        0.0000 
     96 N           0.9645   37.2795    4.4380 N.am      2 SEC2        0.0000 
     97 N           0.0840   37.6150    3.3640 N.am     10 SEL2        0.0000 
     98 N           1.8450   36.9440    5.5120 N.am      6 SEP2        0.0000 
     99 CA         -3.3060   34.4128    2.2227 C.3       4 GLC5        0.0000 
    100 CA         -2.7100   35.2550    3.5460 C.3      12 GLL5        0.0000 
    101 CA         -3.9270   34.2090    0.6000 C.3       8 GLP5        0.0000 
    102 CA         -2.5617   33.6815    1.8802 C.3       4 GLC5        0.0000 
    103 CA         -1.7040   33.0430    3.7340 C.3      12 GLL5        0.0000 
    104 CA         -4.2975   30.1212    5.0403 C.3       4 GLC5        0.0000 
    105 CA         -4.8812   29.2557    5.3585 C.3       4 GLC5        0.0000 
    106 CA         -7.5720   39.0382    7.7435 C.3       4 GLC5        0.0000 
    107 CA         -6.4610   40.3570    8.0140 C.3       8 GLP5        0.0000 
    108 CA         -6.6543   39.0325    6.9060 C.3       4 GLC5        0.0000 
    109 CA         -7.1840   37.4350    6.3460 C.3      12 GLL5        0.0000 
    110 CA         -7.5265   40.2107    7.2855 C.3       4 GLC5        0.0000 
    111 CA         -8.3400   39.6490    7.1500 C.3      12 GLL5        0.0000 
    112 CA         -2.6103   35.9646    5.7961 C.3       4 GLC5        0.0000 
    113 CA         -3.6860   36.2340    3.8330 C.3      12 GLL5        0.0000 
    114 CA         -2.0350   36.5040    7.7530 C.3       8 GLP5        0.0000 
    115 CA         -5.1136   36.5743    2.5596 C.3       4 GLC5        0.0000 
    116 CA         -3.6510   37.4780    3.1540 C.3      12 GLL5        0.0000 
@<TRIPOS>BOND
@<TRIPOS>SUBSTRUCTURE
     1 ALC1       60 GROUP        1 X    ALC  0     ROOT ALC X 1
     2 SEC2       15 GROUP        1 X    SEC  0     **** SEC X 2
     3 LYC4       12 GROUP        1 X    LYC  0     **** LYC X 4
     4 GLC5        1 GROUP        1 X    GLC  0     **** GLC X 6
     5 ALP1       62 GROUP        1 Y    ALP  0     ROOT ALP Y 8
     6 SEP2       17 GROUP        1 Y    SEP  0     **** SEP Y 9
     7 LYP4       14 GROUP        1 Y    LYP  0     **** LYP Y 11
     8 GLP5        3 GROUP        1 Y    GLP  0     **** GLP Y 13
     9 ALL1       61 GROUP        1 Z    ALL  0     ROOT ALL Z 15
    10 SEL2       16 GROUP        1 Z    SEL  0     **** SEL Z 16
    11 LYL4       13 GROUP        1 Z    LYL  0     **** LYL Z 18
    12 GLL5        2 GROUP        1 Z    GLL  0     **** GLL Z 20
@<TRIPOS>SET

