#    Name: 3w2z_CYC_1_ligand
#    Modification time : Tue Mar 25 02:08:32 2014

@<TRIPOS>MOLECULE
3w2z_CYC_1_ligand
   81    84     1     0     0
SMALL
NO_CHARGES


@<TRIPOS>ATOM
      1 CHA        -2.7100   35.2550    3.5460 C.2       1 CYC201      0.0000 
      2 NA         -3.3710   33.4230    5.1460 N.2       1 CYC201      0.0000 
      3 C1A        -2.6600   33.9780    4.1450 C.2       1 CYC201      0.0000 
      4 C2A        -1.7040   33.0430    3.7340 C.2       1 CYC201      0.0000 
      5 C3A        -1.9110   31.8990    4.5070 C.2       1 CYC201      0.0000 
      6 C4A        -2.9660   32.1600    5.3950 C.2       1 CYC201      0.0000 
      7 CMA        -1.0950   30.5910    4.3860 C.3       1 CYC201      0.0000 
      8 CAA        -0.6890   33.2650    2.5870 C.3       1 CYC201      0.0000 
      9 CBA         0.7770   33.1680    2.8860 C.3       1 CYC201      0.0000 
     10 CGA         1.4320   32.9150    1.5160 C.2       1 CYC201      0.0000 
     11 O1A         1.3680   31.7440    1.0190 O.co2     1 CYC201      0.0000 
     12 O2A         1.9640   33.9250    0.9930 O.co2     1 CYC201      0.0000 
     13 CHB        -3.5150   31.2370    6.2980 C.2       1 CYC201      0.0000 
     14 NB         -1.6980   30.0710    7.5350 N.am      1 CYC201      0.0000 
     15 C1B        -2.9350   30.2200    7.0530 C.2       1 CYC201      0.0000 
     16 C2B        -3.7110   29.1160    7.4680 C.2       1 CYC201      0.0000 
     17 C3B        -2.8850   28.2820    8.2250 C.2       1 CYC201      0.0000 
     18 C4B        -1.6420   28.9350    8.2500 C.2       1 CYC201      0.0000 
     19 CMB        -5.0740   28.8790    7.1560 C.3       1 CYC201      0.0000 
     20 CAB        -3.2260   26.9250    8.8850 C.3       1 CYC201      0.0000 
     21 CBB        -2.4970   25.7920    8.1450 C.3       1 CYC201      0.0000 
     22 OB         -0.6380   28.5340    8.8510 O.2       1 CYC201      0.0000 
     23 NC         -6.9460   36.3240    7.0570 N.am      1 CYC201      0.0000 
     24 C1C        -7.8440   36.1810    8.0320 C.2       1 CYC201      0.0000 
     25 C2C        -8.8890   37.3020    8.0740 C.3       1 CYC201      0.0000 
     26 C3C        -8.4770   38.1370    6.8720 C.3       1 CYC201      0.0000 
     27 C4C        -7.1840   37.4350    6.3460 C.2       1 CYC201      0.0000 
     28 CMC       -10.3100   36.7420    7.8940 C.3       1 CYC201      0.0000 
     29 CAC        -8.3400   39.6490    7.1500 C.3       1 CYC201      0.0000 
     30 CBC        -8.8440   40.4800    5.9640 C.3       1 CYC201      0.0000 
     31 OC         -7.8170   35.2450    8.8230 O.2       1 CYC201      0.0000 
     32 CHD        -6.5110   37.9810    5.2500 C.2       1 CYC201      0.0000 
     33 ND         -4.7270   36.2590    4.7020 N.pl3     1 CYC201      0.0000 
     34 C1D        -5.3780   37.4410    4.6220 C.2       1 CYC201      0.0000 
     35 C2D        -4.7220   38.2130    3.6560 C.2       1 CYC201      0.0000 
     36 C3D        -3.6510   37.4780    3.1540 C.2       1 CYC201      0.0000 
     37 C4D        -3.6860   36.2340    3.8330 C.2       1 CYC201      0.0000 
     38 CMD        -5.1220   39.6480    3.2330 C.3       1 CYC201      0.0000 
     39 CAD        -2.6660   37.9280    2.0650 C.3       1 CYC201      0.0000 
     40 CBD        -1.7080   38.9720    2.5970 C.3       1 CYC201      0.0000 
     41 CGD        -0.8550   38.3770    3.7040 C.2       1 CYC201      0.0000 
     42 O1D        -1.1610   38.6910    4.8680 O.co2     1 CYC201      0.0000 
     43 O2D         0.0840   37.6150    3.3640 O.co2     1 CYC201      0.0000 
     44 H          -1.9690   35.4941    2.8367 H         1 CYC201      0.0000 
     45 H          -0.9088   34.2728    2.1346 H         1 CYC201      0.0000 
     46 H          -0.9480   32.5403    1.7646 H         1 CYC201      0.0000 
     47 H           0.9765   32.3397    3.5246 H         1 CYC201      0.0000 
     48 H           1.1418   34.0871    3.2810 H         1 CYC201      0.0000 
     49 H          -4.6130   31.3384    6.4334 H         1 CYC201      0.0000 
     50 H          -0.9552   30.6833    7.3937 H         1 CYC201      0.0000 
     51 H          -4.2931   26.7635    8.8287 H         1 CYC201      0.0000 
     52 H          -2.9067   26.9445    9.9173 H         1 CYC201      0.0000 
     53 H          -6.2043   35.6982    6.8794 H         1 CYC201      0.0000 
     54 H          -8.7830   37.8502    8.9450 H         1 CYC201      0.0000 
     55 H          -9.2415   37.9772    6.0956 H         1 CYC201      0.0000 
     56 H          -7.2927   39.8809    7.3333 H         1 CYC201      0.0000 
     57 H          -8.9189   39.8989    8.0370 H         1 CYC201      0.0000 
     58 H          -6.8931   38.8958    4.8506 H         1 CYC201      0.0000 
     59 H          -4.9697   35.5260    5.2995 H         1 CYC201      0.0000 
     60 H          -3.2308   38.3396    1.2281 H         1 CYC201      0.0000 
     61 H          -2.1067   37.0596    1.7159 H         1 CYC201      0.0000 
     62 H          -2.2707   39.8157    2.9900 H         1 CYC201      0.0000 
     63 H          -1.0633   39.3182    1.7923 H         1 CYC201      0.0000 
     64 H          -0.1230   30.7417    4.5661 H         1 CYC201      0.0000 
     65 H          -1.4088   29.8963    5.0332 H         1 CYC201      0.0000 
     66 H          -1.1653   30.1927    3.4715 H         1 CYC201      0.0000 
     67 H          -5.2223   28.8080    6.1696 H         1 CYC201      0.0000 
     68 H          -5.4060   28.0287    7.5643 H         1 CYC201      0.0000 
     69 H          -5.6645   29.6142    7.4890 H         1 CYC201      0.0000 
     70 H          -1.5045   25.9122    8.1672 H         1 CYC201      0.0000 
     71 H          -2.6931   24.8983    8.5486 H         1 CYC201      0.0000 
     72 H          -2.7650   25.7442    7.1828 H         1 CYC201      0.0000 
     73 H         -10.4137   36.2659    7.0208 H         1 CYC201      0.0000 
     74 H         -10.5458   36.0890    8.6137 H         1 CYC201      0.0000 
     75 H         -11.0000   37.4655    7.9171 H         1 CYC201      0.0000 
     76 H          -8.7576   41.4615    6.1349 H         1 CYC201      0.0000 
     77 H          -8.3327   40.2819    5.1278 H         1 CYC201      0.0000 
     78 H          -9.8079   40.3004    5.7676 H         1 CYC201      0.0000 
     79 H          -5.0839   40.2861    4.0020 H         1 CYC201      0.0000 
     80 H          -4.5169   40.0082    2.5230 H         1 CYC201      0.0000 
     81 H          -6.0530   39.6822    2.8696 H         1 CYC201      0.0000 
@<TRIPOS>BOND
     1    3    1 2    
     2   37    1 1    
     3   44    1 1    
     4    3    2 1    
     5    6    2 2    
     6    4    3 1    
     7    5    4 2    
     8    8    4 1    
     9    6    5 1    
    10    7    5 1    
    11   13    6 1    
    12   64    7 1    
    13   65    7 1    
    14   66    7 1    
    15    9    8 1    
    16   45    8 1    
    17   46    8 1    
    18   10    9 1    
    19   47    9 1    
    20   48    9 1    
    21   11   10 ar   
    22   12   10 ar   
    23   15   13 2    
    24   49   13 1    
    25   15   14 1    
    26   18   14 am   
    27   50   14 1    
    28   16   15 1    
    29   17   16 2    
    30   19   16 1    
    31   18   17 1    
    32   20   17 1    
    33   22   18 2    
    34   67   19 1    
    35   68   19 1    
    36   69   19 1    
    37   21   20 1    
    38   51   20 1    
    39   52   20 1    
    40   70   21 1    
    41   71   21 1    
    42   72   21 1    
    43   24   23 am   
    44   27   23 1    
    45   53   23 1    
    46   25   24 1    
    47   31   24 2    
    48   26   25 1    
    49   28   25 1    
    50   54   25 1    
    51   27   26 1    
    52   29   26 1    
    53   55   26 1    
    54   32   27 2    
    55   73   28 1    
    56   74   28 1    
    57   75   28 1    
    58   30   29 1    
    59   56   29 1    
    60   57   29 1    
    61   76   30 1    
    62   77   30 1    
    63   78   30 1    
    64   34   32 1    
    65   58   32 1    
    66   34   33 1    
    67   37   33 1    
    68   59   33 1    
    69   35   34 2    
    70   36   35 1    
    71   38   35 1    
    72   37   36 2    
    73   39   36 1    
    74   79   38 1    
    75   80   38 1    
    76   81   38 1    
    77   40   39 1    
    78   60   39 1    
    79   61   39 1    
    80   41   40 1    
    81   62   40 1    
    82   63   40 1    
    83   42   41 ar   
    84   43   41 ar   
@<TRIPOS>SUBSTRUCTURE
     1 CYC201      1 GROUP   
@<TRIPOS>SET

