#    Name: 3gki_CLR_1_INTS_M
#    Modification time : Tue Mar 25 12:36:53 2014

@<TRIPOS>MOLECULE
3gki_CLR_1_INTS_M
   97     0     9     0     0
SMALL
NO_CHARGES


@<TRIPOS>ATOM
      1 CA        -35.8565  -29.3425    9.9580 C.3       3 GLC5        0.0000 
      2 CA        -37.3710  -29.1540    8.4250 C.3       9 GLL5        0.0000 
      3 CA        -34.3420  -29.5310   11.4910 C.3       6 GLP5        0.0000 
      4 CA        -36.4830  -26.1700    5.1480 C.3       3 GLC5        0.0000 
      5 CA        -35.6060  -27.9560    4.6800 C.3       9 GLL5        0.0000 
      6 CA        -37.3600  -24.3840    5.6160 C.3       6 GLP5        0.0000 
      7 CA        -36.5715  -30.5845    0.7975 C.3       3 GLC5        0.0000 
      8 CA        -36.3600  -29.0360    2.0200 C.3       9 GLL5        0.0000 
      9 CA        -36.7830  -32.1330   -0.4250 C.3       6 GLP5        0.0000 
     10 CA        -31.8070  -26.9190    3.6870 C.3       3 GLC5        0.0000 
     11 CA        -33.8690  -26.5240    3.3280 C.3       9 GLL5        0.0000 
     12 CA        -29.7450  -27.3140    4.0460 C.3       6 GLP5        0.0000 
     13 CA        -32.8150  -26.4165    5.2930 C.3       3 GLC5        0.0000 
     14 CA        -31.7610  -26.3090    7.2580 C.3       6 GLP5        0.0000 
     15 CA        -31.8270  -26.2225    0.7035 C.3       3 GLC5        0.0000 
     16 CA        -33.6490  -26.3740    1.8120 C.3       9 GLL5        0.0000 
     17 CA        -30.0050  -26.0710   -0.4050 C.3       6 GLP5        0.0000 
     18 CA        -37.1940  -25.2340    0.5615 C.3       3 GLC5        0.0000 
     19 CA        -36.6430  -26.4890    2.0900 C.3       9 GLL5        0.0000 
     20 CA        -37.7450  -23.9790   -0.9670 C.3       6 GLP5        0.0000 
     21 CA        -36.2515  -24.7465    2.7880 C.3       3 GLC5        0.0000 
     22 CA        -35.8600  -23.0040    3.4860 C.3       6 GLP5        0.0000 
     23 CA        -37.0015  -25.4365    3.8530 C.3       3 GLC5        0.0000 
     24 CA        -40.4480  -28.2570    5.8690 C.3       3 GLC5        0.0000 
     25 CA        -38.5140  -27.9130    5.6940 C.3       9 GLL5        0.0000 
     26 CA        -42.3820  -28.6010    6.0440 C.3       6 GLP5        0.0000 
     27 CA        -39.1465  -28.0545    3.5925 C.3       3 GLC5        0.0000 
     28 CA        -39.7790  -28.1960    1.4910 C.3       6 GLP5        0.0000 
     29 CA        -38.3705  -26.2375    6.2535 C.3       3 GLC5        0.0000 
     30 CA        -38.2270  -24.5620    6.8130 C.3       6 GLP5        0.0000 
     31 CA        -37.9230  -27.9615    0.2645 C.3       3 GLC5        0.0000 
     32 CA        -36.0670  -27.7270   -0.9620 C.3       9 GLL5        0.0000 
     33 CA        -37.4410  -29.3595   -1.5810 C.3       3 GLC5        0.0000 
     34 CA        -38.8150  -30.9920   -2.2000 C.3       6 GLP5        0.0000 
     35 CA        -31.9560  -27.5240   -1.7820 C.3       3 GLC5        0.0000 
     36 CA        -33.7280  -27.0320   -1.2460 C.3       9 GLL5        0.0000 
     37 CA        -30.1840  -28.0160   -2.3180 C.3       6 GLP5        0.0000 
     38 CA        -33.5040  -26.2895   -4.6695 C.3       3 GLC5        0.0000 
     39 CA        -33.8740  -26.2470   -2.5440 C.3       9 GLL5        0.0000 
     40 CA        -33.1340  -26.3320   -6.7950 C.3       6 GLP5        0.0000 
     41 CA        -35.9065  -24.3720   -1.6130 C.3       3 GLC5        0.0000 
     42 CA        -34.0680  -24.7650   -2.2590 C.3       9 GLL5        0.0000 
     43 CA        -33.3955  -21.1160   -2.0215 C.3       3 GLC5        0.0000 
     44 CA        -34.0290  -22.4660   -3.3000 C.3       9 GLL5        0.0000 
     45 CA        -32.7620  -19.7660   -0.7430 C.3       6 GLP5        0.0000 
     46 CA        -31.1800  -25.2495   -2.9390 C.3       3 GLC5        0.0000 
     47 CA        -32.3760  -24.2340   -3.9750 C.3       9 GLL5        0.0000 
     48 CA        -29.9840  -26.2650   -1.9030 C.3       6 GLP5        0.0000 
     49 N         -39.2055  -29.8870   10.8520 N.am      2 SEC2        0.0000 
     50 N         -38.4610  -30.8880    9.6920 N.am      8 SEL2        0.0000 
     51 N         -39.9500  -28.8860   12.0120 N.am      5 SEP2        0.0000 
     52 N         -38.7605  -31.5560   11.0035 N.am      2 SEC2        0.0000 
     53 N         -39.0600  -32.2240   12.3150 N.am      5 SEP2        0.0000 
     54 O         -38.0985  -29.9355   10.7010 O.2       1 ALC1        0.0000 
     55 O         -38.4610  -30.8880    9.6920 O.2       7 ALL1        0.0000 
     56 O         -37.7360  -28.9830   11.7100 O.2       4 ALP1        0.0000 
     57 CA        -40.5810  -29.5288    6.3442 C.3       3 GLC5        0.0000 
     58 CA        -39.1290  -30.5460    7.3350 C.3       9 GLL5        0.0000 
     59 CA        -39.5805  -31.3633    5.1448 C.3       3 GLC5        0.0000 
     60 CA        -40.3810  -32.2700    3.6450 C.3       6 GLP5        0.0000 
     61 CA        -38.1405  -32.3380    8.2725 C.3       3 GLC5        0.0000 
     62 CA        -37.7180  -34.1320    8.6870 C.3       6 GLP5        0.0000 
     63 CA        -33.5360  -29.3365    6.8957 C.3       3 GLC5        0.0000 
     64 CA        -35.4640  -28.4740    7.0660 C.3       9 GLL5        0.0000 
     65 CA        -32.0130  -30.3210    7.3420 C.3       6 GLP5        0.0000 
     66 CA        -35.9638  -27.6326    8.7429 C.3       3 GLC5        0.0000 
     67 CA        -35.6670  -26.5160   10.0800 C.3       6 GLP5        0.0000 
     68 CA        -33.4100  -27.3305    6.8537 C.3       3 GLC5        0.0000 
     69 CA        -33.9145  -28.8845    4.0102 C.3       3 GLC5        0.0000 
     70 CA        -34.6540  -28.2300    5.8330 C.3       9 GLL5        0.0000 
     71 CA        -32.6990  -29.6760    2.7640 C.3       6 GLP5        0.0000 
     72 CA        -35.0785  -30.0328    3.5900 C.3       3 GLC5        0.0000 
     73 CA        -37.3050  -29.2350    3.2240 C.3       9 GLL5        0.0000 
     74 CA        -33.2010  -30.8820    3.2710 C.3       6 GLP5        0.0000 
     75 CA        -38.3058  -28.6657    2.0565 C.3       3 GLC5        0.0000 
     76 CA        -37.0560  -31.0709    3.0732 C.3       3 GLC5        0.0000 
     77 CA        -37.4540  -33.0320    3.1820 C.3       6 GLP5        0.0000 
     78 CA        -34.3552  -29.0132    2.4145 C.3       3 GLC5        0.0000 
     79 CA        -37.9660  -27.6365    1.7955 C.3       3 GLC5        0.0000 
     80 CA        -35.6630  -27.6650    2.1100 C.3       9 GLL5        0.0000 
     81 CA        -34.0695  -24.6895    3.1225 C.3       3 GLC5        0.0000 
     82 CA        -34.3800  -22.9300    3.6750 C.3       6 GLP5        0.0000 
     83 CA        -33.3478  -28.2131    2.6746 C.3       3 GLC5        0.0000 
     84 CA        -35.3330  -28.4045   -2.2750 C.3       3 GLC5        0.0000 
     85 CA        -34.9410  -26.9070   -0.3380 C.3       9 GLL5        0.0000 
     86 CA        -35.1620  -29.4920   -3.9000 C.3       6 GLP5        0.0000 
     87 CA        -36.6245  -25.6480   -0.8085 C.3       3 GLC5        0.0000 
     88 CA        -34.4815  -28.0658   -2.8975 C.3       3 GLC5        0.0000 
     89 CA        -33.1987  -28.3618    0.5215 C.3       3 GLC5        0.0000 
     90 CA        -32.1570  -29.6380    1.4820 C.3       6 GLP5        0.0000 
     91 CA        -31.9775  -25.8855   -2.1522 C.3       3 GLC5        0.0000 
     92 CA        -33.1102  -25.2145   -5.2713 C.3       3 GLC5        0.0000 
     93 CA        -35.4970  -22.9205   -2.0880 C.3       3 GLC5        0.0000 
     94 CA        -37.0810  -22.6280   -0.7660 C.3       6 GLP5        0.0000 
     95 CA        -31.7392  -22.5063   -3.6763 C.3       3 GLC5        0.0000 
     96 CA        -33.7970  -23.9600   -3.5200 C.3       9 GLL5        0.0000 
     97 CA        -30.3340  -21.2890   -3.6600 C.3       6 GLP5        0.0000 
@<TRIPOS>BOND
@<TRIPOS>SUBSTRUCTURE
     1 ALC1       54 GROUP        1 X    ALC  0     ROOT ALC X 1
     2 SEC2       49 GROUP        1 X    SEC  0     **** SEC X 2
     3 GLC5        1 GROUP        1 X    GLC  0     **** GLC X 6
     4 ALP1       56 GROUP        1 Y    ALP  0     ROOT ALP Y 8
     5 SEP2       51 GROUP        1 Y    SEP  0     **** SEP Y 9
     6 GLP5        3 GROUP        1 Y    GLP  0     **** GLP Y 13
     7 ALL1       55 GROUP        1 Z    ALL  0     ROOT ALL Z 15
     8 SEL2       50 GROUP        1 Z    SEL  0     **** SEL Z 16
     9 GLL5        2 GROUP        1 Z    GLL  0     **** GLL Z 20
@<TRIPOS>SET

