#    Name: 3gki_CLR_1_ligand
#    Modification time : Tue Mar 25 12:36:53 2014

@<TRIPOS>MOLECULE
3gki_CLR_1_ligand
   74    77     1     0     0
SMALL
NO_CHARGES


@<TRIPOS>ATOM
      1 C1        -38.4310  -30.3670    5.9540 C.3       1 CLR253      0.0000 
      2 C2        -39.1290  -30.5460    7.3350 C.3       1 CLR253      0.0000 
      3 C3        -37.9970  -30.5420    8.3810 C.3       1 CLR253      0.0000 
      4 C4        -37.3710  -29.1540    8.4250 C.3       1 CLR253      0.0000 
      5 C5        -36.7430  -28.8950    7.0660 C.2       1 CLR253      0.0000 
      6 C6        -35.4640  -28.4740    7.0660 C.2       1 CLR253      0.0000 
      7 C7        -34.6540  -28.2300    5.8330 C.3       1 CLR253      0.0000 
      8 C8        -35.6060  -27.9560    4.6800 C.3       1 CLR253      0.0000 
      9 C9        -36.6070  -29.1320    4.5940 C.3       1 CLR253      0.0000 
     10 C10       -37.5700  -29.0940    5.8070 C.3       1 CLR253      0.0000 
     11 C11       -37.3050  -29.2350    3.2240 C.3       1 CLR253      0.0000 
     12 C12       -36.3600  -29.0360    2.0200 C.3       1 CLR253      0.0000 
     13 C13       -35.6630  -27.6650    2.1100 C.3       1 CLR253      0.0000 
     14 C14       -34.8190  -27.7290    3.3890 C.3       1 CLR253      0.0000 
     15 C15       -33.8690  -26.5240    3.3280 C.3       1 CLR253      0.0000 
     16 C16       -33.6490  -26.3740    1.8120 C.3       1 CLR253      0.0000 
     17 C17       -34.5650  -27.3710    1.0740 C.3       1 CLR253      0.0000 
     18 C18       -36.6430  -26.4890    2.0900 C.3       1 CLR253      0.0000 
     19 C19       -38.5140  -27.9130    5.6940 C.3       1 CLR253      0.0000 
     20 C20       -34.9410  -26.9070   -0.3380 C.3       1 CLR253      0.0000 
     21 C21       -36.0670  -27.7270   -0.9620 C.3       1 CLR253      0.0000 
     22 C22       -33.7280  -27.0320   -1.2460 C.3       1 CLR253      0.0000 
     23 C23       -33.8740  -26.2470   -2.5440 C.3       1 CLR253      0.0000 
     24 C24       -34.0680  -24.7650   -2.2590 C.3       1 CLR253      0.0000 
     25 C25       -33.7970  -23.9600   -3.5200 C.3       1 CLR253      0.0000 
     26 C26       -34.0290  -22.4660   -3.3000 C.3       1 CLR253      0.0000 
     27 C27       -32.3760  -24.2340   -3.9750 C.3       1 CLR253      0.0000 
     28 O1        -38.4610  -30.8880    9.6920 O.3       1 CLR253      0.0000 
     29 H         -39.2083  -30.3645    5.1701 H         1 CLR253      0.0000 
     30 H         -37.7957  -31.2507    5.7693 H         1 CLR253      0.0000 
     31 H         -39.6325  -31.4823    7.3525 H         1 CLR253      0.0000 
     32 H         -39.7804  -29.7232    7.5058 H         1 CLR253      0.0000 
     33 H         -37.2313  -31.2319    8.0408 H         1 CLR253      0.0000 
     34 H         -36.6117  -29.1255    9.1869 H         1 CLR253      0.0000 
     35 H         -38.1345  -28.4206    8.6176 H         1 CLR253      0.0000 
     36 H         -34.9472  -28.2874    7.9634 H         1 CLR253      0.0000 
     37 H         -34.0559  -29.1026    5.6005 H         1 CLR253      0.0000 
     38 H         -34.0095  -27.3709    5.9736 H         1 CLR253      0.0000 
     39 H         -36.1658  -27.0568    4.9174 H         1 CLR253      0.0000 
     40 H         -35.9906  -30.0629    4.7196 H         1 CLR253      0.0000 
     41 H         -38.1041  -28.4812    3.1747 H         1 CLR253      0.0000 
     42 H         -37.7805  -30.2230    3.1408 H         1 CLR253      0.0000 
     43 H         -36.9364  -29.0843    1.1042 H         1 CLR253      0.0000 
     44 H         -35.6110  -29.8185    2.0231 H         1 CLR253      0.0000 
     45 H         -34.1474  -28.6361    3.2347 H         1 CLR253      0.0000 
     46 H         -32.9595  -26.7620    3.7966 H         1 CLR253      0.0000 
     47 H         -34.3514  -25.6694    3.7027 H         1 CLR253      0.0000 
     48 H         -32.6207  -26.5938    1.5761 H         1 CLR253      0.0000 
     49 H         -33.9006  -25.3701    1.5115 H         1 CLR253      0.0000 
     50 H         -33.9517  -28.3033    1.0000 H         1 CLR253      0.0000 
     51 H         -35.2330  -25.8728   -0.3084 H         1 CLR253      0.0000 
     52 H         -33.5645  -28.0922   -1.4853 H         1 CLR253      0.0000 
     53 H         -32.8377  -26.6744   -0.7096 H         1 CLR253      0.0000 
     54 H         -34.7336  -26.6239   -3.0973 H         1 CLR253      0.0000 
     55 H         -32.9787  -26.3841   -3.1496 H         1 CLR253      0.0000 
     56 H         -33.3809  -24.4550   -1.4777 H         1 CLR253      0.0000 
     57 H         -35.0884  -24.5913   -1.9316 H         1 CLR253      0.0000 
     58 H         -34.4741  -24.3069   -4.2965 H         1 CLR253      0.0000 
     59 H         -36.1697  -25.6101    2.1500 H         1 CLR253      0.0000 
     60 H         -37.1864  -26.4726    1.2507 H         1 CLR253      0.0000 
     61 H         -37.2861  -26.5284    2.8548 H         1 CLR253      0.0000 
     62 H         -38.0188  -27.0500    5.5935 H         1 CLR253      0.0000 
     63 H         -39.1205  -27.9967    4.9034 H         1 CLR253      0.0000 
     64 H         -39.0964  -27.8244    6.5021 H         1 CLR253      0.0000 
     65 H         -36.2971  -27.4038   -1.8799 H         1 CLR253      0.0000 
     66 H         -35.8214  -28.6929   -1.0444 H         1 CLR253      0.0000 
     67 H         -36.9044  -27.6830   -0.4172 H         1 CLR253      0.0000 
     68 H         -33.4335  -22.0990   -2.5854 H         1 CLR253      0.0000 
     69 H         -33.8520  -21.9365   -4.1297 H         1 CLR253      0.0000 
     70 H         -34.9707  -22.2730   -3.0245 H         1 CLR253      0.0000 
     71 H         -31.7067  -23.9756   -3.2784 H         1 CLR253      0.0000 
     72 H         -32.2307  -25.2027   -4.1761 H         1 CLR253      0.0000 
     73 H         -32.1470  -23.7249   -4.8047 H         1 CLR253      0.0000 
     74 H         -38.0194  -30.2321   10.3042 H         1 CLR253      0.0000 
@<TRIPOS>BOND
     1    2    1 1    
     2   10    1 1    
     3   29    1 1    
     4   30    1 1    
     5    3    2 1    
     6   31    2 1    
     7   32    2 1    
     8    4    3 1    
     9   28    3 1    
    10   33    3 1    
    11    5    4 1    
    12   34    4 1    
    13   35    4 1    
    14    6    5 2    
    15   10    5 1    
    16    7    6 1    
    17   36    6 1    
    18    8    7 1    
    19   37    7 1    
    20   38    7 1    
    21    9    8 1    
    22   14    8 1    
    23   39    8 1    
    24   10    9 1    
    25   11    9 1    
    26   40    9 1    
    27   19   10 1    
    28   12   11 1    
    29   41   11 1    
    30   42   11 1    
    31   13   12 1    
    32   43   12 1    
    33   44   12 1    
    34   14   13 1    
    35   17   13 1    
    36   18   13 1    
    37   15   14 1    
    38   45   14 1    
    39   16   15 1    
    40   46   15 1    
    41   47   15 1    
    42   17   16 1    
    43   48   16 1    
    44   49   16 1    
    45   20   17 1    
    46   50   17 1    
    47   59   18 1    
    48   60   18 1    
    49   61   18 1    
    50   62   19 1    
    51   63   19 1    
    52   64   19 1    
    53   21   20 1    
    54   22   20 1    
    55   51   20 1    
    56   65   21 1    
    57   66   21 1    
    58   67   21 1    
    59   23   22 1    
    60   52   22 1    
    61   53   22 1    
    62   24   23 1    
    63   54   23 1    
    64   55   23 1    
    65   25   24 1    
    66   56   24 1    
    67   57   24 1    
    68   26   25 1    
    69   27   25 1    
    70   58   25 1    
    71   68   26 1    
    72   69   26 1    
    73   70   26 1    
    74   71   27 1    
    75   72   27 1    
    76   73   27 1    
    77   74   28 1    
@<TRIPOS>SUBSTRUCTURE
     1 CLR253      1 GROUP   
@<TRIPOS>SET

