#    Name: 1S2G_3_CAVITY_N1_ALL.mol2
#    Modification time : Tue Mar 11 07:38:08 2014

@<TRIPOS>MOLECULE
1S2G_3_CAVITY_N1_ALL.mol2
   63     0     6     0     0
SMALL
NO_CHARGES


@<TRIPOS>ATOM
      1 O         -21.1824   -1.5224    9.4453 O.2       2 ALA2        0.0000 
      2 N         -23.0589   -0.8485    8.7211 N.2       2 ALA2        0.0000 
      3 NZ        -21.7540   -1.2328    8.0891 N.2       3 LYS4        0.0000 
      4 NZ        -22.3257   -0.9433    6.7328 N.2       3 LYS4        0.0000 
      5 NZ        -22.8547   -4.2690   11.2228 N.2       3 LYS4        0.0000 
      6 CA        -21.5498   -4.6534   10.5907 C.3       5 GLY6        0.0000 
      7 CA        -18.9401   -5.4221    9.3266 C.3       5 GLY6        0.0000 
      8 CZ        -17.6352   -5.8065    8.6945 C.ar      4 PHE5        0.0000 
      9 OG        -23.4264   -3.9794    9.8665 O.2       1 SER1        0.0000 
     10 CA        -22.1215   -4.3638    9.2345 C.3       5 GLY6        0.0000 
     11 CA        -20.8166   -4.7482    8.6024 C.3       5 GLY6        0.0000 
     12 CA        -19.5117   -5.1326    7.9703 C.3       5 GLY6        0.0000 
     13 CZ        -18.2068   -5.5169    7.3382 C.ar      4 PHE5        0.0000 
     14 CZ        -16.9019   -5.9013    6.7062 C.ar      4 PHE5        0.0000 
     15 CZ        -23.9980   -3.6899    8.5103 C.ar      4 PHE5        0.0000 
     16 CZ        -22.6931   -4.0742    7.8782 C.ar      4 PHE5        0.0000 
     17 DU        -21.3882   -4.4586    7.2462 H         6 CUB7        0.0000 
     18 NZ        -20.0833   -4.8430    6.6141 N.2       3 LYS4        0.0000 
     19 NZ        -18.7785   -5.2274    5.9820 N.2       3 LYS4        0.0000 
     20 CZ        -17.4736   -5.6117    5.3499 C.ar      4 PHE5        0.0000 
     21 CZ        -23.2648   -3.7847    6.5220 C.ar      4 PHE5        0.0000 
     22 NZ        -21.9599   -4.1690    5.8899 N.2       3 LYS4        0.0000 
     23 NZ        -19.3501   -4.9378    4.6258 N.2       3 LYS4        0.0000 
     24 CZ        -18.0452   -5.3222    3.9937 C.ar      4 PHE5        0.0000 
     25 CZ        -23.8364   -3.4951    5.1658 C.ar      4 PHE5        0.0000 
     26 NZ        -22.9568   -2.5587    9.9720 N.2       3 LYS4        0.0000 
     27 CA        -21.6519   -2.9431    9.3399 C.3       5 GLY6        0.0000 
     28 CA        -20.3470   -3.3275    8.7078 C.3       5 GLY6        0.0000 
     29 N         -19.0422   -3.7118    8.0757 N.2       2 ALA2        0.0000 
     30 N         -17.7373   -4.0962    7.4437 N.2       2 ALA2        0.0000 
     31 CZ        -23.5285   -2.2692    8.6157 C.ar      4 PHE5        0.0000 
     32 DU        -22.2236   -2.6535    7.9837 H         6 CUB7        0.0000 
     33 NZ        -20.9187   -3.0379    7.3516 N.2       3 LYS4        0.0000 
     34 NZ        -19.6138   -3.4223    6.7195 N.2       3 LYS4        0.0000 
     35 NZ        -18.3089   -3.8066    6.0874 N.2       3 LYS4        0.0000 
     36 CA        -17.0040   -4.1910    5.4554 C.3       5 GLY6        0.0000 
     37 CZ        -22.7952   -2.3640    6.6274 C.ar      4 PHE5        0.0000 
     38 NZ        -21.4903   -2.7483    5.9953 N.2       3 LYS4        0.0000 
     39 CA        -17.5757   -3.9015    4.0991 C.3       5 GLY6        0.0000 
     40 DU        -24.1018   -8.3364    7.5620 H         6 CUB7        0.0000 
     41 DU        -22.5910   -5.7845    9.1290 H         6 CUB7        0.0000 
     42 DU        -21.2861   -6.1689    8.4970 H         6 CUB7        0.0000 
     43 DU        -19.9813   -6.5533    7.8649 H         6 CUB7        0.0000 
     44 CZ        -18.6764   -6.9376    7.2328 C.ar      4 PHE5        0.0000 
     45 CZ        -17.3715   -7.3220    6.6008 C.ar      4 PHE5        0.0000 
     46 CZ        -24.4676   -5.1106    8.4049 C.ar      4 PHE5        0.0000 
     47 DU        -23.1627   -5.4949    7.7728 H         6 CUB7        0.0000 
     48 DU        -21.8578   -5.8793    7.1407 H         6 CUB7        0.0000 
     49 DU        -20.5529   -6.2637    6.5087 H         6 CUB7        0.0000 
     50 CZ        -19.2480   -6.6481    5.8766 C.ar      4 PHE5        0.0000 
     51 CZ        -25.0392   -4.8210    7.0487 C.ar      4 PHE5        0.0000 
     52 CZ        -23.7343   -5.2054    6.4166 C.ar      4 PHE5        0.0000 
     53 NZ        -22.4294   -5.5897    5.7845 N.2       3 LYS4        0.0000 
     54 NZ        -21.1245   -5.9741    5.1524 N.2       3 LYS4        0.0000 
     55 NZ        -19.8197   -6.3585    4.5204 N.2       3 LYS4        0.0000 
     56 CZ        -24.3060   -4.9158    5.0603 C.ar      4 PHE5        0.0000 
     57 DU        -21.0225   -7.6844    6.4032 H         6 CUB7        0.0000 
     58 CZ        -19.7176   -8.0688    5.7712 C.ar      4 PHE5        0.0000 
     59 CZ        -25.5088   -6.2417    6.9432 C.ar      4 PHE5        0.0000 
     60 DU        -24.2039   -6.6261    6.3112 H         6 CUB7        0.0000 
     61 DU        -22.8990   -7.0105    5.6791 H         6 CUB7        0.0000 
     62 NZ        -21.5941   -7.3948    5.0470 N.2       3 LYS4        0.0000 
     63 CA        -22.1657   -7.1053    3.6908 C.3       5 GLY6        0.0000 
@<TRIPOS>BOND
@<TRIPOS>SUBSTRUCTURE
     1 SER1        9 GROUP   
     2 ALA2        1 GROUP   
     3 LYS4        3 GROUP   
     4 PHE5        8 GROUP   
     5 GLY6        6 GROUP   
     6 CUB7       17 GROUP   
@<TRIPOS>SET

