#    Name: 1s2g_3D1_3_INTS_M
#    Modification time : Tue Mar 25 01:52:32 2014

@<TRIPOS>MOLECULE
1s2g_3D1_3_INTS_M
   32     0     9     0     0
SMALL
NO_CHARGES


@<TRIPOS>ATOM
      1 O         -22.3325   -1.6050   11.0940 O.2       1 ALC1        0.0000 
      2 O         -22.6140   -2.6490   10.3420 O.2       7 ALL1        0.0000 
      3 O         -22.0510   -0.5610   11.8460 O.2       4 ALP1        0.0000 
      4 CA        -24.3455   -0.6380   10.0730 C.3       3 GLC5        0.0000 
      5 CA        -22.9990   -1.9610    9.1470 C.3       9 GLL5        0.0000 
      6 CA        -25.6920    0.6850   10.9990 C.3       6 GLP5        0.0000 
      7 CA        -24.6050   -2.2820    8.0160 C.3       3 GLC5        0.0000 
      8 CA        -26.2110   -2.6030    6.8850 C.3       6 GLP5        0.0000 
      9 CA        -20.3035   -0.6350    9.4420 C.3       3 GLC5        0.0000 
     10 CA        -21.7950   -1.5610    8.2490 C.3       9 GLL5        0.0000 
     11 CA        -18.8120    0.2910   10.6350 C.3       6 GLP5        0.0000 
     12 CA        -24.0595   -2.8400    3.0150 C.3       3 GLC5        0.0000 
     13 CA        -24.6700   -4.7670    3.5080 C.3       9 GLL5        0.0000 
     14 CA        -23.4490   -0.9130    2.5220 C.3       6 GLP5        0.0000 
     15 CA        -24.4005   -6.2535    2.5800 C.3       3 GLC5        0.0000 
     16 CA        -24.1310   -7.7400    1.6520 C.3       6 GLP5        0.0000 
     17 CA        -24.7305   -7.0045    3.4695 C.3       3 GLC5        0.0000 
     18 CA        -25.3300   -6.2690    5.2870 C.3       9 GLL5        0.0000 
     19 N         -22.2515    1.6565    7.1935 N.am      2 SEC2        0.0000 
     20 N         -21.6450    0.3690    6.6710 N.am      8 SEL2        0.0000 
     21 N         -22.8580    2.9440    7.7160 N.am      5 SEP2        0.0000 
     22 O         -20.3780    0.2535    6.7645 O.2       1 ALC1        0.0000 
     23 O         -21.6450    0.3690    6.6710 O.2       7 ALL1        0.0000 
     24 O         -19.1110    0.1380    6.8580 O.2       4 ALP1        0.0000 
     25 CA        -20.8215   -2.6060    9.8690 C.3       3 GLC5        0.0000 
     26 CA        -19.2460   -3.4510   11.0400 C.3       6 GLP5        0.0000 
     27 CA        -22.8840   -0.5208    4.9138 C.3       3 GLC5        0.0000 
     28 CA        -22.3390   -0.8450    6.9920 C.3       9 GLL5        0.0000 
     29 CA        -23.5440    0.2890    3.4000 C.3       6 GLP5        0.0000 
     30 CA        -24.1155   -1.3057    6.4703 C.3       3 GLC5        0.0000 
     31 CA        -22.1090   -1.8160    5.8630 C.3       9 GLL5        0.0000 
     32 CA        -26.0070   -1.2810    6.5130 C.3       6 GLP5        0.0000 
@<TRIPOS>BOND
@<TRIPOS>SUBSTRUCTURE
     1 ALC1        1 GROUP        1 X    ALC  0     ROOT ALC X 1
     2 SEC2       19 GROUP        1 X    SEC  0     **** SEC X 2
     3 GLC5        4 GROUP        1 X    GLC  0     **** GLC X 6
     4 ALP1        3 GROUP        1 Y    ALP  0     ROOT ALP Y 8
     5 SEP2       21 GROUP        1 Y    SEP  0     **** SEP Y 9
     6 GLP5        6 GROUP        1 Y    GLP  0     **** GLP Y 13
     7 ALL1        2 GROUP        1 Z    ALL  0     ROOT ALL Z 15
     8 SEL2       20 GROUP        1 Z    SEL  0     **** SEL Z 16
     9 GLL5        5 GROUP        1 Z    GLL  0     **** GLL Z 20
@<TRIPOS>SET

