#    Name: 1s2g_3D1_3_ligand
#    Modification time : Tue Mar 25 01:52:32 2014

@<TRIPOS>MOLECULE
1s2g_3D1_3_ligand
   31    33     1     0     0
SMALL
NO_CHARGES


@<TRIPOS>ATOM
      1 O5'       -22.6140   -2.6490   10.3420 O.3       1 3D11170     0.0000 
      2 C5'       -22.9990   -1.9610    9.1470 C.3       1 3D11170     0.0000 
      3 C4'       -21.7950   -1.5610    8.2490 C.3       1 3D11170     0.0000 
      4 O4'       -21.0270   -2.7190    7.8020 O.3       1 3D11170     0.0000 
      5 C1'       -21.4550   -3.0460    6.4530 C.3       1 3D11170     0.0000 
      6 N9        -22.6580   -4.2430    6.4900 N.pl3     1 3D11170     0.0000 
      7 C4        -23.5590   -4.6490    5.5000 C.ar      1 3D11170     0.0000 
      8 N3        -23.6770   -4.1400    4.2120 N.ar      1 3D11170     0.0000 
      9 C2        -24.6700   -4.7670    3.5080 C.ar      1 3D11170     0.0000 
     10 N1        -25.4960   -5.7910    3.9680 N.ar      1 3D11170     0.0000 
     11 C6        -25.3300   -6.2690    5.2870 C.ar      1 3D11170     0.0000 
     12 N6        -26.0660   -7.2420    5.8200 N.pl3     1 3D11170     0.0000 
     13 C5        -24.3330   -5.6860    6.0930 C.ar      1 3D11170     0.0000 
     14 N7        -23.9760   -5.9790    7.4110 N.2       1 3D11170     0.0000 
     15 C8        -23.0180   -5.1300    7.5880 C.2       1 3D11170     0.0000 
     16 C2'       -22.1090   -1.8160    5.8630 C.3       1 3D11170     0.0000 
     17 C3'       -22.3390   -0.8450    6.9920 C.3       1 3D11170     0.0000 
     18 O3'       -21.6450    0.3690    6.6710 O.3       1 3D11170     0.0000 
     19 H         -23.5540   -1.0281    9.3728 H         1 3D11170     0.0000 
     20 H         -23.6754   -2.5768    8.5203 H         1 3D11170     0.0000 
     21 H         -21.1851   -0.8653    8.7823 H         1 3D11170     0.0000 
     22 H         -20.7089   -3.4092    5.8339 H         1 3D11170     0.0000 
     23 H         -24.8373   -4.4421    2.4936 H         1 3D11170     0.0000 
     24 H         -25.8614   -7.4785    6.7698 H         1 3D11170     0.0000 
     25 H         -26.7571   -7.6486    5.2225 H         1 3D11170     0.0000 
     26 H         -22.4761   -5.0234    8.4542 H         1 3D11170     0.0000 
     27 H         -23.0516   -2.0869    5.4151 H         1 3D11170     0.0000 
     28 H         -21.4544   -1.3751    5.1284 H         1 3D11170     0.0000 
     29 H         -23.3869   -0.7106    7.1059 H         1 3D11170     0.0000 
     30 H         -21.9702   -2.0347   10.7982 H         1 3D11170     0.0000 
     31 H         -20.8195    0.3519    7.2350 H         1 3D11170     0.0000 
@<TRIPOS>BOND
     1    2    1 1    
     2   30    1 1    
     3    3    2 1    
     4   19    2 1    
     5   20    2 1    
     6    4    3 1    
     7   17    3 1    
     8   21    3 1    
     9    5    4 1    
    10    6    5 1    
    11   16    5 1    
    12   22    5 1    
    13    7    6 1    
    14   15    6 1    
    15    8    7 ar   
    16   13    7 ar   
    17    9    8 ar   
    18   10    9 ar   
    19   23    9 1    
    20   11   10 ar   
    21   12   11 1    
    22   13   11 ar   
    23   24   12 1    
    24   25   12 1    
    25   14   13 1    
    26   15   14 2    
    27   26   15 1    
    28   17   16 1    
    29   27   16 1    
    30   28   16 1    
    31   18   17 1    
    32   29   17 1    
    33   31   18 1    
@<TRIPOS>SUBSTRUCTURE
     1 3D11170     1 GROUP   
@<TRIPOS>SET

