#    Name: 2q28_ADP_2_INTS_M
#    Modification time : Mon Mar 24 20:28:45 2014

@<TRIPOS>MOLECULE
2q28_ADP_2_INTS_M
   80     0    12     0     0
SMALL
NO_CHARGES


@<TRIPOS>ATOM
      1 N           4.6800   18.9470   12.4690 N.am      2 SEC2        0.0000 
      2 N           5.8100   18.9700   13.2570 N.am     10 SEL2        0.0000 
      3 N           3.5500   18.9240   11.6810 N.am      6 SEP2        0.0000 
      4 NZ          5.1860   19.6440   16.4610 N.4       3 LYC4        0.0000 
      5 NZ          6.6200   19.6810   15.5450 N.4      11 LYL4        0.0000 
      6 NZ          3.7520   19.6070   17.3770 N.4       7 LYP4        0.0000 
      7 N           5.1860   19.6440   16.4610 N.am      2 SEC2        0.0000 
      8 N           6.6200   19.6810   15.5450 N.am     10 SEL2        0.0000 
      9 N           3.7520   19.6070   17.3770 N.am      6 SEP2        0.0000 
     10 NZ          3.8465   20.7835   16.7915 N.4       3 LYC4        0.0000 
     11 NZ          3.9410   21.9600   16.2060 N.4      11 LYL4        0.0000 
     12 NZ          4.0010   22.8630   17.3335 N.4       3 LYC4        0.0000 
     13 NZ          4.5700   24.9770   18.2460 N.4       7 LYP4        0.0000 
     14 N           3.8465   20.7835   16.7915 N.am      2 SEC2        0.0000 
     15 N           3.9410   21.9600   16.2060 N.am     10 SEL2        0.0000 
     16 N           4.0010   22.8630   17.3335 N.am      2 SEC2        0.0000 
     17 N           4.0610   23.7660   18.4610 N.am      6 SEP2        0.0000 
     18 NZ          5.8055   24.0460   16.3460 N.4       3 LYC4        0.0000 
     19 NZ          6.2790   22.9080   15.5200 N.4      11 LYL4        0.0000 
     20 N           6.8290   23.7845   14.2695 N.am      2 SEC2        0.0000 
     21 N           6.2790   22.9080   15.5200 N.am     10 SEL2        0.0000 
     22 N           7.3790   24.6610   13.0190 N.am      6 SEP2        0.0000 
     23 N           5.8055   24.0460   16.3460 N.am      2 SEC2        0.0000 
     24 N           5.3320   25.1840   17.1720 N.am      6 SEP2        0.0000 
     25 CA          4.6275   23.4390   12.4515 C.3       4 GLC5        0.0000 
     26 CA          2.8780   23.3900   13.7570 C.3      12 GLL5        0.0000 
     27 CA          6.3770   23.4880   11.1460 C.3       8 GLP5        0.0000 
     28 CA          4.2775   26.1590   14.7350 C.3       4 GLC5        0.0000 
     29 CA          2.2350   25.8650   14.2030 C.3      12 GLL5        0.0000 
     30 CA          6.3200   26.4530   15.2670 C.3       8 GLP5        0.0000 
     31 N           3.0715   28.0305   15.0725 N.am      2 SEC2        0.0000 
     32 N           3.1270   26.9830   13.9960 N.am     10 SEL2        0.0000 
     33 N           3.0160   29.0780   16.1490 N.am      6 SEP2        0.0000 
     34 O           3.1585   27.4260   12.7730 O.2       1 ALC1        0.0000 
     35 O           3.1270   26.9830   13.9960 O.2       9 ALL1        0.0000 
     36 O           3.1900   27.8690   11.5500 O.2       5 ALP1        0.0000 
     37 CA         -0.2205   26.7370   15.5705 C.3       4 GLC5        0.0000 
     38 CA          0.7720   26.2690   13.9560 C.3      12 GLL5        0.0000 
     39 CA         -1.2130   27.2050   17.1850 C.3       8 GLP5        0.0000 
     40 N           0.7670   27.8820   15.4655 N.am      2 SEC2        0.0000 
     41 N           0.4720   27.6640   14.0760 N.am     10 SEL2        0.0000 
     42 N           1.0620   28.1000   16.8550 N.am      6 SEP2        0.0000 
     43 O           0.9785   28.4135   13.0600 O.2       1 ALC1        0.0000 
     44 O           0.4720   27.6640   14.0760 O.2       9 ALL1        0.0000 
     45 O           1.4850   29.1630   12.0440 O.2       5 ALP1        0.0000 
     46 CA          0.4920   23.7650   11.8455 C.3       4 GLC5        0.0000 
     47 CA          0.5670   25.8640   12.5090 C.3      12 GLL5        0.0000 
     48 CA          0.4170   21.6660   11.1820 C.3       8 GLP5        0.0000 
     49 CA          1.7735   24.9675   10.9940 C.3       4 GLC5        0.0000 
     50 CA          2.9800   24.0710    9.4790 C.3       8 GLP5        0.0000 
     51 CA         -0.9695   27.3470   12.3070 C.3       4 GLC5        0.0000 
     52 CA         -2.5060   28.8300   12.1050 C.3       8 GLP5        0.0000 
     53 CA         -3.6520   23.4390    8.3835 C.3       4 GLC5        0.0000 
     54 CA         -3.3850   25.2810    9.6080 C.3      12 GLL5        0.0000 
     55 CA         -3.9190   21.5970    7.1590 C.3       8 GLP5        0.0000 
     56 CA         -3.9675   26.8215    8.1355 C.3       4 GLC5        0.0000 
     57 CA         -4.5500   28.3620    6.6630 C.3       8 GLP5        0.0000 
     58 N          -3.0875   26.2745    7.2615 N.am      2 SEC2        0.0000 
     59 N          -2.8570   26.1340    8.6750 N.am     10 SEL2        0.0000 
     60 N          -3.3180   26.4150    5.8480 N.am      6 SEP2        0.0000 
     61 CA         -0.0635   27.9680    8.8925 C.3       4 GLC5        0.0000 
     62 CA         -1.6750   26.7410    8.8530 C.3      12 GLL5        0.0000 
     63 CA          1.5480   29.1950    8.9320 C.3       8 GLP5        0.0000 
     64 CA         -2.2830   28.1300    9.8275 C.3       4 GLC5        0.0000 
     65 CA         -2.8910   29.5190   10.8020 C.3       8 GLP5        0.0000 
     66 CA         -3.1125   27.5515    7.7580 C.3       4 GLC5        0.0000 
     67 CA         -1.1130   25.8760    7.5605 C.3       4 GLC5        0.0000 
     68 CA         -0.5510   25.0110    6.2680 C.3       8 GLP5        0.0000 
     69 N          -0.7230   28.1415    9.9550 N.am      2 SEC2        0.0000 
     70 N          -0.8930   26.5780    9.9400 N.am     10 SEL2        0.0000 
     71 N          -0.5530   29.7050    9.9700 N.am      6 SEP2        0.0000 
     72 CA         -0.4455   23.7155   11.0560 C.3       4 GLC5        0.0000 
     73 CA         -1.3080   25.7650   10.9300 C.3      12 GLL5        0.0000 
     74 CA          1.5562   22.8727   12.3253 C.3       4 GLC5        0.0000 
     75 CA          2.5130   24.7690   13.1800 C.3      12 GLL5        0.0000 
     76 CA          2.8378   24.0753   11.4737 C.3       4 GLC5        0.0000 
     77 CA         -2.3276   27.1489   11.3411 C.3       4 GLC5        0.0000 
     78 CA         -2.5960   25.0600   10.8410 C.3      12 GLL5        0.0000 
     79 CA         -1.0966   24.7899    8.9946 C.3       4 GLC5        0.0000 
     80 CA         -0.0440   24.1120    7.4120 C.3       8 GLP5        0.0000 
@<TRIPOS>BOND
@<TRIPOS>SUBSTRUCTURE
     1 ALC1       34 GROUP        1 X    ALC  0     ROOT ALC X 1
     2 SEC2        1 GROUP        1 X    SEC  0     **** SEC X 2
     3 LYC4        4 GROUP        1 X    LYC  0     **** LYC X 4
     4 GLC5       25 GROUP        1 X    GLC  0     **** GLC X 6
     5 ALP1       36 GROUP        1 Y    ALP  0     ROOT ALP Y 8
     6 SEP2        3 GROUP        1 Y    SEP  0     **** SEP Y 9
     7 LYP4        6 GROUP        1 Y    LYP  0     **** LYP Y 11
     8 GLP5       27 GROUP        1 Y    GLP  0     **** GLP Y 13
     9 ALL1       35 GROUP        1 Z    ALL  0     ROOT ALL Z 15
    10 SEL2        2 GROUP        1 Z    SEL  0     **** SEL Z 16
    11 LYL4        5 GROUP        1 Z    LYL  0     **** LYL Z 18
    12 GLL5       26 GROUP        1 Z    GLL  0     **** GLL Z 20
@<TRIPOS>SET

