#    Name: 2q28_ADP_2_ligand
#    Modification time : Mon Mar 24 20:28:45 2014

@<TRIPOS>MOLECULE
2q28_ADP_2_ligand
   39    41     1     0     0
SMALL
NO_CHARGES


@<TRIPOS>ATOM
      1 PB          6.3350   20.0620   14.1200 P.3       1 ADP4003     0.0000 
      2 O1B         5.8100   18.9700   13.2570 O.co2     1 ADP4003     0.0000 
      3 O2B         6.6200   19.6810   15.5450 O.co2     1 ADP4003     0.0000 
      4 O3B         7.5190   20.7920   13.5000 O.co2     1 ADP4003     0.0000 
      5 PA          4.9250   22.3840   15.1300 P.3       1 ADP4003     0.0000 
      6 O1A         3.9410   21.9600   16.2060 O.co2     1 ADP4003     0.0000 
      7 O2A         6.2790   22.9080   15.5200 O.co2     1 ADP4003     0.0000 
      8 O3A         5.1360   21.1540   14.1290 O.3       1 ADP4003     0.0000 
      9 O5'         4.2440   23.4730   14.1660 O.3       1 ADP4003     0.0000 
     10 C5'         2.8780   23.3900   13.7570 C.3       1 ADP4003     0.0000 
     11 C4'         2.5130   24.7690   13.1800 C.3       1 ADP4003     0.0000 
     12 O4'         1.3120   24.6330   12.4100 O.3       1 ADP4003     0.0000 
     13 C3'         2.2350   25.8650   14.2030 C.3       1 ADP4003     0.0000 
     14 O3'         3.1270   26.9830   13.9960 O.3       1 ADP4003     0.0000 
     15 C2'         0.7720   26.2690   13.9560 C.3       1 ADP4003     0.0000 
     16 O2'         0.4720   27.6640   14.0760 O.3       1 ADP4003     0.0000 
     17 C1'         0.5670   25.8640   12.5090 C.3       1 ADP4003     0.0000 
     18 N9         -0.7780   25.4280   12.0910 N.pl3     1 ADP4003     0.0000 
     19 C8         -1.6160   24.5550   12.7170 C.2       1 ADP4003     0.0000 
     20 N7         -2.7310   24.3260   11.9650 N.2       1 ADP4003     0.0000 
     21 C5         -2.5960   25.0600   10.8410 C.ar      1 ADP4003     0.0000 
     22 C6         -3.3850   25.2810    9.6080 C.ar      1 ADP4003     0.0000 
     23 N6         -4.5870   24.6670    9.4440 N.pl3     1 ADP4003     0.0000 
     24 N1         -2.8570   26.1340    8.6750 N.ar      1 ADP4003     0.0000 
     25 C2         -1.6750   26.7410    8.8530 C.ar      1 ADP4003     0.0000 
     26 N3         -0.8930   26.5780    9.9400 N.ar      1 ADP4003     0.0000 
     27 C4         -1.3080   25.7650   10.9300 C.ar      1 ADP4003     0.0000 
     28 H           2.2127   23.1922   14.5864 H         1 ADP4003     0.0000 
     29 H           2.7269   22.6553   12.9779 H         1 ADP4003     0.0000 
     30 H           3.3177   25.0987   12.5331 H         1 ADP4003     0.0000 
     31 H           2.3075   25.4473   15.1739 H         1 ADP4003     0.0000 
     32 H           0.1452   25.6410   14.5473 H         1 ADP4003     0.0000 
     33 H           0.9794   26.5700   11.8543 H         1 ADP4003     0.0000 
     34 H          -1.4427   24.1473   13.5872 H         1 ADP4003     0.0000 
     35 H          -5.0933   24.9051    8.6151 H         1 ADP4003     0.0000 
     36 H          -4.8587   24.0315   10.1667 H         1 ADP4003     0.0000 
     37 H          -1.3251   27.4003    8.0823 H         1 ADP4003     0.0000 
     38 H           3.4117   26.9133   13.0399 H         1 ADP4003     0.0000 
     39 H           0.9047   28.0909   13.2819 H         1 ADP4003     0.0000 
@<TRIPOS>BOND
     1    2    1 ar   
     2    3    1 ar   
     3    4    1 ar   
     4    8    1 1    
     5    6    5 ar   
     6    7    5 ar   
     7    8    5 1    
     8    9    5 1    
     9   10    9 1    
    10   11   10 1    
    11   28   10 1    
    12   29   10 1    
    13   12   11 1    
    14   13   11 1    
    15   30   11 1    
    16   17   12 1    
    17   14   13 1    
    18   15   13 1    
    19   31   13 1    
    20   38   14 1    
    21   16   15 1    
    22   17   15 1    
    23   32   15 1    
    24   39   16 1    
    25   18   17 1    
    26   33   17 1    
    27   19   18 1    
    28   27   18 1    
    29   20   19 2    
    30   34   19 1    
    31   21   20 1    
    32   22   21 ar   
    33   27   21 ar   
    34   23   22 1    
    35   24   22 ar   
    36   35   23 1    
    37   36   23 1    
    38   25   24 ar   
    39   26   25 ar   
    40   37   25 1    
    41   27   26 ar   
@<TRIPOS>SUBSTRUCTURE
     1 ADP4003     1 GROUP   
@<TRIPOS>SET

