#    Name: 1qrp_HH0_1_INTS_M
#    Modification time : Mon Mar 24 23:51:36 2014

@<TRIPOS>MOLECULE
1qrp_HH0_1_INTS_M
  108     0     9     0     0
SMALL
NO_CHARGES


@<TRIPOS>ATOM
      1 CA          5.3550   22.4445    2.5830 C.3       3 GLC5        0.0000 
      2 CA          4.3490   20.8560    1.9560 C.3       9 GLL5        0.0000 
      3 CA          6.3610   24.0330    3.2100 C.3       6 GLP5        0.0000 
      4 CA          3.9340   22.7265    0.0080 C.3       3 GLC5        0.0000 
      5 CA          2.6200   21.3690    0.2280 C.3       9 GLL5        0.0000 
      6 CA          5.2480   24.0840   -0.2120 C.3       6 GLP5        0.0000 
      7 CA          1.8085   22.8295    1.4735 C.3       3 GLC5        0.0000 
      8 CA          0.9970   24.2900    2.7190 C.3       6 GLP5        0.0000 
      9 O           6.8555   21.4990    2.8490 O.2       1 ALC1        0.0000 
     10 O           6.4590   20.0240    2.8190 O.2       7 ALL1        0.0000 
     11 O           7.2520   22.9740    2.8790 O.2       4 ALP1        0.0000 
     12 N           6.6260   22.2865    5.6130 N.am      2 SEC2        0.0000 
     13 N           6.3480   20.8350    5.5820 N.am      8 SEL2        0.0000 
     14 N           6.9040   23.7380    5.6440 N.am      5 SEP2        0.0000 
     15 CA          7.8155   22.5170    3.6275 C.3       3 GLC5        0.0000 
     16 CA          9.2700   21.0010    4.0450 C.3       9 GLL5        0.0000 
     17 O           6.9560   17.2670    5.6430 O.2       1 ALC1        0.0000 
     18 O           6.5810   18.6560    6.0690 O.2       7 ALL1        0.0000 
     19 O           7.3310   15.8780    5.2170 O.2       4 ALP1        0.0000 
     20 CA          6.4755   20.8445    8.2285 C.3       3 GLC5        0.0000 
     21 CA          6.3010   18.7870    7.5050 C.3       9 GLL5        0.0000 
     22 CA          6.6500   22.9020    8.9520 C.3       6 GLP5        0.0000 
     23 N           6.6765   15.5395    7.9560 N.am      2 SEC2        0.0000 
     24 N           7.2330   16.7900    8.4790 N.am      8 SEL2        0.0000 
     25 N           6.1200   14.2890    7.4330 N.am      5 SEP2        0.0000 
     26 CA          4.5080   21.0200    7.7255 C.3       3 GLC5        0.0000 
     27 CA          3.8230   19.0450    6.9820 C.3       9 GLL5        0.0000 
     28 CA          5.1930   22.9950    8.4690 C.3       6 GLP5        0.0000 
     29 CA          2.1730   18.2910    7.9775 C.3       3 GLC5        0.0000 
     30 CA          0.5230   17.5370    8.9730 C.3       6 GLP5        0.0000 
     31 CA          2.5535   18.0705    9.1465 C.3       3 GLC5        0.0000 
     32 CA          4.5840   18.6040    9.3200 C.3       9 GLL5        0.0000 
     33 CA          4.2035   20.0900   10.8705 C.3       3 GLC5        0.0000 
     34 CA          3.8230   21.5760   12.4210 C.3       6 GLP5        0.0000 
     35 O           9.1595   19.9145    7.9095 O.2       1 ALC1        0.0000 
     36 O           8.5160   18.6450    8.4750 O.2       7 ALL1        0.0000 
     37 O           9.8030   21.1840    7.3440 O.2       4 ALP1        0.0000 
     38 N           6.9445   15.1025   11.3950 N.am      2 SEC2        0.0000 
     39 N           7.6610   15.7680   12.5840 N.am      8 SEL2        0.0000 
     40 N           6.2280   14.4370   10.2060 N.am      5 SEP2        0.0000 
     41 N           9.7980   21.5365   11.2125 N.am      2 SEC2        0.0000 
     42 N           9.5290   20.2870   10.6870 N.am      8 SEL2        0.0000 
     43 N          10.0670   22.7860   11.7380 N.am      5 SEP2        0.0000 
     44 N           8.1635   20.9645   10.1575 N.am      2 SEC2        0.0000 
     45 N           6.7980   21.6420    9.6280 N.am      5 SEP2        0.0000 
     46 CA         11.2050   20.3735    8.5470 C.3       3 GLC5        0.0000 
     47 CA         11.0060   18.2930    8.5490 C.3       9 GLL5        0.0000 
     48 CA         11.4040   22.4540    8.5450 C.3       6 GLP5        0.0000 
     49 CA         13.6540   19.6095    6.6550 C.3       3 GLC5        0.0000 
     50 CA         12.2460   18.2380    6.3860 C.3       9 GLL5        0.0000 
     51 CA         15.0620   20.9810    6.9240 C.3       6 GLP5        0.0000 
     52 CA         13.0865   17.3290    4.8310 C.3       3 GLC5        0.0000 
     53 CA         13.9270   16.4200    3.2760 C.3       6 GLP5        0.0000 
     54 CA         10.8350   14.9730    8.7335 C.3       3 GLC5        0.0000 
     55 CA         11.0100   16.1870    7.1000 C.3       9 GLL5        0.0000 
     56 CA         10.6600   13.7590   10.3670 C.3       6 GLP5        0.0000 
     57 CA         10.7210   15.2855    5.1815 C.3       3 GLC5        0.0000 
     58 CA         10.4320   14.3840    3.2630 C.3       6 GLP5        0.0000 
     59 O           9.7525   17.6965   14.7645 O.2       1 ALC1        0.0000 
     60 O           9.0280   16.4550   14.2490 O.2       7 ALL1        0.0000 
     61 O          10.4770   18.9380   15.2800 O.2       4 ALP1        0.0000 
     62 N           7.6010   16.2320   17.8450 N.am      2 SEC2        0.0000 
     63 N           8.2080   15.4990   16.8610 N.am      8 SEL2        0.0000 
     64 N           6.9940   16.9650   18.8290 N.am      5 SEP2        0.0000 
     65 CA         11.9680   16.0640   14.8230 C.3       3 GLC5        0.0000 
     66 CA         10.6700   14.9180   15.3040 C.3       9 GLL5        0.0000 
     67 CA         13.2660   17.2100   14.3420 C.3       6 GLP5        0.0000 
     68 CA         11.7095   13.2085   14.5995 C.3       3 GLC5        0.0000 
     69 CA         12.7490   11.4990   13.8950 C.3       6 GLP5        0.0000 
     70 O           8.0980   12.7975   14.6065 O.2       1 ALC1        0.0000 
     71 O           7.6010   13.6230   15.7470 O.2       7 ALL1        0.0000 
     72 O           8.5950   11.9720   13.4660 O.2       4 ALP1        0.0000 
     73 CA          7.0480   10.3040   14.6355 C.3       3 GLC5        0.0000 
     74 CA          6.3040   11.6210   16.2750 C.3       9 GLL5        0.0000 
     75 CA          7.7920    8.9870   12.9960 C.3       6 GLP5        0.0000 
     76 CA          4.8840   22.3866    0.0860 C.3       3 GLC5        0.0000 
     77 CA          4.9460   20.6970   -0.4890 C.3       9 GLL5        0.0000 
     78 CA          9.5695   17.4417    2.8887 C.3       3 GLC5        0.0000 
     79 CA          9.3430   19.0480    2.4940 C.3       9 GLL5        0.0000 
     80 CA         10.0730   15.5780    2.6250 C.3       6 GLP5        0.0000 
     81 CA         10.5205   20.6851    2.3374 C.3       3 GLC5        0.0000 
     82 CA         11.8730   21.2170    1.0760 C.3       6 GLP5        0.0000 
     83 CA          4.8345   16.5740    9.0457 C.3       3 GLC5        0.0000 
     84 CA          4.8780   18.3220    7.8410 C.3       9 GLL5        0.0000 
     85 CA          4.9380   14.6850    9.5110 C.3       6 GLP5        0.0000 
     86 CA          4.6843   17.0343    6.0628 C.3       3 GLC5        0.0000 
     87 CA          5.0180   15.3850    4.7140 C.3       6 GLP5        0.0000 
     88 CA          3.9388   19.6183   17.8720 C.3       3 GLC5        0.0000 
     89 CA          4.4580   17.6510   16.8210 C.3       9 GLL5        0.0000 
     90 CA          3.0790   20.9720   18.9840 C.3       6 GLP5        0.0000 
     91 CA         10.7670   16.4958   10.0135 C.3       3 GLC5        0.0000 
     92 CA          9.6420   18.0760    9.2250 C.3       9 GLL5        0.0000 
     93 CA         11.2100   14.8070   11.1400 C.3       6 GLP5        0.0000 
     94 CA          4.1120   18.9220   14.0757 C.3       3 GLC5        0.0000 
     95 CA          6.3390   18.6840   13.0730 C.3       9 GLL5        0.0000 
     96 CA          2.1700   19.3610   14.4020 C.3       6 GLP5        0.0000 
     97 CA          3.4663   18.2390   14.9057 C.3       3 GLC5        0.0000 
     98 CA          5.0800   17.0450   14.5410 C.3       9 GLL5        0.0000 
     99 CA         12.9192   16.1524    7.5275 C.3       3 GLC5        0.0000 
    100 CA         11.0160   17.7190    7.1180 C.3       9 GLL5        0.0000 
    101 CA         14.5180   15.2220    8.1290 C.3       6 GLP5        0.0000 
    102 CA          6.0205   20.8218   15.9438 C.3       3 GLC5        0.0000 
    103 CA          5.8170   19.1930   15.5080 C.3       9 GLL5        0.0000 
    104 CA          6.5630   22.6080   15.7840 C.3       6 GLP5        0.0000 
    105 CA          3.8240   19.1983   15.2527 C.3       3 GLC5        0.0000 
    106 CA          4.8793   20.2070   13.5249 C.3       3 GLC5        0.0000 
    107 CA         10.5848   14.9047   13.0925 C.3       3 GLC5        0.0000 
    108 CA          9.2490   15.0870   14.7860 C.3       9 GLL5        0.0000 
@<TRIPOS>BOND
@<TRIPOS>SUBSTRUCTURE
     1 ALC1        9 GROUP        1 X    ALC  0     ROOT ALC X 1
     2 SEC2       12 GROUP        1 X    SEC  0     **** SEC X 2
     3 GLC5        1 GROUP        1 X    GLC  0     **** GLC X 6
     4 ALP1       11 GROUP        1 Y    ALP  0     ROOT ALP Y 8
     5 SEP2       14 GROUP        1 Y    SEP  0     **** SEP Y 9
     6 GLP5        3 GROUP        1 Y    GLP  0     **** GLP Y 13
     7 ALL1       10 GROUP        1 Z    ALL  0     ROOT ALL Z 15
     8 SEL2       13 GROUP        1 Z    SEL  0     **** SEL Z 16
     9 GLL5        2 GROUP        1 Z    GLL  0     **** GLL Z 20
@<TRIPOS>SET

