#    Name: 1qrp_HH0_1_ligand
#    Modification time : Mon Mar 24 23:51:36 2014

@<TRIPOS>MOLECULE
1qrp_HH0_1_ligand
  111   111     1     0     0
SMALL
NO_CHARGES


@<TRIPOS>ATOM
      1 CA1         4.3490   20.8560    1.9560 C.3       1 HH0327      0.0000 
      2 CB1         3.8390   20.5070    0.5580 C.3       1 HH0327      0.0000 
      3 CZ2         4.9460   20.6970   -0.4890 C.3       1 HH0327      0.0000 
      4 CW1         2.6200   21.3690    0.2280 C.3       1 HH0327      0.0000 
      5 C1          5.1670   19.7470    2.6200 C.2       1 HH0327      0.0000 
      6 O1          4.6590   18.6520    2.8650 O.2       1 HH0327      0.0000 
      7 N1          6.4590   20.0240    2.8190 N.am      1 HH0327      0.0000 
      8 CA2         7.2540   19.3490    3.8610 C.3       1 HH0327      0.0000 
      9 C2          6.7380   19.7100    5.2760 C.2       1 HH0327      0.0000 
     10 O2          6.3480   20.8350    5.5820 O.2       1 HH0327      0.0000 
     11 CB2         8.7890   19.5630    3.8110 C.3       1 HH0327      0.0000 
     12 CG1         9.3430   19.0480    2.4940 C.3       1 HH0327      0.0000 
     13 CG2         9.2700   21.0010    4.0450 C.3       1 HH0327      0.0000 
     14 N3          6.5810   18.6560    6.0690 N.am      1 HH0327      0.0000 
     15 CA3         6.3010   18.7870    7.5050 C.3       1 HH0327      0.0000 
     16 C3          7.3670   17.9890    8.2810 C.2       1 HH0327      0.0000 
     17 O3          7.2330   16.7900    8.4790 O.2       1 HH0327      0.0000 
     18 CB3         4.8780   18.3220    7.8410 C.3       1 HH0327      0.0000 
     19 CO2         3.8230   19.0450    6.9820 C.3       1 HH0327      0.0000 
     20 CP1         4.5840   18.6040    9.3200 C.3       1 HH0327      0.0000 
     21 C5          8.2160   16.6490   13.2200 C.2       1 HH0327      0.0000 
     22 N5          8.5160   18.6450    8.4750 N.am      1 HH0327      0.0000 
     23 O5          7.6610   15.7680   12.5840 O.2       1 HH0327      0.0000 
     24 P5          9.5190   18.8320   10.8860 P.3       1 HH0327      0.0000 
     25 CZ          4.4580   17.6510   16.8210 C.ar      1 HH0327      0.0000 
     26 O11         9.5290   20.2870   10.6870 O.co2     1 HH0327      0.0000 
     27 O21        10.6880   18.2770   11.5980 O.co2     1 HH0327      0.0000 
     28 CA4         9.6420   18.0760    9.2250 C.3       1 HH0327      0.0000 
     29 CA5         7.8160   18.1510   12.9230 C.3       1 HH0327      0.0000 
     30 OA5         8.0890   18.4250   11.5400 O.3       1 HH0327      0.0000 
     31 CB4        11.0060   18.2930    8.5490 C.3       1 HH0327      0.0000 
     32 CB5         6.3390   18.6840   13.0730 C.3       1 HH0327      0.0000 
     33 CE2         4.4320   16.7270   15.7350 C.ar      1 HH0327      0.0000 
     34 CG4        11.0160   17.7190    7.1180 C.3       1 HH0327      0.0000 
     35 CG5         5.7690   18.2820   14.4260 C.ar      1 HH0327      0.0000 
     36 CJ2         5.0800   17.0450   14.5410 C.ar      1 HH0327      0.0000 
     37 CN1        12.2460   18.2380    6.3860 C.3       1 HH0327      0.0000 
     38 CM2        11.0100   16.1870    7.1000 C.3       1 HH0327      0.0000 
     39 CU1         5.8170   19.1930   15.5080 C.ar      1 HH0327      0.0000 
     40 CV1         5.1390   18.8780   16.6990 C.ar      1 HH0327      0.0000 
     41 N6          9.0280   16.4550   14.2490 N.am      1 HH0327      0.0000 
     42 CA6         9.2490   15.0870   14.7860 C.3       1 HH0327      0.0000 
     43 C6          8.3040   14.7500   15.9110 C.2       1 HH0327      0.0000 
     44 O6          8.2080   15.4990   16.8610 O.2       1 HH0327      0.0000 
     45 CB6        10.6700   14.9180   15.3040 C.3       1 HH0327      0.0000 
     46 N7          7.6010   13.6230   15.7470 N.am      1 HH0327      0.0000 
     47 CA7         6.6920   13.0280   16.7470 C.3       1 HH0327      0.0000 
     48 C7          7.3520   12.9430   18.1390 C.2       1 HH0327      0.0000 
     49 O7          8.3030   12.1820   18.3420 O.2       1 HH0327      0.0000 
     50 CB7         6.3040   11.6210   16.2750 C.3       1 HH0327      0.0000 
     51 O77         7.2980   13.4590   19.4960 O.3       1 HH0327      0.0000 
     52 C99         8.4280   13.2570   20.3890 C.3       1 HH0327      0.0000 
     53 H           3.4872   21.0982    2.6007 H         1 HH0327      0.0000 
     54 H           4.9680   21.7670    1.8936 H         1 HH0327      0.0000 
     55 H           3.5351   19.4683    0.5544 H         1 HH0327      0.0000 
     56 H           6.9730   20.7285    2.2518 H         1 HH0327      0.0000 
     57 H           7.0942   18.2410    3.7752 H         1 HH0327      0.0000 
     58 H           9.2330   18.9293    4.6066 H         1 HH0327      0.0000 
     59 H           6.6478   17.6754    5.7162 H         1 HH0327      0.0000 
     60 H           6.3992   19.8306    7.7985 H         1 HH0327      0.0000 
     61 H           4.7996   17.2662    7.6735 H         1 HH0327      0.0000 
     62 H           8.6725   19.6085    8.0976 H         1 HH0327      0.0000 
     63 H           3.9763   17.4139   17.6916 H         1 HH0327      0.0000 
     64 H           9.4683   17.0402    9.4598 H         1 HH0327      0.0000 
     65 H           8.4579   18.8096   13.5189 H         1 HH0327      0.0000 
     66 H          11.7783   17.7997    9.1347 H         1 HH0327      0.0000 
     67 H          11.2184   19.3588    8.5055 H         1 HH0327      0.0000 
     68 H           5.7462   18.2570   12.2754 H         1 HH0327      0.0000 
     69 H           6.3609   19.7616   12.9813 H         1 HH0327      0.0000 
     70 H           3.9384   15.8416   15.8443 H         1 HH0327      0.0000 
     71 H          10.1374   18.0792    6.6000 H         1 HH0327      0.0000 
     72 H           5.0658   16.4020   13.7502 H         1 HH0327      0.0000 
     73 H           6.3355   20.0618   15.4214 H         1 HH0327      0.0000 
     74 H           5.1397   19.5406   17.4790 H         1 HH0327      0.0000 
     75 H           9.5406   17.2078   14.7276 H         1 HH0327      0.0000 
     76 H           9.1038   14.3529   13.9917 H         1 HH0327      0.0000 
     77 H           7.6655   13.0708   14.8406 H         1 HH0327      0.0000 
     78 H           5.7915   13.6111   16.8294 H         1 HH0327      0.0000 
     79 H           5.2780   21.6400   -0.5115 H         1 HH0327      0.0000 
     80 H           5.7361   20.1125   -0.3044 H         1 HH0327      0.0000 
     81 H           4.6272   20.4764   -1.4108 H         1 HH0327      0.0000 
     82 H           2.8378   22.3447    0.2515 H         1 HH0327      0.0000 
     83 H           2.2608   21.1707   -0.6840 H         1 HH0327      0.0000 
     84 H           1.8731   21.2197    0.8760 H         1 HH0327      0.0000 
     85 H          10.3332   19.1739    2.4330 H         1 HH0327      0.0000 
     86 H           9.1636   18.0718    2.3720 H         1 HH0327      0.0000 
     87 H           8.9387   19.5205    1.7109 H         1 HH0327      0.0000 
     88 H          10.2666   21.0711    4.0007 H         1 HH0327      0.0000 
     89 H           8.9012   21.6317    3.3622 H         1 HH0327      0.0000 
     90 H           8.9915   21.3444    4.9419 H         1 HH0327      0.0000 
     91 H           3.8508   20.0356    7.1156 H         1 HH0327      0.0000 
     92 H           3.9603   18.8769    6.0058 H         1 HH0327      0.0000 
     93 H           2.8950   18.7453    7.2033 H         1 HH0327      0.0000 
     94 H           5.2209   18.1241    9.9233 H         1 HH0327      0.0000 
     95 H           4.6555   19.5783    9.5337 H         1 HH0327      0.0000 
     96 H           3.6620   18.3144    9.5772 H         1 HH0327      0.0000 
     97 H          13.0925   17.9698    6.8458 H         1 HH0327      0.0000 
     98 H          12.2968   17.8878    5.4507 H         1 HH0327      0.0000 
     99 H          12.2487   19.2362    6.3258 H         1 HH0327      0.0000 
    100 H          11.0178   15.8265    6.1673 H         1 HH0327      0.0000 
    101 H          11.8079   15.8070    7.5678 H         1 HH0327      0.0000 
    102 H          10.1999   15.8134    7.5518 H         1 HH0327      0.0000 
    103 H          11.3478   15.0645   14.5835 H         1 HH0327      0.0000 
    104 H          10.8774   15.5653   16.0375 H         1 HH0327      0.0000 
    105 H          10.8251   14.0005   15.6702 H         1 HH0327      0.0000 
    106 H           7.1039   11.0295   16.1736 H         1 HH0327      0.0000 
    107 H           5.6861   11.1704   16.9193 H         1 HH0327      0.0000 
    108 H           5.8402   11.6411   15.3893 H         1 HH0327      0.0000 
    109 H           9.2638   13.6728   20.0303 H         1 HH0327      0.0000 
    110 H           8.2650   13.6575   21.2907 H         1 HH0327      0.0000 
    111 H           8.6209   12.2860   20.5301 H         1 HH0327      0.0000 
@<TRIPOS>BOND
     1    2    1 1    
     2    5    1 1    
     3   53    1 1    
     4   54    1 1    
     5    3    2 1    
     6    4    2 1    
     7   55    2 1    
     8   79    3 1    
     9   80    3 1    
    10   81    3 1    
    11   82    4 1    
    12   83    4 1    
    13   84    4 1    
    14    6    5 2    
    15    7    5 am   
    16    8    7 1    
    17   56    7 1    
    18    9    8 1    
    19   11    8 1    
    20   57    8 1    
    21   10    9 2    
    22   14    9 am   
    23   12   11 1    
    24   13   11 1    
    25   58   11 1    
    26   85   12 1    
    27   86   12 1    
    28   87   12 1    
    29   88   13 1    
    30   89   13 1    
    31   90   13 1    
    32   15   14 1    
    33   59   14 1    
    34   16   15 1    
    35   18   15 1    
    36   60   15 1    
    37   17   16 2    
    38   22   16 am   
    39   19   18 1    
    40   20   18 1    
    41   61   18 1    
    42   91   19 1    
    43   92   19 1    
    44   93   19 1    
    45   94   20 1    
    46   95   20 1    
    47   96   20 1    
    48   23   21 2    
    49   29   21 1    
    50   41   21 am   
    51   28   22 1    
    52   62   22 1    
    53   26   24 ar   
    54   27   24 ar   
    55   28   24 1    
    56   30   24 1    
    57   33   25 ar   
    58   40   25 ar   
    59   63   25 1    
    60   31   28 1    
    61   64   28 1    
    62   30   29 1    
    63   32   29 1    
    64   65   29 1    
    65   34   31 1    
    66   66   31 1    
    67   67   31 1    
    68   35   32 1    
    69   68   32 1    
    70   69   32 1    
    71   36   33 ar   
    72   70   33 1    
    73   37   34 1    
    74   38   34 1    
    75   71   34 1    
    76   36   35 ar   
    77   39   35 ar   
    78   72   36 1    
    79   97   37 1    
    80   98   37 1    
    81   99   37 1    
    82  100   38 1    
    83  101   38 1    
    84  102   38 1    
    85   40   39 ar   
    86   73   39 1    
    87   74   40 1    
    88   42   41 1    
    89   75   41 1    
    90   43   42 1    
    91   45   42 1    
    92   76   42 1    
    93   44   43 2    
    94   46   43 am   
    95  103   45 1    
    96  104   45 1    
    97  105   45 1    
    98   47   46 1    
    99   77   46 1    
   100   48   47 1    
   101   50   47 1    
   102   78   47 1    
   103   49   48 2    
   104   51   48 1    
   105  106   50 1    
   106  107   50 1    
   107  108   50 1    
   108   52   51 1    
   109  109   52 1    
   110  110   52 1    
   111  111   52 1    
@<TRIPOS>SUBSTRUCTURE
     1 HH0327      1 GROUP   
@<TRIPOS>SET

