#    Name: 1xuc_PB3_2_INTS_M
#    Modification time : Tue Mar 25 10:41:31 2014

@<TRIPOS>MOLECULE
1xuc_PB3_2_INTS_M
   81     0     9     0     0
SMALL
NO_CHARGES


@<TRIPOS>ATOM
      1 CA         30.1435   -1.0370   60.6755 C.3       3 GLC5        0.0000 
      2 CA         30.6440   -2.6410   59.6910 C.3       9 GLL5        0.0000 
      3 CA         29.6430    0.5670   61.6600 C.3       6 GLP5        0.0000 
      4 CA         30.9765   -4.7495   59.6725 C.3       3 GLC5        0.0000 
      5 CA         31.3090   -6.8580   59.6540 C.3       6 GLP5        0.0000 
      6 CA         29.0000   -1.9265   61.5695 C.3       3 GLC5        0.0000 
      7 CA         29.2850   -2.6390   59.9730 C.3       9 GLL5        0.0000 
      8 CA         28.7150   -1.2140   63.1660 C.3       6 GLP5        0.0000 
      9 CA         29.0335   -0.7655   60.3465 C.3       3 GLC5        0.0000 
     10 CA         28.4240   -2.0980   59.0330 C.3       9 GLL5        0.0000 
     11 CA         28.0970   -0.4495   57.5470 C.3       3 GLC5        0.0000 
     12 CA         27.7700    1.1990   56.0610 C.3       6 GLP5        0.0000 
     13 CA         21.9000    2.8935   60.6175 C.3       3 GLC5        0.0000 
     14 CA         21.1500    1.2540   61.5000 C.3       9 GLL5        0.0000 
     15 CA         22.6500    4.5330   59.7350 C.3       6 GLP5        0.0000 
     16 CA         37.2885    1.5855   64.3760 C.3       3 GLC5        0.0000 
     17 CA         37.0800   -0.5950   64.6160 C.3       9 GLL5        0.0000 
     18 CA         37.4970    3.7660   64.1360 C.3       6 GLP5        0.0000 
     19 CA         38.2000   -2.3855   64.8545 C.3       3 GLC5        0.0000 
     20 CA         39.3200   -4.1760   65.0930 C.3       6 GLP5        0.0000 
     21 CA         38.3980   -1.2710   63.3270 C.3       3 GLC5        0.0000 
     22 CA         39.7160   -1.9470   62.0380 C.3       6 GLP5        0.0000 
     23 CA         24.0220   -1.4635   56.8205 C.3       3 GLC5        0.0000 
     24 CA         24.8200   -0.9750   58.7420 C.3       9 GLL5        0.0000 
     25 CA         23.2240   -1.9520   54.8990 C.3       6 GLP5        0.0000 
     26 CA         37.6010   -1.9140   62.5590 C.3       3 GLC5        0.0000 
     27 CA         35.4860   -1.8810   63.0800 C.3       9 GLL5        0.0000 
     28 CA         31.3045    0.1345   64.2915 C.3       3 GLC5        0.0000 
     29 CA         33.2300   -0.7280   64.4830 C.3       9 GLL5        0.0000 
     30 CA         29.3790    0.9970   64.1000 C.3       6 GLP5        0.0000 
     31 CA         27.0105    1.5315   59.7390 C.3       3 GLC5        0.0000 
     32 CA         25.3770    0.5400   60.7820 C.3       9 GLL5        0.0000 
     33 CA         28.6440    2.5230   58.6960 C.3       6 GLP5        0.0000 
     34 CA         21.6620   -1.4845   59.7465 C.3       3 GLC5        0.0000 
     35 CA         23.0100    0.1580   60.1460 C.3       9 GLL5        0.0000 
     36 CA         20.3140   -3.1270   59.3470 C.3       6 GLP5        0.0000 
     37 CA         29.0225   -0.1815   56.7940 C.3       3 GLC5        0.0000 
     38 CA         30.2750   -1.5620   57.5270 C.3       9 GLL5        0.0000 
     39 CA         30.8890   -1.1650   55.6590 C.3       3 GLC5        0.0000 
     40 CA         31.5030   -0.7680   53.7910 C.3       6 GLP5        0.0000 
     41 O          26.3680   -1.1170   56.8980 O.2       1 ALC1        0.0000 
     42 O          26.2900   -1.1590   58.5720 O.2       7 ALL1        0.0000 
     43 O          26.4460   -1.0750   55.2240 O.2       4 ALP1        0.0000 
     44 O          25.9940    0.2705   57.8680 O.2       1 ALC1        0.0000 
     45 O          25.6980    1.7000   57.1640 O.2       4 ALP1        0.0000 
     46 CA         35.4650   -4.6710   61.6460 C.3       3 GLC5        0.0000 
     47 CA         33.9560   -3.1970   61.5070 C.3       9 GLL5        0.0000 
     48 CA         36.9740   -6.1450   61.7850 C.3       6 GLP5        0.0000 
     49 CA         33.8495   -1.2050   60.7755 C.3       3 GLC5        0.0000 
     50 CA         33.7430    0.7870   60.0440 C.3       6 GLP5        0.0000 
     51 CA         30.8790   -1.4255   63.2780 C.3       3 GLC5        0.0000 
     52 CA         33.0430   -1.6370   63.3900 C.3       9 GLL5        0.0000 
     53 N          30.9655   -5.2660   62.0240 N.am      2 SEC2        0.0000 
     54 N          31.2650   -3.9850   61.5930 N.am      8 SEL2        0.0000 
     55 N          30.6660   -6.5470   62.4550 N.am      5 SEP2        0.0000 
     56 N          32.2480   -5.1245   61.2850 N.am      2 SEC2        0.0000 
     57 N          33.2310   -6.2640   60.9770 N.am      5 SEP2        0.0000 
     58 N          25.6410   -3.6235   60.8195 N.am      2 SEC2        0.0000 
     59 N          26.3960   -2.7630   60.1440 N.am      8 SEL2        0.0000 
     60 N          24.8860   -4.4840   61.4950 N.am      5 SEP2        0.0000 
     61 CA         36.2463    0.0790   62.6155 C.3       3 GLC5        0.0000 
     62 CA         35.6670   -0.9670   64.1780 C.3       9 GLL5        0.0000 
     63 CA         36.1190    0.9390   60.8340 C.3       6 GLP5        0.0000 
     64 CA         23.8068    2.0602   59.7763 C.3       3 GLC5        0.0000 
     65 CA         24.3970   -0.0830   59.9010 C.3       9 GLL5        0.0000 
     66 CA         23.9100    4.0830   59.5290 C.3       6 GLP5        0.0000 
     67 CA         35.4715   -0.5575   61.8552 C.3       3 GLC5        0.0000 
     68 CA         34.1620   -2.2270   62.6730 C.3       9 GLL5        0.0000 
     69 CA         26.9855    0.6188   62.1065 C.3       3 GLC5        0.0000 
     70 CA         28.7880    0.2810   62.8860 C.3       6 GLP5        0.0000 
     71 CA         25.1870    2.6673   60.7875 C.3       3 GLC5        0.0000 
     72 CA         25.1910    4.3780   60.2480 C.3       6 GLP5        0.0000 
     73 CA         24.0149   -1.4888   61.0354 C.3       3 GLC5        0.0000 
     74 CA         23.0370   -2.9830   62.0190 C.3       6 GLP5        0.0000 
     75 CA         25.1635    2.6620   63.2440 C.3       3 GLC5        0.0000 
     76 CA         24.9890    1.3730   61.8720 C.3       9 GLL5        0.0000 
     77 CA         26.0310    3.8350   64.5000 C.3       6 GLP5        0.0000 
     78 CA         23.5138    2.6923   60.6010 C.3       3 GLC5        0.0000 
     79 CA         23.6030    1.6050   62.1040 C.3       9 GLL5        0.0000 
     80 CA         22.9290   -1.2025   61.3565 C.3       3 GLC5        0.0000 
     81 CA         22.6320    0.9980   61.2420 C.3       9 GLL5        0.0000 
@<TRIPOS>BOND
@<TRIPOS>SUBSTRUCTURE
     1 ALC1       41 GROUP        1 X    ALC  0     ROOT ALC X 1
     2 SEC2       53 GROUP        1 X    SEC  0     **** SEC X 2
     3 GLC5        1 GROUP        1 X    GLC  0     **** GLC X 6
     4 ALP1       43 GROUP        1 Y    ALP  0     ROOT ALP Y 8
     5 SEP2       55 GROUP        1 Y    SEP  0     **** SEP Y 9
     6 GLP5        3 GROUP        1 Y    GLP  0     **** GLP Y 13
     7 ALL1       42 GROUP        1 Z    ALL  0     ROOT ALL Z 15
     8 SEL2       54 GROUP        1 Z    SEL  0     **** SEL Z 16
     9 GLL5        2 GROUP        1 Z    GLL  0     **** GLL Z 20
@<TRIPOS>SET

