#    Name: 1xuc_PB3_2_ligand
#    Modification time : Tue Mar 25 10:41:31 2014

@<TRIPOS>MOLECULE
1xuc_PB3_2_ligand
   50    52     1     0     0
SMALL
NO_CHARGES


@<TRIPOS>ATOM
      1 C1         30.6440   -2.6410   59.6910 C.ar      1 PB33001     0.0000 
      2 C2         29.2850   -2.6390   59.9730 C.ar      1 PB33001     0.0000 
      3 C3         28.4240   -2.0980   59.0330 C.ar      1 PB33001     0.0000 
      4 N6         31.1330   -2.1070   58.4800 N.ar      1 PB33001     0.0000 
      5 C7         21.1500    1.2540   61.5000 C.3       1 PB33001     0.0000 
      6 C8         37.0800   -0.5950   64.6160 C.3       1 PB33001     0.0000 
      7 C9         27.0010   -2.0790   59.3170 C.2       1 PB33001     0.0000 
      8 C11        24.8200   -0.9750   58.7420 C.3       1 PB33001     0.0000 
      9 C12        24.3970   -0.0830   59.9010 C.ar      1 PB33001     0.0000 
     10 C15        31.5610   -3.1970   60.6780 C.2       1 PB33001     0.0000 
     11 C21        35.4860   -1.8810   63.0800 C.ar      1 PB33001     0.0000 
     12 C24        33.2300   -0.7280   64.4830 C.ar      1 PB33001     0.0000 
     13 C30        25.3770    0.5400   60.7820 C.ar      1 PB33001     0.0000 
     14 C31        24.9890    1.3730   61.8720 C.ar      1 PB33001     0.0000 
     15 C32        23.6030    1.6050   62.1040 C.ar      1 PB33001     0.0000 
     16 C34        23.0100    0.1580   60.1460 C.ar      1 PB33001     0.0000 
     17 N4         28.9090   -1.5610   57.8180 N.ar      1 PB33001     0.0000 
     18 C5         30.2750   -1.5620   57.5270 C.ar      1 PB33001     0.0000 
     19 N10        26.2900   -1.1590   58.5720 N.am      1 PB33001     0.0000 
     20 N16        32.8850   -2.7650   60.5790 N.am      1 PB33001     0.0000 
     21 C17        33.9560   -3.1970   61.5070 C.3       1 PB33001     0.0000 
     22 C18        34.1620   -2.2270   62.6730 C.ar      1 PB33001     0.0000 
     23 C4         35.6670   -0.9670   64.1780 C.ar      1 PB33001     0.0000 
     24 C23        34.5540   -0.3930   64.8780 C.ar      1 PB33001     0.0000 
     25 C25        33.0430   -1.6370   63.3900 C.ar      1 PB33001     0.0000 
     26 C6         22.6320    0.9980   61.2420 C.ar      1 PB33001     0.0000 
     27 O41        31.2650   -3.9850   61.5930 O.2       1 PB33001     0.0000 
     28 O42        26.3960   -2.7630   60.1440 O.2       1 PB33001     0.0000 
     29 H          28.9330   -3.0242   60.8455 H         1 PB33001     0.0000 
     30 H          24.3873   -0.5565   57.8040 H         1 PB33001     0.0000 
     31 H          24.3340   -1.9695   58.8720 H         1 PB33001     0.0000 
     32 H          36.2879   -2.2688   62.6081 H         1 PB33001     0.0000 
     33 H          32.4331   -0.3363   64.9594 H         1 PB33001     0.0000 
     34 H          26.3712    0.3658   60.6013 H         1 PB33001     0.0000 
     35 H          25.6864    1.7917   62.4699 H         1 PB33001     0.0000 
     36 H          23.3021    2.1932   62.8704 H         1 PB33001     0.0000 
     37 H          22.3058   -0.2575   59.5554 H         1 PB33001     0.0000 
     38 H          30.6251   -1.1827   56.6605 H         1 PB33001     0.0000 
     39 H          26.7440   -0.5622   57.8688 H         1 PB33001     0.0000 
     40 H          33.1686   -2.1069   59.8282 H         1 PB33001     0.0000 
     41 H          34.9120   -3.2935   60.9658 H         1 PB33001     0.0000 
     42 H          33.7208   -4.1909   61.9228 H         1 PB33001     0.0000 
     43 H          34.7163    0.2453   65.6468 H         1 PB33001     0.0000 
     44 H          32.0907   -1.8849   63.0975 H         1 PB33001     0.0000 
     45 H          20.8713    0.9398   62.4075 H         1 PB33001     0.0000 
     46 H          20.9261    2.2271   61.4452 H         1 PB33001     0.0000 
     47 H          20.5704    0.7820   60.8357 H         1 PB33001     0.0000 
     48 H          37.6009   -1.3965   64.9098 H         1 PB33001     0.0000 
     49 H          37.5970   -0.1646   63.8761 H         1 PB33001     0.0000 
     50 H          37.0743    0.0478   65.3820 H         1 PB33001     0.0000 
@<TRIPOS>BOND
     1    2    1 ar   
     2    4    1 ar   
     3   10    1 1    
     4    3    2 ar   
     5   29    2 1    
     6    7    3 1    
     7   17    3 ar   
     8   18    4 ar   
     9   26    5 1    
    10   45    5 1    
    11   46    5 1    
    12   47    5 1    
    13   23    6 1    
    14   48    6 1    
    15   49    6 1    
    16   50    6 1    
    17   19    7 am   
    18   28    7 2    
    19    9    8 1    
    20   19    8 1    
    21   30    8 1    
    22   31    8 1    
    23   13    9 ar   
    24   16    9 ar   
    25   20   10 am   
    26   27   10 2    
    27   22   11 ar   
    28   23   11 ar   
    29   32   11 1    
    30   24   12 ar   
    31   25   12 ar   
    32   33   12 1    
    33   14   13 ar   
    34   34   13 1    
    35   15   14 ar   
    36   35   14 1    
    37   26   15 ar   
    38   36   15 1    
    39   26   16 ar   
    40   37   16 1    
    41   18   17 ar   
    42   38   18 1    
    43   39   19 1    
    44   21   20 1    
    45   40   20 1    
    46   22   21 1    
    47   41   21 1    
    48   42   21 1    
    49   25   22 ar   
    50   24   23 ar   
    51   43   24 1    
    52   44   25 1    
@<TRIPOS>SUBSTRUCTURE
     1 PB33001     1 GROUP   
@<TRIPOS>SET

