#    Name: 3iw6_PP0_1_INTS_M
#    Modification time : Tue Mar 25 17:35:23 2014

@<TRIPOS>MOLECULE
3iw6_PP0_1_INTS_M
   77     0     6     0     0
SMALL
NO_CHARGES


@<TRIPOS>ATOM
      1 CA        -24.4930   -5.0640    4.8750 C.3       2 GLC5        0.0000 
      2 CA        -24.6350   -3.5520    5.0890 C.3       6 GLL5        0.0000 
      3 CA        -24.3510   -6.5760    4.6610 C.3       4 GLP5        0.0000 
      4 CA        -21.0225    2.2875    5.1445 C.3       2 GLC5        0.0000 
      5 CA        -20.5200    0.5160    5.4200 C.3       6 GLL5        0.0000 
      6 CA        -21.5250    4.0590    4.8690 C.3       4 GLP5        0.0000 
      7 CA        -18.8300    1.1285    6.0605 C.3       2 GLC5        0.0000 
      8 CA        -17.1400    1.7410    6.7010 C.3       4 GLP5        0.0000 
      9 CA        -22.1950   -5.6705    5.6240 C.3       2 GLC5        0.0000 
     10 CA        -21.4380   -4.2950    6.9290 C.3       6 GLL5        0.0000 
     11 CA        -22.9520   -7.0460    4.3190 C.3       4 GLP5        0.0000 
     12 N         -18.2595   -2.4995    8.8080 N.am      1 SEC2        0.0000 
     13 N         -18.6560   -2.3790    7.4650 N.am      5 SEL2        0.0000 
     14 N         -17.8630   -2.6200   10.1510 N.am      3 SEP2        0.0000 
     15 N         -19.5510   -2.0235    8.6880 N.am      1 SEC2        0.0000 
     16 N         -20.4460   -1.6680    9.9110 N.am      3 SEP2        0.0000 
     17 CA        -12.8355   -8.5240    4.1990 C.3       2 GLC5        0.0000 
     18 CA        -13.6040   -6.8870    2.8680 C.3       6 GLL5        0.0000 
     19 CA        -12.0670  -10.1610    5.5300 C.3       4 GLP5        0.0000 
     20 CA        -16.1745   -6.6230    4.5935 C.3       2 GLC5        0.0000 
     21 CA        -14.9240   -6.4280    2.9100 C.3       6 GLL5        0.0000 
     22 CA        -17.4250   -6.8180    6.2770 C.3       4 GLP5        0.0000 
     23 CA        -24.3855   -4.9550    6.2680 C.3       2 GLC5        0.0000 
     24 CA        -24.0790   -2.9870    6.4260 C.3       6 GLL5        0.0000 
     25 CA        -24.6920   -6.9230    6.1100 C.3       4 GLP5        0.0000 
     26 CA        -22.9880   -2.4265    8.2480 C.3       2 GLC5        0.0000 
     27 CA        -21.8970   -1.8660   10.0700 C.3       4 GLP5        0.0000 
     28 CA        -19.0500   -5.1970    2.9435 C.3       2 GLC5        0.0000 
     29 CA        -18.3530   -3.1080    2.9830 C.3       6 GLL5        0.0000 
     30 CA        -19.7470   -7.2860    2.9040 C.3       4 GLP5        0.0000 
     31 CA        -16.9805   -5.2230    5.4375 C.3       2 GLC5        0.0000 
     32 CA        -16.5360   -3.6280    4.5980 C.3       6 GLL5        0.0000 
     33 CA        -17.8820   -0.3365    3.2580 C.3       2 GLC5        0.0000 
     34 CA        -18.7910   -1.9620    3.8940 C.3       6 GLL5        0.0000 
     35 CA        -16.9730    1.2890    2.6220 C.3       4 GLP5        0.0000 
     36 CA        -16.9980   -0.3425    6.0695 C.3       2 GLC5        0.0000 
     37 CA        -16.8560   -2.4260    5.4380 C.3       6 GLL5        0.0000 
     38 CA        -15.8030   -0.7865    4.5860 C.3       2 GLC5        0.0000 
     39 CA        -14.7500    0.8530    3.7340 C.3       4 GLP5        0.0000 
     40 CA        -17.9865   -5.7825    1.4515 C.3       2 GLC5        0.0000 
     41 CA        -16.7110   -4.6870    2.4710 C.3       6 GLL5        0.0000 
     42 CA        -19.2620   -6.8780    0.4320 C.3       4 GLP5        0.0000 
     43 CA        -17.0680   -5.7525    4.3740 C.3       2 GLC5        0.0000 
     44 CA        -23.4595   -3.1972    4.0462 C.3       2 GLC5        0.0000 
     45 CA        -22.5620   -3.1250    2.3350 C.3       4 GLP5        0.0000 
     46 CA        -20.8280   -4.7315    7.8585 C.3       2 GLC5        0.0000 
     47 CA        -21.6140   -2.8590    6.4690 C.3       6 GLL5        0.0000 
     48 CA        -20.1300   -5.8860    9.0180 C.3       4 GLP5        0.0000 
     49 CA        -21.7115   -2.7215    8.3845 C.3       2 GLC5        0.0000 
     50 CA        -11.1185   -5.1727    1.3357 C.3       2 GLC5        0.0000 
     51 CA        -12.9130   -4.7890    1.8950 C.3       6 GLL5        0.0000 
     52 CA         -9.4870   -4.9170    0.5440 C.3       4 GLP5        0.0000 
     53 CA        -12.1773   -7.9567    1.8325 C.3       2 GLC5        0.0000 
     54 CA        -12.5870   -6.0680    2.3600 C.3       6 GLL5        0.0000 
     55 CA        -11.2590   -9.4360    1.0510 C.3       4 GLP5        0.0000 
     56 CA        -13.2888   -5.8407    4.2975 C.3       2 GLC5        0.0000 
     57 CA        -13.4820   -5.2040    5.9810 C.3       4 GLP5        0.0000 
     58 CA        -14.9345   -7.6872    1.5615 C.3       2 GLC5        0.0000 
     59 CA        -15.6050   -8.7170    0.2340 C.3       4 GLP5        0.0000 
     60 CA        -12.7340   -3.1643    3.3440 C.3       2 GLC5        0.0000 
     61 CA        -14.2390   -4.3260    1.9250 C.3       6 GLL5        0.0000 
     62 CA        -11.8920   -1.7710    4.7780 C.3       4 GLP5        0.0000 
     63 CA        -13.5290   -4.8807    3.9455 C.3       2 GLC5        0.0000 
     64 CA        -14.2815   -5.4972    4.3283 C.3       2 GLC5        0.0000 
     65 CA        -15.2380   -5.1530    2.4410 C.3       6 GLL5        0.0000 
     66 CA        -15.0847   -5.7683    0.4140 C.3       2 GLC5        0.0000 
     67 CA        -15.4310   -6.7970   -1.3550 C.3       4 GLP5        0.0000 
     68 CA        -20.1435   -2.5410    2.3433 C.3       2 GLC5        0.0000 
     69 CA        -21.7150   -2.5470    1.2480 C.3       4 GLP5        0.0000 
     70 CA        -14.7975   -2.2980    5.4680 C.3       2 GLC5        0.0000 
     71 CA        -12.8990   -1.5690    5.9180 C.3       4 GLP5        0.0000 
     72 CA        -15.0890   -4.1155    5.4995 C.3       2 GLC5        0.0000 
     73 CA        -21.8314   -1.5308    8.0030 C.3       2 GLC5        0.0000 
     74 CA        -22.6080   -1.0350    5.8570 C.3       6 GLL5        0.0000 
     75 CA        -22.2785    0.4790    7.2186 C.3       2 GLC5        0.0000 
     76 CA        -22.8140    1.5400    8.6990 C.3       4 GLP5        0.0000 
     77 CA        -22.2502   -2.3481    4.1922 C.3       2 GLC5        0.0000 
@<TRIPOS>BOND
@<TRIPOS>SUBSTRUCTURE
     1 SEC2       12 GROUP        1 X    SEC  0     ROOT SEC X 2
     2 GLC5        1 GROUP        1 X    GLC  0     **** GLC X 6
     3 SEP2       14 GROUP        1 Y    SEP  0     ROOT SEP Y 9
     4 GLP5        3 GROUP        1 Y    GLP  0     **** GLP Y 13
     5 SEL2       13 GROUP        1 Z    SEL  0     ROOT SEL Z 16
     6 GLL5        2 GROUP        1 Z    GLL  0     **** GLL Z 20
@<TRIPOS>SET

