#    Name: 3iw6_PP0_1_ligand
#    Modification time : Tue Mar 25 17:35:23 2014

@<TRIPOS>MOLECULE
3iw6_PP0_1_ligand
   61    63     1     0     0
SMALL
NO_CHARGES


@<TRIPOS>ATOM
      1 CAA       -27.3760    0.2050    6.2160 C.3       1 PP0361      0.0000 
      2 CAB       -24.6350   -3.5520    5.0890 C.3       1 PP0361      0.0000 
      3 CAC       -20.5200    0.5160    5.4200 C.3       1 PP0361      0.0000 
      4 CAD       -21.4380   -4.2950    6.9290 C.3       1 PP0361      0.0000 
      5 OAE       -23.5060    0.9790    4.9150 O.2       1 PP0361      0.0000 
      6 OAF       -18.6560   -2.3790    7.4650 O.2       1 PP0361      0.0000 
      7 CAG       -12.5870   -6.0680    2.3600 C.ar      1 PP0361      0.0000 
      8 CAH       -13.6040   -6.8870    2.8680 C.ar      1 PP0361      0.0000 
      9 CAI       -12.9130   -4.7890    1.8950 C.ar      1 PP0361      0.0000 
     10 CAJ       -14.9240   -6.4280    2.9100 C.ar      1 PP0361      0.0000 
     11 CAK       -14.2390   -4.3260    1.9250 C.ar      1 PP0361      0.0000 
     12 CAL       -26.1300    0.4040    5.3190 C.3       1 PP0361      0.0000 
     13 CAM       -24.0790   -2.9870    6.4260 C.3       1 PP0361      0.0000 
     14 CAN       -18.3530   -3.1080    2.9830 C.3       1 PP0361      0.0000 
     15 CAO       -16.5360   -3.6280    4.5980 C.3       1 PP0361      0.0000 
     16 CAP       -18.7910   -1.9620    3.8940 C.3       1 PP0361      0.0000 
     17 CAQ       -16.8560   -2.4260    5.4380 C.3       1 PP0361      0.0000 
     18 CAR       -16.7110   -4.6870    2.4710 C.3       1 PP0361      0.0000 
     19 OAS       -25.0430   -0.4830    5.7380 O.3       1 PP0361      0.0000 
     20 CAT       -23.7510   -0.0900    5.4800 C.2       1 PP0361      0.0000 
     21 CAU       -19.1130   -2.1750    6.3470 C.2       1 PP0361      0.0000 
     22 CAV       -15.2380   -5.1530    2.4410 C.ar      1 PP0361      0.0000 
     23 CAW       -21.2360   -0.7740    5.8190 C.2       1 PP0361      0.0000 
     24 CAX       -21.6140   -2.8590    6.4690 C.2       1 PP0361      0.0000 
     25 CAY       -20.6110   -1.9380    6.2110 C.2       1 PP0361      0.0000 
     26 CAZ       -22.6080   -1.0350    5.8570 C.2       1 PP0361      0.0000 
     27 NBA       -16.9090   -3.4180    3.1820 N.4       1 PP0361      0.0000 
     28 NBB       -18.3010   -2.1800    5.2700 N.am      1 PP0361      0.0000 
     29 NBC       -22.7880   -2.3010    6.2440 N.pl3     1 PP0361      0.0000 
     30 H         -11.6245   -6.3994    2.3299 H         1 PP0361      0.0000 
     31 H         -13.3775   -7.8285    3.2107 H         1 PP0361      0.0000 
     32 H         -12.1713   -4.1760    1.5247 H         1 PP0361      0.0000 
     33 H         -15.6636   -7.0332    3.2879 H         1 PP0361      0.0000 
     34 H         -14.4648   -3.3961    1.5730 H         1 PP0361      0.0000 
     35 H         -25.8317    1.4538    5.3904 H         1 PP0361      0.0000 
     36 H         -26.4270    0.2025    4.2859 H         1 PP0361      0.0000 
     37 H         -23.9798   -3.8269    7.1260 H         1 PP0361      0.0000 
     38 H         -24.8318   -2.3006    6.8353 H         1 PP0361      0.0000 
     39 H         -18.5370   -2.8196    1.9453 H         1 PP0361      0.0000 
     40 H         -18.9617   -3.9867    3.2093 H         1 PP0361      0.0000 
     41 H         -17.0718   -4.5006    5.0011 H         1 PP0361      0.0000 
     42 H         -15.4594   -3.8426    4.6739 H         1 PP0361      0.0000 
     43 H         -19.8825   -1.9064    3.8802 H         1 PP0361      0.0000 
     44 H         -18.3945   -1.0272    3.4895 H         1 PP0361      0.0000 
     45 H         -16.2849   -1.5802    5.0889 H         1 PP0361      0.0000 
     46 H         -16.6253   -2.6363    6.4705 H         1 PP0361      0.0000 
     47 H         -17.3068   -5.4925    2.9379 H         1 PP0361      0.0000 
     48 H         -17.0570   -4.6055    1.4244 H         1 PP0361      0.0000 
     49 H         -16.3097   -2.6669    2.7295 H         1 PP0361      0.0000 
     50 H         -27.1785    0.4051    7.1757 H         1 PP0361      0.0000 
     51 H         -28.1303    0.8013    5.9415 H         1 PP0361      0.0000 
     52 H         -27.7159   -0.7346    6.1764 H         1 PP0361      0.0000 
     53 H         -24.0108   -4.2168    4.6786 H         1 PP0361      0.0000 
     54 H         -25.5124   -4.0142    5.2174 H         1 PP0361      0.0000 
     55 H         -24.7803   -2.8300    4.4126 H         1 PP0361      0.0000 
     56 H         -19.9527    0.8710    6.1631 H         1 PP0361      0.0000 
     57 H         -19.9192    0.3790    4.6324 H         1 PP0361      0.0000 
     58 H         -21.1661    1.2384    5.1736 H         1 PP0361      0.0000 
     59 H         -20.9051   -4.8318    6.2749 H         1 PP0361      0.0000 
     60 H         -20.9632   -4.3480    7.8075 H         1 PP0361      0.0000 
     61 H         -22.3165   -4.7591    7.0422 H         1 PP0361      0.0000 
@<TRIPOS>BOND
     1   12    1 1    
     2   50    1 1    
     3   51    1 1    
     4   52    1 1    
     5   13    2 1    
     6   53    2 1    
     7   54    2 1    
     8   55    2 1    
     9   23    3 1    
    10   56    3 1    
    11   57    3 1    
    12   58    3 1    
    13   24    4 1    
    14   59    4 1    
    15   60    4 1    
    16   61    4 1    
    17   20    5 2    
    18   21    6 2    
    19    8    7 ar   
    20    9    7 ar   
    21   30    7 1    
    22   10    8 ar   
    23   31    8 1    
    24   11    9 ar   
    25   32    9 1    
    26   22   10 ar   
    27   33   10 1    
    28   22   11 ar   
    29   34   11 1    
    30   19   12 1    
    31   35   12 1    
    32   36   12 1    
    33   29   13 1    
    34   37   13 1    
    35   38   13 1    
    36   16   14 1    
    37   27   14 1    
    38   39   14 1    
    39   40   14 1    
    40   17   15 1    
    41   27   15 1    
    42   41   15 1    
    43   42   15 1    
    44   28   16 1    
    45   43   16 1    
    46   44   16 1    
    47   28   17 1    
    48   45   17 1    
    49   46   17 1    
    50   22   18 1    
    51   27   18 1    
    52   47   18 1    
    53   48   18 1    
    54   20   19 1    
    55   26   20 1    
    56   25   21 1    
    57   28   21 am   
    58   25   23 1    
    59   26   23 2    
    60   25   24 2    
    61   29   24 1    
    62   29   26 1    
    63   49   27 1    
@<TRIPOS>SUBSTRUCTURE
     1 PP0361      1 GROUP   
@<TRIPOS>SET

