#    Name: 1lb2_CMP_1_INTS_M
#    Modification time : Tue Mar 25 11:05:48 2014

@<TRIPOS>MOLECULE
1lb2_CMP_1_INTS_M
   57     0    12     0     0
SMALL
NO_CHARGES


@<TRIPOS>ATOM
      1 N           2.2745   90.9925   11.2260 N.am      2 SEC2        0.0000 
      2 N           1.7480   89.8500   10.5570 N.am     10 SEL2        0.0000 
      3 N           2.8010   92.1350   11.8950 N.am      6 SEP2        0.0000 
      4 N           1.4695   91.1250    9.9955 N.am      2 SEC2        0.0000 
      5 N           1.1910   92.4000    9.4340 N.am      6 SEP2        0.0000 
      6 NZ          0.3360   87.2355   12.9915 N.4       3 LYC4        0.0000 
      7 NZ          0.6260   88.0010   11.9900 N.4      11 LYL4        0.0000 
      8 NZ          0.3140   86.5690   15.2850 N.4       7 LYP4        0.0000 
      9 N           0.3360   87.2355   12.9915 N.am      2 SEC2        0.0000 
     10 N           0.6260   88.0010   11.9900 N.am     10 SEL2        0.0000 
     11 N           0.0460   86.4700   13.9930 N.am      6 SEP2        0.0000 
     12 N           1.3520   91.2550   12.0575 N.am      2 SEC2        0.0000 
     13 N          -0.0970   90.3750   12.2200 N.am     10 SEL2        0.0000 
     14 CA         -1.1350   91.1285   13.7090 C.3       4 GLC5        0.0000 
     15 CA         -0.9270   91.4330   11.7470 C.3      12 GLL5        0.0000 
     16 CA         -1.3430   90.8240   15.6710 C.3       8 GLP5        0.0000 
     17 CA          0.5495   91.2900   13.3915 C.3       4 GLC5        0.0000 
     18 CA          2.0260   91.1470   15.0360 C.3       8 GLP5        0.0000 
     19 CA          0.9915   92.3435   11.3570 C.3       4 GLC5        0.0000 
     20 CA          2.9100   93.2540   10.9670 C.3       8 GLP5        0.0000 
     21 CA         -0.3825   93.4750   12.1060 C.3       4 GLC5        0.0000 
     22 CA          0.1620   95.5170   12.4650 C.3       8 GLP5        0.0000 
     23 N          -3.3275   88.1965   10.0960 N.am      2 SEC2        0.0000 
     24 N          -3.3550   89.0220    9.1180 N.am     10 SEL2        0.0000 
     25 N          -3.3000   87.3710   11.0740 N.am      6 SEP2        0.0000 
     26 O          -3.1320   88.5565    7.8085 O.2       1 ALC1        0.0000 
     27 O          -3.3550   89.0220    9.1180 O.2       9 ALL1        0.0000 
     28 O          -2.9090   88.0910    6.4990 O.2       5 ALP1        0.0000 
     29 O          -3.4295   87.9135    8.6415 O.2       1 ALC1        0.0000 
     30 O          -3.5040   86.8050    8.1650 O.2       5 ALP1        0.0000 
     31 CA         -3.7160   93.2435    9.1395 C.3       4 GLC5        0.0000 
     32 CA         -3.1800   91.4220    8.9210 C.3      12 GLL5        0.0000 
     33 CA         -4.2520   95.0650    9.3580 C.3       8 GLP5        0.0000 
     34 O          -2.7475   95.2710    2.8310 O.2       1 ALC1        0.0000 
     35 O          -2.1980   95.0330    4.1620 O.2       9 ALL1        0.0000 
     36 O          -3.2970   95.5090    1.5000 O.2       5 ALP1        0.0000 
     37 CA         -5.6125   93.3580    7.3375 C.3       4 GLC5        0.0000 
     38 CA         -4.9430   93.0330    5.2550 C.3      12 GLL5        0.0000 
     39 CA         -6.2820   93.6830    9.4200 C.3       8 GLP5        0.0000 
     40 CA         -6.2465   94.3840    5.3805 C.3       4 GLC5        0.0000 
     41 CA         -7.5500   95.7350    5.5060 C.3       8 GLP5        0.0000 
     42 CA         -5.2300   91.3070    4.4775 C.3       4 GLC5        0.0000 
     43 CA         -5.5170   89.5810    3.7000 C.3       8 GLP5        0.0000 
     44 CA         -3.1322   91.8570   12.2757 C.3       4 GLC5        0.0000 
     45 CA         -1.9420   90.8590   10.8220 C.3      12 GLL5        0.0000 
     46 CA         -4.8300   92.5680   13.2670 C.3       8 GLP5        0.0000 
     47 CA         -2.0242   88.6774   10.5336 C.3       4 GLC5        0.0000 
     48 CA         -2.4850   90.0690    8.6970 C.3      12 GLL5        0.0000 
     49 CA         -2.0000   87.0440   11.6100 C.3       8 GLP5        0.0000 
     50 CA         -0.9199   90.5239    8.0855 C.3       4 GLC5        0.0000 
     51 CA         -1.2820   90.2460    9.6130 C.3      12 GLL5        0.0000 
     52 CA          0.6920   90.2580    7.1330 C.3       8 GLP5        0.0000 
     53 CA         -3.6005   94.1495    7.9155 C.3       4 GLC5        0.0000 
     54 CA         -3.3860   92.8010    6.8040 C.3      12 GLL5        0.0000 
     55 CA         -2.4672   95.6005    5.7373 C.3       4 GLC5        0.0000 
     56 CA         -2.5120   93.6670    6.1420 C.3      12 GLL5        0.0000 
     57 CA         -2.2020   97.2600    5.9430 C.3       8 GLP5        0.0000 
@<TRIPOS>BOND
@<TRIPOS>SUBSTRUCTURE
     1 ALC1       26 GROUP        1 X    ALC  0     ROOT ALC X 1
     2 SEC2        1 GROUP        1 X    SEC  0     **** SEC X 2
     3 LYC4        6 GROUP        1 X    LYC  0     **** LYC X 4
     4 GLC5       14 GROUP        1 X    GLC  0     **** GLC X 6
     5 ALP1       28 GROUP        1 Y    ALP  0     ROOT ALP Y 8
     6 SEP2        3 GROUP        1 Y    SEP  0     **** SEP Y 9
     7 LYP4        8 GROUP        1 Y    LYP  0     **** LYP Y 11
     8 GLP5       16 GROUP        1 Y    GLP  0     **** GLP Y 13
     9 ALL1       27 GROUP        1 Z    ALL  0     ROOT ALL Z 15
    10 SEL2        2 GROUP        1 Z    SEL  0     **** SEL Z 16
    11 LYL4        7 GROUP        1 Z    LYL  0     **** LYL Z 18
    12 GLL5       15 GROUP        1 Z    GLL  0     **** GLL Z 20
@<TRIPOS>SET

