#    Name: 1lb2_CMP_1_ligand
#    Modification time : Tue Mar 25 11:05:48 2014

@<TRIPOS>MOLECULE
1lb2_CMP_1_ligand
   33    36     1     0     0
SMALL
NO_CHARGES


@<TRIPOS>ATOM
      1 P           0.5160   89.2790   11.2110 P.3       1 CMP679      0.0000 
      2 O1P         1.7480   89.8500   10.5570 O.co2     1 CMP679      0.0000 
      3 O2P         0.6260   88.0010   11.9900 O.co2     1 CMP679      0.0000 
      4 O5'        -0.0970   90.3750   12.2200 O.3       1 CMP679      0.0000 
      5 C5'        -0.9270   91.4330   11.7470 C.3       1 CMP679      0.0000 
      6 C4'        -1.9420   90.8590   10.8220 C.3       1 CMP679      0.0000 
      7 O4'        -2.7680   91.8780   10.2140 O.3       1 CMP679      0.0000 
      8 C3'        -1.2820   90.2460    9.6130 C.3       1 CMP679      0.0000 
      9 O3'        -0.6160   89.0970   10.0730 O.3       1 CMP679      0.0000 
     10 C2'        -2.4850   90.0690    8.6970 C.3       1 CMP679      0.0000 
     11 O2'        -3.3550   89.0220    9.1180 O.3       1 CMP679      0.0000 
     12 C1'        -3.1800   91.4220    8.9210 C.3       1 CMP679      0.0000 
     13 N9         -2.7150   92.3880    7.9340 N.pl3     1 CMP679      0.0000 
     14 C8         -1.4980   93.0500    7.9160 C.2       1 CMP679      0.0000 
     15 N7         -1.3280   93.8210    6.8580 N.2       1 CMP679      0.0000 
     16 C5         -2.5120   93.6670    6.1420 C.ar      1 CMP679      0.0000 
     17 C6         -2.9530   94.2150    4.9210 C.ar      1 CMP679      0.0000 
     18 N6         -2.1980   95.0330    4.1620 N.pl3     1 CMP679      0.0000 
     19 N1         -4.2060   93.8800    4.4950 N.ar      1 CMP679      0.0000 
     20 C2         -4.9430   93.0330    5.2550 C.ar      1 CMP679      0.0000 
     21 N3         -4.6240   92.4390    6.4130 N.ar      1 CMP679      0.0000 
     22 C4         -3.3860   92.8010    6.8040 C.ar      1 CMP679      0.0000 
     23 H          -0.3437   92.1867   11.2072 H         1 CMP679      0.0000 
     24 H          -1.4446   91.9333   12.5724 H         1 CMP679      0.0000 
     25 H          -2.5361   90.1219   11.2899 H         1 CMP679      0.0000 
     26 H          -0.6463   90.9972    9.2062 H         1 CMP679      0.0000 
     27 H          -2.1668   90.0300    7.7090 H         1 CMP679      0.0000 
     28 H          -4.2228   91.2794    8.8709 H         1 CMP679      0.0000 
     29 H          -0.8329   92.9320    8.6525 H         1 CMP679      0.0000 
     30 H          -2.6171   95.3578    3.3141 H         1 CMP679      0.0000 
     31 H          -1.2858   95.2425    4.5141 H         1 CMP679      0.0000 
     32 H          -5.9497   92.8032    4.8580 H         1 CMP679      0.0000 
     33 H          -3.5310   88.4845    8.2933 H         1 CMP679      0.0000 
@<TRIPOS>BOND
     1    2    1 ar   
     2    3    1 ar   
     3    4    1 1    
     4    9    1 1    
     5    5    4 1    
     6    6    5 1    
     7   23    5 1    
     8   24    5 1    
     9    7    6 1    
    10    8    6 1    
    11   25    6 1    
    12   12    7 1    
    13    9    8 1    
    14   10    8 1    
    15   26    8 1    
    16   11   10 1    
    17   12   10 1    
    18   27   10 1    
    19   33   11 1    
    20   13   12 1    
    21   28   12 1    
    22   14   13 1    
    23   22   13 1    
    24   15   14 2    
    25   29   14 1    
    26   16   15 1    
    27   17   16 ar   
    28   22   16 ar   
    29   18   17 1    
    30   19   17 ar   
    31   30   18 1    
    32   31   18 1    
    33   20   19 ar   
    34   21   20 ar   
    35   32   20 1    
    36   22   21 ar   
@<TRIPOS>SUBSTRUCTURE
     1 CMP679      1 GROUP   
@<TRIPOS>SET

