#    Name: 4emv_0R9_1_INTS_M
#    Modification time : Mon Mar 24 18:17:55 2014

@<TRIPOS>MOLECULE
4emv_0R9_1_INTS_M
   79     0    12     0     0
SMALL
NO_CHARGES


@<TRIPOS>ATOM
      1 CA         19.6670   34.8045   -0.2190 C.3       4 GLC5        0.0000 
      2 CA         19.3020   34.4080    1.7060 C.3      12 GLL5        0.0000 
      3 CA         20.0320   35.2010   -2.1440 C.3       8 GLP5        0.0000 
      4 CA         17.2510   35.2415    1.3885 C.3       4 GLC5        0.0000 
      5 CA         15.2000   36.0750    1.0710 C.3       8 GLP5        0.0000 
      6 CA         20.1580   36.0605    2.8820 C.3       4 GLC5        0.0000 
      7 CA         21.0140   37.7130    4.0580 C.3       8 GLP5        0.0000 
      8 CA         18.5720   30.9415    1.3255 C.3       4 GLC5        0.0000 
      9 CA         19.1460   32.9100    1.7140 C.3      12 GLL5        0.0000 
     10 CA         17.9980   28.9730    0.9370 C.3       8 GLP5        0.0000 
     11 O          16.8920   33.4000    2.5400 O.2       1 ALC1        0.0000 
     12 O          18.0210   32.5050    2.5230 O.2       9 ALL1        0.0000 
     13 O          15.7630   34.2950    2.5570 O.2       5 ALP1        0.0000 
     14 N          19.6260   29.3980    2.4970 N.am      2 SEC2        0.0000 
     15 N          19.1160   30.6600    3.3010 N.am     10 SEL2        0.0000 
     16 N          20.1360   28.1360    1.6930 N.am      6 SEP2        0.0000 
     17 CA         18.0515   32.6975    5.0455 C.3       4 GLC5        0.0000 
     18 CA         17.0040   31.1430    4.1680 C.3      12 GLL5        0.0000 
     19 CA         19.0990   34.2520    5.9230 C.3       8 GLP5        0.0000 
     20 CA         12.3340   31.8430    4.8645 C.3       4 GLC5        0.0000 
     21 CA         13.2400   31.2540    6.5240 C.3      12 GLL5        0.0000 
     22 CA         11.4280   32.4320    3.2050 C.3       8 GLP5        0.0000 
     23 CA         13.2410   31.9355    4.2275 C.3       4 GLC5        0.0000 
     24 CA         15.0540   31.4390    5.2500 C.3      12 GLL5        0.0000 
     25 CA         16.3970   33.1810    5.4820 C.3       4 GLC5        0.0000 
     26 CA         17.7400   34.9230    5.7140 C.3       8 GLP5        0.0000 
     27 O          15.8510   33.1405    3.4580 O.2       1 ALC1        0.0000 
     28 O          15.9390   31.9860    4.3590 O.2       9 ALL1        0.0000 
     29 CA         11.0255   31.9390    8.7530 C.3       4 GLC5        0.0000 
     30 CA         12.0730   30.0370    9.0020 C.3      12 GLL5        0.0000 
     31 CA          9.9780   33.8410    8.5040 C.3       8 GLP5        0.0000 
     32 CA         14.0210   30.9495    9.4865 C.3       4 GLC5        0.0000 
     33 CA         15.9690   31.8620    9.9710 C.3       8 GLP5        0.0000 
     34 CA          9.6650   30.7605    9.0465 C.3       4 GLC5        0.0000 
     35 CA         11.1950   29.3530    9.8230 C.3      12 GLL5        0.0000 
     36 CA          8.1350   32.1680    8.2700 C.3       8 GLP5        0.0000 
     37 NZ         11.3175   32.1870   11.7555 N.4       3 LYC4        0.0000 
     38 NZ         10.6020   31.2200   11.1350 N.4      11 LYL4        0.0000 
     39 NZ         11.7240   33.9090   13.4280 N.4       7 LYP4        0.0000 
     40 N          11.3175   32.1870   11.7555 N.am      2 SEC2        0.0000 
     41 N          10.6020   31.2200   11.1350 N.am     10 SEL2        0.0000 
     42 N          12.0330   33.1540   12.3760 N.am      6 SEP2        0.0000 
     43 CA         16.3615   23.1560    8.8380 C.3       4 GLC5        0.0000 
     44 CA         16.3130   24.8190    9.5880 C.3      12 GLL5        0.0000 
     45 CA         16.4100   21.4930    8.0880 C.3       8 GLP5        0.0000 
     46 CA         18.1905   27.8485    9.5780 C.3       4 GLC5        0.0000 
     47 CA         16.9730   26.7430   10.4120 C.3      12 GLL5        0.0000 
     48 CA         19.4080   28.9540    8.7440 C.3       8 GLP5        0.0000 
     49 CA         17.5020   26.4125   12.1240 C.3       4 GLC5        0.0000 
     50 CA         18.0310   26.0820   13.8360 C.3       8 GLP5        0.0000 
     51 CA         18.4910   25.8850   10.1940 C.3       4 GLC5        0.0000 
     52 CA         20.0090   25.0270    9.9760 C.3       8 GLP5        0.0000 
     53 CA         14.5710   27.4905   11.5510 C.3       4 GLC5        0.0000 
     54 CA         14.8670   26.1980   10.4970 C.3      12 GLL5        0.0000 
     55 CA         14.2750   28.7830   12.6050 C.3       8 GLP5        0.0000 
     56 CA         20.7505   32.9095    0.6235 C.3       4 GLC5        0.0000 
     57 CA         22.2770   32.1600   -0.4630 C.3       8 GLP5        0.0000 
     58 CA         17.7165   33.4870    0.2030 C.3       4 GLC5        0.0000 
     59 CA         16.2090   33.3150   -1.3040 C.3       8 GLP5        0.0000 
     60 CA         19.1615   33.9555    3.8165 C.3       4 GLC5        0.0000 
     61 CA         20.9535   33.5110    2.7580 C.3       4 GLC5        0.0000 
     62 CA         22.6830   33.3630    3.8060 C.3       8 GLP5        0.0000 
     63 CA         17.4430   29.7828    2.7525 C.3       4 GLC5        0.0000 
     64 CA         17.3180   30.8582    6.4235 C.3       4 GLC5        0.0000 
     65 CA         17.7480   31.1240    8.2790 C.3       8 GLP5        0.0000 
     66 CA         14.6930   31.2503    8.3725 C.3       4 GLC5        0.0000 
     67 CA         13.5940   30.0230    7.0240 C.3      12 GLL5        0.0000 
     68 CA         16.4290   30.8846    6.9800 C.3       4 GLC5        0.0000 
     69 CA         15.5430   30.2160    5.6570 C.3      12 GLL5        0.0000 
     70 CA         13.3991   29.5106   10.3278 C.3       4 GLC5        0.0000 
     71 CA         12.6860   29.3700    7.9540 C.3      12 GLL5        0.0000 
     72 CA         15.0110   29.4930   11.5050 C.3       8 GLP5        0.0000 
     73 CA         16.7145   26.1330    5.1850 C.3       4 GLC5        0.0000 
     74 CA         15.5640   27.1720    6.2460 C.3      12 GLL5        0.0000 
     75 CA         17.6980   25.5950    3.6840 C.3       8 GLP5        0.0000 
     76 CA         15.7437   27.9650   10.7850 C.3       4 GLC5        0.0000 
     77 CA         15.9800   26.1310    9.7180 C.3      12 GLL5        0.0000 
     78 CA         17.7647   24.6120    9.5585 C.3       4 GLC5        0.0000 
     79 CA         19.3830   23.7490    9.4640 C.3       8 GLP5        0.0000 
@<TRIPOS>BOND
@<TRIPOS>SUBSTRUCTURE
     1 ALC1       11 GROUP        1 X    ALC  0     ROOT ALC X 1
     2 SEC2       14 GROUP        1 X    SEC  0     **** SEC X 2
     3 LYC4       37 GROUP        1 X    LYC  0     **** LYC X 4
     4 GLC5        1 GROUP        1 X    GLC  0     **** GLC X 6
     5 ALP1       13 GROUP        1 Y    ALP  0     ROOT ALP Y 8
     6 SEP2       16 GROUP        1 Y    SEP  0     **** SEP Y 9
     7 LYP4       39 GROUP        1 Y    LYP  0     **** LYP Y 11
     8 GLP5        3 GROUP        1 Y    GLP  0     **** GLP Y 13
     9 ALL1       12 GROUP        1 Z    ALL  0     ROOT ALL Z 15
    10 SEL2       15 GROUP        1 Z    SEL  0     **** SEL Z 16
    11 LYL4       38 GROUP        1 Z    LYL  0     **** LYL Z 18
    12 GLL5        2 GROUP        1 Z    GLL  0     **** GLL Z 20
@<TRIPOS>SET

