#    Name: 4emv_0R9_1_ligand
#    Modification time : Mon Mar 24 18:17:55 2014

@<TRIPOS>MOLECULE
4emv_0R9_1_ligand
   46    49     1     0     0
SMALL
NO_CHARGES


@<TRIPOS>ATOM
      1 C1         19.3020   34.4080    1.7060 C.3       1 0R9301      0.0000 
      2 C2         19.1460   32.9100    1.7140 C.3       1 0R9301      0.0000 
      3 N3         18.0210   32.5050    2.5230 N.am      1 0R9301      0.0000 
      4 C4         18.1310   31.3880    3.3110 C.2       1 0R9301      0.0000 
      5 O5         19.1160   30.6600    3.3010 O.2       1 0R9301      0.0000 
      6 C6         17.0040   31.1430    4.1680 C.2       1 0R9301      0.0000 
      7 C7         16.7720   30.0420    4.9680 C.2       1 0R9301      0.0000 
      8 C8         15.5430   30.2160    5.6570 C.ar      1 0R9301      0.0000 
      9 C9         14.7890   29.4870    6.5670 C.ar      1 0R9301      0.0000 
     10 C10        13.5940   30.0230    7.0240 C.ar      1 0R9301      0.0000 
     11 C11        13.2400   31.2540    6.5240 C.ar      1 0R9301      0.0000 
     12 N12        13.9170   32.0040    5.6490 N.ar      1 0R9301      0.0000 
     13 C13        15.0540   31.4390    5.2500 C.ar      1 0R9301      0.0000 
     14 N14        15.9390   31.9860    4.3590 N.pl3     1 0R9301      0.0000 
     15 C15        12.6860   29.3700    7.9540 C.ar      1 0R9301      0.0000 
     16 C16        12.0730   30.0370    9.0020 C.ar      1 0R9301      0.0000 
     17 C17        11.1950   29.3530    9.8230 C.ar      1 0R9301      0.0000 
     18 C18        10.9700   28.0210    9.5560 C.ar      1 0R9301      0.0000 
     19 N19        11.5330   27.3320    8.5620 N.ar      1 0R9301      0.0000 
     20 C20        12.3670   28.0370    7.7900 C.ar      1 0R9301      0.0000 
     21 C21        10.4890   29.9760   10.9660 C.2       1 0R9301      0.0000 
     22 O22        10.6020   31.2200   11.1350 O.co2     1 0R9301      0.0000 
     23 O23         9.8040   29.1960   11.6870 O.co2     1 0R9301      0.0000 
     24 N24        15.2480   28.2520    7.0210 N.pl3     1 0R9301      0.0000 
     25 C25        15.5640   27.1720    6.2460 C.2       1 0R9301      0.0000 
     26 C26        15.8980   26.1700    7.1260 C.2       1 0R9301      0.0000 
     27 C27        15.7540   26.7510    8.4080 C.2       1 0R9301      0.0000 
     28 N28        15.3580   28.0230    8.3400 N.2       1 0R9301      0.0000 
     29 C29        15.9800   26.1310    9.7180 C.3       1 0R9301      0.0000 
     30 F30        16.3130   24.8190    9.5880 F         1 0R9301      0.0000 
     31 F31        16.9730   26.7430   10.4120 F         1 0R9301      0.0000 
     32 F32        14.8670   26.1980   10.4970 F         1 0R9301      0.0000 
     33 H          20.0817   32.4652    2.0914 H         1 0R9301      0.0000 
     34 H          19.0247   32.5677    0.6729 H         1 0R9301      0.0000 
     35 H          17.1712   33.0634    2.4861 H         1 0R9301      0.0000 
     36 H          17.3320   29.2783    5.0584 H         1 0R9301      0.0000 
     37 H          12.2924   31.6534    6.8938 H         1 0R9301      0.0000 
     38 H          15.8292   32.8460    3.9249 H         1 0R9301      0.0000 
     39 H          12.2695   31.0311    9.1671 H         1 0R9301      0.0000 
     40 H          10.2843   27.5116   10.2093 H         1 0R9301      0.0000 
     41 H          12.8410   27.5344    6.9611 H         1 0R9301      0.0000 
     42 H          15.5563   27.1198    5.3080 H         1 0R9301      0.0000 
     43 H          16.1612   25.3020    6.9453 H         1 0R9301      0.0000 
     44 H          19.4510   34.7708    2.6259 H         1 0R9301      0.0000 
     45 H          20.0792   34.6975    1.1473 H         1 0R9301      0.0000 
     46 H          18.4912   34.8639    1.3389 H         1 0R9301      0.0000 
@<TRIPOS>BOND
     1    2    1 1    
     2   44    1 1    
     3   45    1 1    
     4   46    1 1    
     5    3    2 1    
     6   33    2 1    
     7   34    2 1    
     8    4    3 am   
     9   35    3 1    
    10    5    4 2    
    11    6    4 1    
    12    7    6 2    
    13   14    6 1    
    14    8    7 1    
    15   36    7 1    
    16    9    8 ar   
    17   13    8 ar   
    18   10    9 ar   
    19   24    9 1    
    20   11   10 ar   
    21   15   10 1    
    22   12   11 ar   
    23   37   11 1    
    24   13   12 ar   
    25   14   13 1    
    26   38   14 1    
    27   16   15 ar   
    28   20   15 ar   
    29   17   16 ar   
    30   39   16 1    
    31   18   17 ar   
    32   21   17 1    
    33   19   18 ar   
    34   40   18 1    
    35   20   19 ar   
    36   41   20 1    
    37   22   21 ar   
    38   23   21 ar   
    39   25   24 1    
    40   28   24 1    
    41   26   25 2    
    42   42   25 1    
    43   27   26 1    
    44   43   26 1    
    45   28   27 2    
    46   29   27 1    
    47   30   29 1    
    48   31   29 1    
    49   32   29 1    
@<TRIPOS>SUBSTRUCTURE
     1 0R9301      1 GROUP   
@<TRIPOS>SET

