#    Name: 3U57_2_CAVITY_N1_6.mol2
#    Modification time : Tue Mar 11 06:04:46 2014

@<TRIPOS>MOLECULE
3U57_2_CAVITY_N1_6.mol2
  160     0     6     0     0
SMALL
NO_CHARGES


@<TRIPOS>ATOM
      1 NZ         65.2296   27.3027   25.4243 N.2       3 LYS4        0.0000 
      2 CA         64.7220   26.2298   24.5071 C.3       5 GLY6        0.0000 
      3 O          65.9291   25.3946   24.8160 O.2       2 ALA2        0.0000 
      4 CA         63.0073   25.9921   23.2810 C.3       5 GLY6        0.0000 
      5 OG         64.2144   25.1569   23.5899 O.2       1 SER1        0.0000 
      6 DU         65.4214   24.3217   23.8988 H         6 CUB7        0.0000 
      7 CZ         62.4997   24.9192   22.3638 C.ar      4 PHE5        0.0000 
      8 CZ         63.7068   24.0840   22.6727 C.ar      4 PHE5        0.0000 
      9 DU         64.9138   23.2488   22.9816 H         6 CUB7        0.0000 
     10 O          66.4689   29.0091   25.1954 O.2       2 ALA2        0.0000 
     11 CA         65.9613   27.9362   24.2782 C.3       5 GLY6        0.0000 
     12 O          67.1684   27.1010   24.5872 O.2       2 ALA2        0.0000 
     13 CZ         71.9966   23.7602   25.8228 C.ar      4 PHE5        0.0000 
     14 CA         64.2466   27.6985   23.0521 C.3       5 GLY6        0.0000 
     15 OG         65.4537   26.8633   23.3611 O.2       1 SER1        0.0000 
     16 O          66.6607   26.0281   23.6700 O.2       2 ALA2        0.0000 
     17 O          67.8678   25.1929   23.9789 O.2       2 ALA2        0.0000 
     18 CZ         69.0749   24.3577   24.2878 C.ar      4 PHE5        0.0000 
     19 CZ         70.2819   23.5225   24.5967 C.ar      4 PHE5        0.0000 
     20 CZ         71.4890   22.6873   24.9056 C.ar      4 PHE5        0.0000 
     21 N          72.6960   21.8521   25.2146 N.2       2 ALA2        0.0000 
     22 OG         63.7390   26.6257   22.1350 O.2       1 SER1        0.0000 
     23 OG         66.1531   24.9552   22.7528 O.2       1 SER1        0.0000 
     24 DU         67.3602   24.1200   23.0617 H         6 CUB7        0.0000 
     25 DU         68.5672   23.2848   23.3706 H         6 CUB7        0.0000 
     26 DU         69.7743   22.4496   23.6795 H         6 CUB7        0.0000 
     27 DU         70.9814   21.6144   23.9885 H         6 CUB7        0.0000 
     28 N          72.1884   20.7792   24.2974 N.2       2 ALA2        0.0000 
     29 N          73.3955   19.9440   24.6063 N.2       2 ALA2        0.0000 
     30 N          66.8525   23.0472   22.1445 N.2       2 ALA2        0.0000 
     31 N          68.0596   22.2120   22.4534 N.2       2 ALA2        0.0000 
     32 N          69.2667   21.3767   22.7624 N.2       2 ALA2        0.0000 
     33 CZ         70.4737   20.5415   23.0713 C.ar      4 PHE5        0.0000 
     34 O          67.6808   31.3055   19.3853 O.2       2 ALA2        0.0000 
     35 O          68.8879   30.4703   19.6942 O.2       2 ALA2        0.0000 
     36 DU         70.0949   29.6351   20.0031 H         6 CUB7        0.0000 
     37 CZ         71.3020   28.7999   20.3120 C.ar      4 PHE5        0.0000 
     38 CZ         72.5091   27.9647   20.6209 C.ar      4 PHE5        0.0000 
     39 CZ         73.7161   27.1295   20.9299 C.ar      4 PHE5        0.0000 
     40 CZ         74.9232   26.2943   21.2388 C.ar      4 PHE5        0.0000 
     41 O          68.3802   29.3974   18.7770 O.2       2 ALA2        0.0000 
     42 O          70.7944   27.7270   19.3948 O.2       2 ALA2        0.0000 
     43 O          72.0014   26.8918   19.7038 O.2       2 ALA2        0.0000 
     44 N          73.2085   26.0566   20.0127 N.2       2 ALA2        0.0000 
     45 CA         74.4156   25.2214   20.3216 C.3       5 GLY6        0.0000 
     46 N          75.6226   24.3862   20.6305 N.2       2 ALA2        0.0000 
     47 CZ         69.0797   27.4893   18.1687 C.ar      4 PHE5        0.0000 
     48 O          70.2867   26.6541   18.4777 O.2       2 ALA2        0.0000 
     49 CA         73.9079   24.1485   19.4044 C.3       5 GLY6        0.0000 
     50 O          70.1272   32.1767   19.4654 O.2       2 ALA2        0.0000 
     51 OG         71.3342   31.3415   19.7743 O.2       1 SER1        0.0000 
     52 O          68.4125   31.9390   18.2393 O.2       2 ALA2        0.0000 
     53 O          69.6195   31.1038   18.5482 O.2       2 ALA2        0.0000 
     54 NZ         70.8266   30.2686   18.8571 N.2       3 LYS4        0.0000 
     55 NZ         72.0336   29.4334   19.1660 N.2       3 LYS4        0.0000 
     56 CZ         69.1119   30.0309   17.6310 C.ar      4 PHE5        0.0000 
     57 O          70.3190   29.1957   17.9399 O.2       2 ALA2        0.0000 
     58 CZ         70.3512   31.7374   17.4022 C.ar      4 PHE5        0.0000 
     59 NZ         71.5582   30.9022   17.7111 N.2       3 LYS4        0.0000 
     60 N          69.8435   30.6645   16.4850 N.2       2 ALA2        0.0000 
     61 O          71.0506   29.8293   16.7939 O.2       2 ALA2        0.0000 
     62 CA         65.9935   30.4778   23.7405 C.3       5 GLY6        0.0000 
     63 CZ         67.2006   29.6426   24.0494 C.ar      4 PHE5        0.0000 
     64 CA         65.4859   29.4049   22.8233 C.3       5 GLY6        0.0000 
     65 DU         66.6929   28.5697   23.1322 H         6 CUB7        0.0000 
     66 CZ         67.9000   27.7345   23.4411 C.ar      4 PHE5        0.0000 
     67 CZ         69.1071   26.8993   23.7501 C.ar      4 PHE5        0.0000 
     68 CZ         70.3141   26.0641   24.0590 C.ar      4 PHE5        0.0000 
     69 CZ         72.7283   24.3937   24.6768 C.ar      4 PHE5        0.0000 
     70 OG         64.9782   28.3321   21.9061 O.2       1 SER1        0.0000 
     71 OG         66.1853   27.4969   22.2150 O.2       1 SER1        0.0000 
     72 OG         67.3924   26.6617   22.5240 O.2       1 SER1        0.0000 
     73 DU         68.5994   25.8265   22.8329 H         6 CUB7        0.0000 
     74 DU         69.8065   24.9912   23.1418 H         6 CUB7        0.0000 
     75 CZ         71.0136   24.1560   23.4507 C.ar      4 PHE5        0.0000 
     76 N          72.2206   23.3208   23.7596 N.2       2 ALA2        0.0000 
     77 N          73.4277   22.4856   24.0685 N.2       2 ALA2        0.0000 
     78 OG         68.0918   24.7536   21.9157 O.2       1 SER1        0.0000 
     79 DU         69.2989   23.9184   22.2246 H         6 CUB7        0.0000 
     80 DU         70.5059   23.0832   22.5335 H         6 CUB7        0.0000 
     81 CZ         71.7130   22.2480   22.8424 C.ar      4 PHE5        0.0000 
     82 N          72.9201   21.4127   23.1514 N.2       2 ALA2        0.0000 
     83 N          74.1271   20.5775   23.4603 N.2       2 ALA2        0.0000 
     84 N          67.5842   23.6807   20.9985 N.2       2 ALA2        0.0000 
     85 N          68.7912   22.8455   21.3074 N.2       2 ALA2        0.0000 
     86 CZ         71.2054   21.1751   21.9253 C.ar      4 PHE5        0.0000 
     87 CZ         72.4124   20.3399   22.2342 C.ar      4 PHE5        0.0000 
     88 NZ         66.7252   31.1114   22.5945 N.2       3 LYS4        0.0000 
     89 CZ         67.9322   30.2762   22.9034 C.ar      4 PHE5        0.0000 
     90 CZ         69.1393   29.4409   23.2123 C.ar      4 PHE5        0.0000 
     91 CZ         73.9675   26.1001   24.4480 C.ar      4 PHE5        0.0000 
     92 CA         75.1746   25.2649   24.7569 C.3       5 GLY6        0.0000 
     93 NZ         66.2175   30.0385   21.6773 N.2       3 LYS4        0.0000 
     94 DU         67.4246   29.2033   21.9862 H         6 CUB7        0.0000 
     95 CZ         68.6316   28.3681   22.2951 C.ar      4 PHE5        0.0000 
     96 CZ         69.8387   27.5329   22.6040 C.ar      4 PHE5        0.0000 
     97 CZ         71.0458   26.6977   22.9130 C.ar      4 PHE5        0.0000 
     98 CZ         72.2528   25.8624   23.2219 C.ar      4 PHE5        0.0000 
     99 CZ         73.4599   25.0272   23.5308 C.ar      4 PHE5        0.0000 
    100 N          74.6670   24.1920   23.8397 N.2       2 ALA2        0.0000 
    101 CA         65.7099   28.9656   20.7601 C.3       5 GLY6        0.0000 
    102 OG         66.9170   28.1304   21.0690 O.2       1 SER1        0.0000 
    103 OG         68.1240   27.2952   21.3779 O.2       1 SER1        0.0000 
    104 DU         69.3311   26.4600   21.6869 H         6 CUB7        0.0000 
    105 DU         70.5381   25.6248   21.9958 H         6 CUB7        0.0000 
    106 DU         71.7452   24.7896   22.3047 H         6 CUB7        0.0000 
    107 DU         72.9523   23.9544   22.6136 H         6 CUB7        0.0000 
    108 N          74.1593   23.1192   22.9225 N.2       2 ALA2        0.0000 
    109 CA         68.8234   25.3871   20.7697 C.3       5 GLY6        0.0000 
    110 CA         70.0305   24.5519   21.0786 C.3       5 GLY6        0.0000 
    111 CZ         71.2376   23.7167   21.3875 C.ar      4 PHE5        0.0000 
    112 CZ         72.4446   22.8815   21.6964 C.ar      4 PHE5        0.0000 
    113 CZ         73.6517   22.0463   22.0053 C.ar      4 PHE5        0.0000 
    114 CA         74.8588   21.2111   22.3143 C.3       5 GLY6        0.0000 
    115 CA         68.3158   24.3142   19.8525 C.3       5 GLY6        0.0000 
    116 CA         69.5229   23.4790   20.1614 C.3       5 GLY6        0.0000 
    117 CZ         69.1715   31.9826   22.6746 C.ar      4 PHE5        0.0000 
    118 CZ         70.3786   31.1474   22.9835 C.ar      4 PHE5        0.0000 
    119 NZ         68.6639   30.9097   21.7574 N.2       3 LYS4        0.0000 
    120 DU         69.8709   30.0745   22.0663 H         6 CUB7        0.0000 
    121 CZ         71.0780   29.2393   22.3752 C.ar      4 PHE5        0.0000 
    122 CZ         72.2851   28.4041   22.6841 C.ar      4 PHE5        0.0000 
    123 CA         74.6992   26.7337   23.3020 C.3       5 GLY6        0.0000 
    124 CA         75.9062   25.8984   23.6109 C.3       5 GLY6        0.0000 
    125 CA         66.9492   30.6720   20.5313 C.3       5 GLY6        0.0000 
    126 CA         68.1562   29.8368   20.8402 C.3       5 GLY6        0.0000 
    127 DU         69.3633   29.0016   21.1491 H         6 CUB7        0.0000 
    128 DU         70.5704   28.1664   21.4580 H         6 CUB7        0.0000 
    129 CZ         71.7774   27.3312   21.7670 C.ar      4 PHE5        0.0000 
    130 CZ         72.9845   26.4960   22.0759 C.ar      4 PHE5        0.0000 
    131 CZ         74.1916   25.6608   22.3848 C.ar      4 PHE5        0.0000 
    132 N          75.3986   24.8256   22.6937 N.2       2 ALA2        0.0000 
    133 CA         67.6486   28.7639   19.9230 C.3       5 GLY6        0.0000 
    134 OG         68.8557   27.9287   20.2319 O.2       1 SER1        0.0000 
    135 DU         70.0627   27.0935   20.5409 H         6 CUB7        0.0000 
    136 DU         71.2698   26.2583   20.8498 H         6 CUB7        0.0000 
    137 DU         72.4769   25.4231   21.1587 H         6 CUB7        0.0000 
    138 DU         73.6839   24.5879   21.4676 H         6 CUB7        0.0000 
    139 N          74.8910   23.7527   21.7765 N.2       2 ALA2        0.0000 
    140 OG         67.1410   27.6910   19.0058 O.2       1 SER1        0.0000 
    141 OG         68.3480   26.8558   19.3148 O.2       1 SER1        0.0000 
    142 CA         69.5551   26.0206   19.6237 C.3       5 GLY6        0.0000 
    143 CA         70.7622   25.1854   19.9326 C.3       5 GLY6        0.0000 
    144 CZ         71.9692   24.3502   20.2415 C.ar      4 PHE5        0.0000 
    145 CZ         73.1763   23.5150   20.5504 C.ar      4 PHE5        0.0000 
    146 CZ         74.3834   22.6798   20.8593 C.ar      4 PHE5        0.0000 
    147 O          69.9031   32.6161   21.5286 O.2       2 ALA2        0.0000 
    148 OG         71.1102   31.7809   21.8375 O.2       1 SER1        0.0000 
    149 NZ         69.3955   31.5432   20.6114 N.2       3 LYS4        0.0000 
    150 OG         70.6026   30.7080   20.9203 O.2       1 SER1        0.0000 
    151 CZ         71.8096   29.8728   21.2292 C.ar      4 PHE5        0.0000 
    152 NZ         63.2587   24.9628   26.7991 N.2       3 LYS4        0.0000 
    153 CZ         63.1991   23.0112   21.7555 C.ar      4 PHE5        0.0000 
    154 NZ         62.7833   26.4315   25.3442 N.2       3 LYS4        0.0000 
    155 NZ         63.9904   25.5963   25.6531 N.2       3 LYS4        0.0000 
    156 CA         62.2757   25.3586   24.4270 C.3       5 GLY6        0.0000 
    157 DU         63.4827   24.5234   24.7359 H         6 CUB7        0.0000 
    158 DU         61.7680   24.2857   23.5098 H         6 CUB7        0.0000 
    159 DU         62.9751   23.4505   23.8187 H         6 CUB7        0.0000 
    160 CA         62.4675   22.3776   22.9015 C.3       5 GLY6        0.0000 
@<TRIPOS>BOND
@<TRIPOS>SUBSTRUCTURE
     1 SER1        5 GROUP   
     2 ALA2        3 GROUP   
     3 LYS4        1 GROUP   
     4 PHE5        7 GROUP   
     5 GLY6        2 GROUP   
     6 CUB7        6 GROUP   
@<TRIPOS>SET

