#    Name: 3u57_DH8_2_INTS_M
#    Modification time : Mon Mar 24 21:40:34 2014

@<TRIPOS>MOLECULE
3u57_DH8_2_INTS_M
   78     0     9     0     0
SMALL
NO_CHARGES


@<TRIPOS>ATOM
      1 CA         72.6370   29.9125   20.7285 C.3       3 GLC5        0.0000 
      2 CA         70.7150   29.6230   20.0830 C.3       9 GLL5        0.0000 
      3 CA         74.5590   30.2020   21.3740 C.3       6 GLP5        0.0000 
      4 CA         69.1130   29.0230   17.3390 C.3       3 GLC5        0.0000 
      5 CA         70.3910   30.1880   18.6680 C.3       9 GLL5        0.0000 
      6 CA         67.8350   27.8580   16.0100 C.3       6 GLP5        0.0000 
      7 O          72.7890   31.0275   18.1150 O.2       1 ALC1        0.0000 
      8 O          71.5790   30.2980   17.8780 O.2       7 ALL1        0.0000 
      9 O          73.9990   31.7570   18.3520 O.2       4 ALP1        0.0000 
     10 CA         70.0220   33.3240   18.1120 C.3       3 GLC5        0.0000 
     11 CA         69.6710   31.5510   18.6580 C.3       9 GLL5        0.0000 
     12 CA         70.3730   35.0970   17.5660 C.3       6 GLP5        0.0000 
     13 N          67.3810   31.1965   17.4460 N.am      2 SEC2        0.0000 
     14 N          68.7920   31.6160   17.4980 N.am      8 SEL2        0.0000 
     15 N          65.9700   30.7770   17.3940 N.am      5 SEP2        0.0000 
     16 O          68.1625   32.9085   16.9695 O.2       1 ALC1        0.0000 
     17 O          68.7920   31.6160   17.4980 O.2       7 ALL1        0.0000 
     18 O          67.5330   34.2010   16.4410 O.2       4 ALP1        0.0000 
     19 CA         70.0490   33.5155   19.3260 C.3       3 GLC5        0.0000 
     20 CA         68.8860   31.8500   19.9650 C.3       9 GLL5        0.0000 
     21 CA         71.2120   35.1810   18.6870 C.3       6 GLP5        0.0000 
     22 CA         67.0950   31.0265   19.2055 C.3       3 GLC5        0.0000 
     23 CA         65.3040   30.2030   18.4460 C.3       6 GLP5        0.0000 
     24 N          67.5300   33.7015   19.2080 N.am      2 SEC2        0.0000 
     25 N          68.8040   33.2620   20.1520 N.am      8 SEL2        0.0000 
     26 N          66.2560   34.1410   18.2640 N.am      5 SEP2        0.0000 
     27 N          69.8825   34.0685   20.0790 N.am      2 SEC2        0.0000 
     28 N          70.9610   34.8750   20.0060 N.am      5 SEP2        0.0000 
     29 O          67.5615   33.2335   20.7065 O.2       1 ALC1        0.0000 
     30 O          68.8040   33.2620   20.1520 O.2       7 ALL1        0.0000 
     31 O          66.3190   33.2050   21.2610 O.2       4 ALP1        0.0000 
     32 O          67.7615   34.2365   21.1140 O.2       1 ALC1        0.0000 
     33 O          66.7190   35.2110   22.0760 O.2       4 ALP1        0.0000 
     34 O          66.8765   32.0325   21.7985 O.2       1 ALC1        0.0000 
     35 O          67.4340   30.8600   22.3360 O.2       7 ALL1        0.0000 
     36 CA         74.8820   24.8730   19.0500 C.3       3 GLC5        0.0000 
     37 CA         74.3690   25.4760   21.0290 C.3       9 GLL5        0.0000 
     38 CA         75.3950   24.2700   17.0710 C.3       6 GLP5        0.0000 
     39 CA         69.3425   22.7815   26.9320 C.3       3 GLC5        0.0000 
     40 CA         68.9620   21.4400   25.2950 C.3       9 GLL5        0.0000 
     41 CA         69.7230   24.1230   28.5690 C.3       6 GLP5        0.0000 
     42 N          68.7660   20.7860   21.5735 N.am      2 SEC2        0.0000 
     43 N          69.6220   21.0430   22.9870 N.am      8 SEL2        0.0000 
     44 N          67.9100   20.5290   20.1600 N.am      5 SEP2        0.0000 
     45 CA         65.8855   21.7175   20.3080 C.3       3 GLC5        0.0000 
     46 CA         65.4930   22.7810   21.9200 C.3       9 GLL5        0.0000 
     47 CA         66.2780   20.6540   18.6960 C.3       6 GLP5        0.0000 
     48 CA         69.1455   26.5045   25.2430 C.3       3 GLC5        0.0000 
     49 CA         68.8740   25.7250   23.9030 C.3       9 GLL5        0.0000 
     50 CA         69.4170   27.2840   26.5830 C.3       6 GLP5        0.0000 
     51 CA         66.3185   25.5000   20.3855 C.3       3 GLC5        0.0000 
     52 CA         67.9870   25.3380   21.6960 C.3       9 GLL5        0.0000 
     53 CA         64.6500   25.6620   19.0750 C.3       6 GLP5        0.0000 
     54 CA         67.1165   22.2405   20.4295 C.3       3 GLC5        0.0000 
     55 CA         66.6380   23.5670   21.9800 C.3       9 GLL5        0.0000 
     56 CA         67.5950   20.9140   18.8790 C.3       6 GLP5        0.0000 
     57 CA         70.6870   27.2025   24.2760 C.3       3 GLC5        0.0000 
     58 CA         70.1280   26.2110   23.1330 C.3       9 GLL5        0.0000 
     59 CA         71.2460   28.1940   25.4190 C.3       6 GLP5        0.0000 
     60 CA         72.7845   28.8890   21.3540 C.3       3 GLC5        0.0000 
     61 CA         71.0100   27.5760   21.3340 C.3       9 GLL5        0.0000 
     62 CA         71.1280   27.8850   23.3765 C.3       3 GLC5        0.0000 
     63 CA         71.4680   26.0205   24.3045 C.3       3 GLC5        0.0000 
     64 CA         70.8770   24.9130   22.7410 C.3       9 GLL5        0.0000 
     65 CA         72.0590   27.1280   25.8680 C.3       6 GLP5        0.0000 
     66 CA         68.9910   32.1315   23.5622 C.3       3 GLC5        0.0000 
     67 CA         69.5400   31.2570   21.2200 C.3       9 GLL5        0.0000 
     68 CA         68.8670   32.8740   25.2820 C.3       6 GLP5        0.0000 
     69 CA         63.7972   21.0907   22.3805 C.3       3 GLC5        0.0000 
     70 CA         62.3450   19.7030   22.2640 C.3       6 GLP5        0.0000 
     71 CA         71.5295   23.1635   20.0020 C.3       3 GLC5        0.0000 
     72 CA         70.1720   24.9800   20.4120 C.3       9 GLL5        0.0000 
     73 CA         72.2770   21.3140   19.1340 C.3       6 GLP5        0.0000 
     74 CA         69.3775   24.9052   18.9402 C.3       3 GLC5        0.0000 
     75 CA         69.0980   24.3230   17.2090 C.3       6 GLP5        0.0000 
     76 CA         73.9997   27.8188   21.7608 C.3       3 GLC5        0.0000 
     77 CA         71.9980   26.4300   21.2360 C.3       9 GLL5        0.0000 
     78 CA         75.0650   29.3920   22.3690 C.3       6 GLP5        0.0000 
@<TRIPOS>BOND
@<TRIPOS>SUBSTRUCTURE
     1 ALC1        7 GROUP        1 X    ALC  0     ROOT ALC X 1
     2 SEC2       13 GROUP        1 X    SEC  0     **** SEC X 2
     3 GLC5        1 GROUP        1 X    GLC  0     **** GLC X 6
     4 ALP1        9 GROUP        1 Y    ALP  0     ROOT ALP Y 8
     5 SEP2       15 GROUP        1 Y    SEP  0     **** SEP Y 9
     6 GLP5        3 GROUP        1 Y    GLP  0     **** GLP Y 13
     7 ALL1        8 GROUP        1 Z    ALL  0     ROOT ALL Z 15
     8 SEL2       14 GROUP        1 Z    SEL  0     **** SEL Z 16
     9 GLL5        2 GROUP        1 Z    GLL  0     **** GLL Z 20
@<TRIPOS>SET

