#    Name: 3u57_DH8_2_ligand
#    Modification time : Mon Mar 24 21:40:34 2014

@<TRIPOS>MOLECULE
3u57_DH8_2_ligand
   72    78     1     0     0
SMALL
NO_CHARGES


@<TRIPOS>ATOM
      1 C1         70.7150   29.6230   20.0830 C.3       1 DH81000     0.0000 
      2 O1         70.9510   28.1730   20.0100 O.3       1 DH81000     0.0000 
      3 C2         70.3910   30.1880   18.6680 C.3       1 DH81000     0.0000 
      4 O2         71.5790   30.2980   17.8780 O.3       1 DH81000     0.0000 
      5 C3         69.6710   31.5510   18.6580 C.3       1 DH81000     0.0000 
      6 O3         68.7920   31.6160   17.4980 O.3       1 DH81000     0.0000 
      7 C4         68.8860   31.8500   19.9650 C.3       1 DH81000     0.0000 
      8 O4         68.8040   33.2620   20.1520 O.3       1 DH81000     0.0000 
      9 C5         69.5400   31.2570   21.2200 C.3       1 DH81000     0.0000 
     10 O5         69.6690   29.8520   21.0770 O.3       1 DH81000     0.0000 
     11 C6         68.6900   31.5210   22.4650 C.3       1 DH81000     0.0000 
     12 O6         67.4340   30.8600   22.3360 O.3       1 DH81000     0.0000 
     13 CAA        74.3690   25.4760   21.0290 C.3       1 DH81000     0.0000 
     14 CAB        68.9620   21.4400   25.2950 C.3       1 DH81000     0.0000 
     15 OAC        69.6220   21.0430   22.9870 O.2       1 DH81000     0.0000 
     16 CAH        73.3730   26.6460   21.1090 C.2       1 DH81000     0.0000 
     17 CAI        65.0060   22.1760   23.0740 C.ar      1 DH81000     0.0000 
     18 CAJ        65.6520   22.3460   24.2990 C.ar      1 DH81000     0.0000 
     19 CAK        65.4930   22.7810   21.9200 C.ar      1 DH81000     0.0000 
     20 CAL        66.7990   23.1270   24.3740 C.ar      1 DH81000     0.0000 
     21 CAN        70.1720   24.9800   20.4120 C.3       1 DH81000     0.0000 
     22 CAO        68.8740   25.7250   23.9030 C.3       1 DH81000     0.0000 
     23 NAP        67.2970   24.2380   21.0140 N.pl3     1 DH81000     0.0000 
     24 OAQ        70.3170   22.9880   23.8470 O.3       1 DH81000     0.0000 
     25 CAT        69.6570   21.8000   23.9610 C.2       1 DH81000     0.0000 
     26 CAU        71.9980   26.4300   21.2360 C.2       1 DH81000     0.0000 
     27 CAV        67.9870   25.3380   21.6960 C.3       1 DH81000     0.0000 
     28 CAW        66.6380   23.5670   21.9800 C.ar      1 DH81000     0.0000 
     29 CAX        67.2830   23.7380   23.2200 C.ar      1 DH81000     0.0000 
     30 CBC        71.3920   25.0460   21.3280 C.3       1 DH81000     0.0000 
     31 CBD        69.1420   25.9950   20.9310 C.3       1 DH81000     0.0000 
     32 CBF        70.1280   26.2110   23.1330 C.3       1 DH81000     0.0000 
     33 CBG        71.0100   27.5760   21.3340 C.3       1 DH81000     0.0000 
     34 CBH        69.8190   23.8150   22.7550 C.3       1 DH81000     0.0000 
     35 CBI        70.8770   24.9130   22.7410 C.3       1 DH81000     0.0000 
     36 NBJ        69.7780   26.9390   21.8820 N.4       1 DH81000     0.0000 
     37 CBK        68.4830   24.6340   22.9440 C.3       1 DH81000     0.0000 
     38 H          71.6447   30.1008   20.4158 H         1 DH81000     0.0000 
     39 H          69.7062   29.4637   18.1832 H         1 DH81000     0.0000 
     40 H          70.4469   32.3256   18.5601 H         1 DH81000     0.0000 
     41 H          67.8963   31.4245   19.8667 H         1 DH81000     0.0000 
     42 H          70.4971   31.7261   21.3621 H         1 DH81000     0.0000 
     43 H          68.5727   32.6060   22.5634 H         1 DH81000     0.0000 
     44 H          69.2531   31.1627   23.3340 H         1 DH81000     0.0000 
     45 H          73.7832   27.5746   21.0633 H         1 DH81000     0.0000 
     46 H          64.1543   21.5924   23.0253 H         1 DH81000     0.0000 
     47 H          65.2787   21.8939   25.1419 H         1 DH81000     0.0000 
     48 H          65.0068   22.6469   21.0247 H         1 DH81000     0.0000 
     49 H          67.2833   23.2525   25.2662 H         1 DH81000     0.0000 
     50 H          69.7469   23.9932   20.4453 H         1 DH81000     0.0000 
     51 H          70.4569   25.2434   19.4095 H         1 DH81000     0.0000 
     52 H          68.1671   26.4819   23.9125 H         1 DH81000     0.0000 
     53 H          69.1673   25.3305   24.8147 H         1 DH81000     0.0000 
     54 H          67.3486   24.0938   20.1000 H         1 DH81000     0.0000 
     55 H          67.2740   26.0753   22.0134 H         1 DH81000     0.0000 
     56 H          72.0731   24.3128   21.1065 H         1 DH81000     0.0000 
     57 H          68.7322   26.5459   20.1051 H         1 DH81000     0.0000 
     58 H          70.7403   26.7694   23.7712 H         1 DH81000     0.0000 
     59 H          71.4219   28.2587   22.0617 H         1 DH81000     0.0000 
     60 H          69.8399   23.3570   21.8238 H         1 DH81000     0.0000 
     61 H          71.6256   24.7112   23.4180 H         1 DH81000     0.0000 
     62 H          69.0632   27.7217   22.1400 H         1 DH81000     0.0000 
     63 H          75.3119   25.7965   20.9388 H         1 DH81000     0.0000 
     64 H          74.3320   24.9003   21.8458 H         1 DH81000     0.0000 
     65 H          74.1843   24.8840   20.2445 H         1 DH81000     0.0000 
     66 H          69.3231   20.5930   25.6852 H         1 DH81000     0.0000 
     67 H          69.0851   22.1554   25.9828 H         1 DH81000     0.0000 
     68 H          67.9771   21.3123   25.1780 H         1 DH81000     0.0000 
     69 H          72.1800   30.9051   18.3978 H         1 DH81000     0.0000 
     70 H          68.5719   32.5859   17.3942 H         1 DH81000     0.0000 
     71 H          68.1982   33.3840   20.9382 H         1 DH81000     0.0000 
     72 H          66.8261   31.5380   21.9227 H         1 DH81000     0.0000 
@<TRIPOS>BOND
     1    2    1 1    
     2    3    1 1    
     3   10    1 1    
     4   38    1 1    
     5   33    2 1    
     6    4    3 1    
     7    5    3 1    
     8   39    3 1    
     9   69    4 1    
    10    6    5 1    
    11    7    5 1    
    12   40    5 1    
    13   70    6 1    
    14    8    7 1    
    15    9    7 1    
    16   41    7 1    
    17   71    8 1    
    18   10    9 1    
    19   11    9 1    
    20   42    9 1    
    21   12   11 1    
    22   43   11 1    
    23   44   11 1    
    24   72   12 1    
    25   16   13 1    
    26   63   13 1    
    27   64   13 1    
    28   65   13 1    
    29   25   14 1    
    30   66   14 1    
    31   67   14 1    
    32   68   14 1    
    33   25   15 2    
    34   26   16 2    
    35   45   16 1    
    36   18   17 ar   
    37   19   17 ar   
    38   46   17 1    
    39   20   18 ar   
    40   47   18 1    
    41   28   19 ar   
    42   48   19 1    
    43   29   20 ar   
    44   49   20 1    
    45   30   21 1    
    46   31   21 1    
    47   50   21 1    
    48   51   21 1    
    49   32   22 1    
    50   37   22 1    
    51   52   22 1    
    52   53   22 1    
    53   27   23 1    
    54   28   23 1    
    55   54   23 1    
    56   25   24 1    
    57   34   24 1    
    58   30   26 1    
    59   33   26 1    
    60   31   27 1    
    61   37   27 1    
    62   55   27 1    
    63   29   28 ar   
    64   37   29 1    
    65   35   30 1    
    66   56   30 1    
    67   36   31 1    
    68   57   31 1    
    69   35   32 1    
    70   36   32 1    
    71   58   32 1    
    72   36   33 1    
    73   59   33 1    
    74   35   34 1    
    75   37   34 1    
    76   60   34 1    
    77   61   35 1    
    78   62   36 1    
@<TRIPOS>SUBSTRUCTURE
     1 DH81000     1 GROUP   
@<TRIPOS>SET

