#    Name: 3kek_3EK_1_INTS_M
#    Modification time : Mon Mar 24 19:21:49 2014

@<TRIPOS>MOLECULE
3kek_3EK_1_INTS_M
   87     0    12     0     0
SMALL
NO_CHARGES


@<TRIPOS>ATOM
      1 CA         43.8335   17.1430   16.1250 C.3       4 GLC5        0.0000 
      2 CA         45.7610   16.9670   16.8730 C.3      12 GLL5        0.0000 
      3 CA         41.9060   17.3190   15.3770 C.3       8 GLP5        0.0000 
      4 CA         44.2780   14.6215   16.4345 C.3       4 GLC5        0.0000 
      5 CA         46.1890   15.5530   16.5290 C.3      12 GLL5        0.0000 
      6 CA         42.3670   13.6900   16.3400 C.3       8 GLP5        0.0000 
      7 CA         47.2640   18.8280   13.5710 C.3       4 GLC5        0.0000 
      8 CA         47.3790   17.8150   15.0840 C.3      12 GLL5        0.0000 
      9 CA         47.1490   19.8410   12.0580 C.3       8 GLP5        0.0000 
     10 N          46.5995   19.9215   21.4345 N.am      2 SEC2        0.0000 
     11 N          46.2310   20.0110   20.0190 N.am     10 SEL2        0.0000 
     12 N          46.9680   19.8320   22.8500 N.am      6 SEP2        0.0000 
     13 CA         44.4580   21.2030   21.4675 C.3       4 GLC5        0.0000 
     14 CA         44.5610   21.6850   19.2910 C.3      12 GLL5        0.0000 
     15 CA         44.3550   20.7210   23.6440 C.3       8 GLP5        0.0000 
     16 CA         45.3905   23.5760   17.7785 C.3       4 GLC5        0.0000 
     17 CA         44.7350   24.0290   19.5410 C.3      12 GLL5        0.0000 
     18 CA         46.0460   23.1230   16.0160 C.3       8 GLP5        0.0000 
     19 CA         46.6515   22.5920   18.5770 C.3       4 GLC5        0.0000 
     20 CA         45.3210   22.7810   19.6430 C.3      12 GLL5        0.0000 
     21 CA         47.9820   22.4030   17.5110 C.3       8 GLP5        0.0000 
     22 CA         41.9585   22.5870   16.6950 C.3       4 GLC5        0.0000 
     23 CA         41.3840   23.3900   18.3110 C.3      12 GLL5        0.0000 
     24 CA         42.5330   21.7840   15.0790 C.3       8 GLP5        0.0000 
     25 CA         39.6775   23.5885   17.9515 C.3       4 GLC5        0.0000 
     26 CA         37.9710   23.7870   17.5920 C.3       8 GLP5        0.0000 
     27 N          47.5950   25.3850   21.3035 N.am      2 SEC2        0.0000 
     28 N          46.6710   25.1310   20.3160 N.am     10 SEL2        0.0000 
     29 N          48.5190   25.6390   22.2910 N.am      6 SEP2        0.0000 
     30 O          43.3705   26.9425   19.9405 O.2       1 ALC1        0.0000 
     31 O          44.8650   26.4080   19.6710 O.2       9 ALL1        0.0000 
     32 O          41.8760   27.4770   20.2100 O.2       5 ALP1        0.0000 
     33 CA         44.2410   28.9695   20.9065 C.3       4 GLC5        0.0000 
     34 CA         45.5080   27.7020   19.7770 C.3      12 GLL5        0.0000 
     35 CA         42.9740   30.2370   22.0360 C.3       8 GLP5        0.0000 
     36 CA         46.8080   31.1765   19.7480 C.3       4 GLC5        0.0000 
     37 CA         47.3330   29.1440   18.9480 C.3      12 GLL5        0.0000 
     38 CA         46.2830   33.2090   20.5480 C.3       8 GLP5        0.0000 
     39 CA         47.9425   29.9870   20.7395 C.3       4 GLC5        0.0000 
     40 CA         48.5520   30.8300   22.5310 C.3       8 GLP5        0.0000 
     41 CA         49.7285   27.9220   18.6490 C.3       4 GLC5        0.0000 
     42 CA         48.6110   28.6020   17.0120 C.3      12 GLL5        0.0000 
     43 CA         50.8460   27.2420   20.2860 C.3       8 GLP5        0.0000 
     44 CA         45.2150   26.4880   16.5650 C.3       4 GLC5        0.0000 
     45 CA         46.8710   27.1470   17.7250 C.3      12 GLL5        0.0000 
     46 CA         43.5590   25.8290   15.4050 C.3       8 GLP5        0.0000 
     47 NZ         48.7530   16.1175   11.5245 N.4       3 LYC4        0.0000 
     48 NZ         49.3930   16.1030   13.2450 N.4      11 LYL4        0.0000 
     49 NZ         48.1130   16.1320    9.8040 N.4       7 LYP4        0.0000 
     50 N          50.3980   17.2320   13.8015 N.am      2 SEC2        0.0000 
     51 N          49.3930   16.1030   13.2450 N.am     10 SEL2        0.0000 
     52 N          51.4030   18.3610   14.3580 N.am      6 SEP2        0.0000 
     53 CA         51.4100   28.8815   17.0525 C.3       4 GLC5        0.0000 
     54 CA         49.5970   28.9210   16.1560 C.3      12 GLL5        0.0000 
     55 CA         53.2230   28.8420   17.9490 C.3       8 GLP5        0.0000 
     56 CA         50.5590   28.6820   14.7630 C.3       4 GLC5        0.0000 
     57 CA         51.5210   28.4430   13.3700 C.3       8 GLP5        0.0000 
     58 CA         48.1335   30.0900   15.5265 C.3       4 GLC5        0.0000 
     59 CA         46.6700   31.2590   14.8970 C.3       8 GLP5        0.0000 
     60 CA         50.2370   27.2060   17.3025 C.3       4 GLC5        0.0000 
     61 CA         50.8770   25.4910   18.4490 C.3       8 GLP5        0.0000 
     62 NZ         47.6855   16.2400   11.1540 N.4       3 LYC4        0.0000 
     63 NZ         47.2580   16.3480   12.5040 N.4      11 LYL4        0.0000 
     64 N          47.6855   16.2400   11.1540 N.am      2 SEC2        0.0000 
     65 N          47.2580   16.3480   12.5040 N.am     10 SEL2        0.0000 
     66 N          48.1130   16.1320    9.8040 N.am      6 SEP2        0.0000 
     67 CA         48.5733   18.1872   17.1455 C.3       4 GLC5        0.0000 
     68 CA         50.0520   18.4640   18.5050 C.3       8 GLP5        0.0000 
     69 CA         44.6960   22.8002   17.4715 C.3       4 GLC5        0.0000 
     70 CA         41.8788   25.1322   18.0192 C.3       4 GLC5        0.0000 
     71 CA         42.7790   23.1710   18.7800 C.3      12 GLL5        0.0000 
     72 CA         41.6760   26.9840   17.4930 C.3       8 GLP5        0.0000 
     73 CA         46.4645   29.3425   16.9712 C.3       4 GLC5        0.0000 
     74 CA         46.5950   27.9880   18.7870 C.3      12 GLL5        0.0000 
     75 CA         45.9650   30.1190   15.0750 C.3       8 GLP5        0.0000 
     76 CA         48.6845   28.3683   19.7718 C.3       4 GLC5        0.0000 
     77 CA         49.5300   27.4400   21.0380 C.3       8 GLP5        0.0000 
     78 CA         47.2215   29.5723   16.3062 C.3       4 GLC5        0.0000 
     79 CA         48.3450   29.4490   18.0630 C.3      12 GLL5        0.0000 
     80 CA         49.0078   27.3105   15.1980 C.3       4 GLC5        0.0000 
     81 CA         49.7700   26.5960   13.4750 C.3       8 GLP5        0.0000 
     82 CA         47.4802   25.2297   16.7662 C.3       4 GLC5        0.0000 
     83 CA         47.8800   27.4480   16.8300 C.3      12 GLL5        0.0000 
     84 CA         47.5850   23.1620   16.2550 C.3       8 GLP5        0.0000 
     85 CA         46.6728   28.0672   15.7938 C.3       4 GLC5        0.0000 
     86 CA         45.9700   28.8370   14.3100 C.3       8 GLP5        0.0000 
     87 CA         47.9956   27.4680   19.7707 C.3       4 GLC5        0.0000 
@<TRIPOS>BOND
@<TRIPOS>SUBSTRUCTURE
     1 ALC1       30 GROUP        1 X    ALC  0     ROOT ALC X 1
     2 SEC2       10 GROUP        1 X    SEC  0     **** SEC X 2
     3 LYC4       47 GROUP        1 X    LYC  0     **** LYC X 4
     4 GLC5        1 GROUP        1 X    GLC  0     **** GLC X 6
     5 ALP1       32 GROUP        1 Y    ALP  0     ROOT ALP Y 8
     6 SEP2       12 GROUP        1 Y    SEP  0     **** SEP Y 9
     7 LYP4       49 GROUP        1 Y    LYP  0     **** LYP Y 11
     8 GLP5        3 GROUP        1 Y    GLP  0     **** GLP Y 13
     9 ALL1       31 GROUP        1 Z    ALL  0     ROOT ALL Z 15
    10 SEL2       11 GROUP        1 Z    SEL  0     **** SEL Z 16
    11 LYL4       48 GROUP        1 Z    LYL  0     **** LYL Z 18
    12 GLL5        2 GROUP        1 Z    GLL  0     **** GLL Z 20
@<TRIPOS>SET

