#    Name: 3kek_3EK_1_ligand
#    Modification time : Mon Mar 24 19:21:49 2014

@<TRIPOS>MOLECULE
3kek_3EK_1_ligand
   58    61     1     0     0
SMALL
NO_CHARGES


@<TRIPOS>ATOM
      1 C1         45.7610   16.9670   16.8730 C.3       1 3EK801      0.0000 
      2 C2         46.1890   15.5530   16.5290 C.3       1 3EK801      0.0000 
      3 C3         46.5830   15.4360   15.0660 C.3       1 3EK801      0.0000 
      4 C4         47.7560   16.3670   14.8590 C.3       1 3EK801      0.0000 
      5 C5         47.3790   17.8150   15.0840 C.3       1 3EK801      0.0000 
      6 C6         46.8100   18.0060   16.4880 C.3       1 3EK801      0.0000 
      7 C7         45.3010   17.0310   18.3230 C.3       1 3EK801      0.0000 
      8 N8         45.4300   18.3580   18.8920 N.pl3     1 3EK801      0.0000 
      9 N9         44.5840   19.3570   18.5920 N.2       1 3EK801      0.0000 
     10 C10        45.1080   20.3520   19.3110 C.2       1 3EK801      0.0000 
     11 N11        46.2310   20.0110   20.0190 N.2       1 3EK801      0.0000 
     12 C12        46.4220   18.7520   19.7360 C.2       1 3EK801      0.0000 
     13 C13        44.5610   21.6850   19.2910 C.ar      1 3EK801      0.0000 
     14 C14        43.2650   21.8830   18.8570 C.ar      1 3EK801      0.0000 
     15 C15        42.7790   23.1710   18.7800 C.ar      1 3EK801      0.0000 
     16 N16        43.4850   24.2570   19.1070 N.ar      1 3EK801      0.0000 
     17 C17        44.7350   24.0290   19.5410 C.ar      1 3EK801      0.0000 
     18 C18        45.3210   22.7810   19.6430 C.ar      1 3EK801      0.0000 
     19 C19        41.3840   23.3900   18.3110 C.3       1 3EK801      0.0000 
     20 C20        45.5260   25.2270   19.8950 C.2       1 3EK801      0.0000 
     21 O21        46.6710   25.1310   20.3160 O.2       1 3EK801      0.0000 
     22 N22        44.8650   26.4080   19.6710 N.am      1 3EK801      0.0000 
     23 C23        45.5080   27.7020   19.7770 C.3       1 3EK801      0.0000 
     24 C24        46.5950   27.9880   18.7870 C.ar      1 3EK801      0.0000 
     25 C25        47.3330   29.1440   18.9480 C.ar      1 3EK801      0.0000 
     26 C26        48.3450   29.4490   18.0630 C.ar      1 3EK801      0.0000 
     27 C27        48.6110   28.6020   17.0120 C.ar      1 3EK801      0.0000 
     28 C28        47.8800   27.4480   16.8300 C.ar      1 3EK801      0.0000 
     29 C29        46.8710   27.1470   17.7250 C.ar      1 3EK801      0.0000 
     30 C30        48.1550   16.2680   13.3900 C.2       1 3EK801      0.0000 
     31 O31        49.3930   16.1030   13.2450 O.co2     1 3EK801      0.0000 
     32 F32        49.5970   28.9210   16.1560 F         1 3EK801      0.0000 
     33 O33        47.2580   16.3480   12.5040 O.co2     1 3EK801      0.0000 
     34 H          44.8505   17.1738   16.2442 H         1 3EK801      0.0000 
     35 H          45.3656   14.8650   16.7362 H         1 3EK801      0.0000 
     36 H          47.0392   15.2698   17.1545 H         1 3EK801      0.0000 
     37 H          45.7606   15.7408   14.4462 H         1 3EK801      0.0000 
     38 H          46.8763   14.4253   14.8519 H         1 3EK801      0.0000 
     39 H          48.5714   16.0947   15.4559 H         1 3EK801      0.0000 
     40 H          46.6308   18.1163   14.3526 H         1 3EK801      0.0000 
     41 H          48.2597   18.4447   14.9680 H         1 3EK801      0.0000 
     42 H          47.6357   17.9683   17.2165 H         1 3EK801      0.0000 
     43 H          46.3623   19.0103   16.5587 H         1 3EK801      0.0000 
     44 H          45.8929   16.2963   18.9006 H         1 3EK801      0.0000 
     45 H          44.2504   16.6867   18.3623 H         1 3EK801      0.0000 
     46 H          47.1318   18.1727   20.0525 H         1 3EK801      0.0000 
     47 H          42.6763   21.0868   18.5972 H         1 3EK801      0.0000 
     48 H          46.2781   22.6763   19.9661 H         1 3EK801      0.0000 
     49 H          43.8549   26.4084   19.4113 H         1 3EK801      0.0000 
     50 H          45.9347   27.8344   20.8096 H         1 3EK801      0.0000 
     51 H          44.7395   28.5196   19.6952 H         1 3EK801      0.0000 
     52 H          47.1253   29.7813   19.7342 H         1 3EK801      0.0000 
     53 H          48.8997   30.3088   18.1893 H         1 3EK801      0.0000 
     54 H          48.0801   26.8219   16.0441 H         1 3EK801      0.0000 
     55 H          46.3152   26.2818   17.5990 H         1 3EK801      0.0000 
     56 H          41.1435   24.3606   18.3013 H         1 3EK801      0.0000 
     57 H          41.2457   23.0444   17.3829 H         1 3EK801      0.0000 
     58 H          40.7182   22.9290   18.8977 H         1 3EK801      0.0000 
@<TRIPOS>BOND
     1    2    1 1    
     2    6    1 1    
     3    7    1 1    
     4   34    1 1    
     5    3    2 1    
     6   35    2 1    
     7   36    2 1    
     8    4    3 1    
     9   37    3 1    
    10   38    3 1    
    11    5    4 1    
    12   30    4 1    
    13   39    4 1    
    14    6    5 1    
    15   40    5 1    
    16   41    5 1    
    17   42    6 1    
    18   43    6 1    
    19    8    7 1    
    20   44    7 1    
    21   45    7 1    
    22    9    8 1    
    23   12    8 1    
    24   10    9 2    
    25   11   10 1    
    26   13   10 1    
    27   12   11 2    
    28   46   12 1    
    29   14   13 ar   
    30   18   13 ar   
    31   15   14 ar   
    32   47   14 1    
    33   16   15 ar   
    34   19   15 1    
    35   17   16 ar   
    36   18   17 ar   
    37   20   17 1    
    38   48   18 1    
    39   56   19 1    
    40   57   19 1    
    41   58   19 1    
    42   21   20 2    
    43   22   20 am   
    44   23   22 1    
    45   49   22 1    
    46   24   23 1    
    47   50   23 1    
    48   51   23 1    
    49   25   24 ar   
    50   29   24 ar   
    51   26   25 ar   
    52   52   25 1    
    53   27   26 ar   
    54   53   26 1    
    55   28   27 ar   
    56   32   27 1    
    57   29   28 ar   
    58   54   28 1    
    59   55   29 1    
    60   31   30 ar   
    61   33   30 ar   
@<TRIPOS>SUBSTRUCTURE
     1 3EK801      1 GROUP   
@<TRIPOS>SET

