#    Name: 1jdj_CFP_1_INTS_M
#    Modification time : Tue Mar 25 08:46:10 2014

@<TRIPOS>MOLECULE
1jdj_CFP_1_INTS_M
   22     0     3     0     0
SMALL
NO_CHARGES


@<TRIPOS>ATOM
      1 CA         38.3385   52.9965   32.3505 C.3       1 GLC5        0.0000 
      2 CA         37.8160   54.1920   31.0460 C.3       3 GLL5        0.0000 
      3 CA         38.8610   51.8010   33.6550 C.3       2 GLP5        0.0000 
      4 CA         39.4080   54.6190   32.2975 C.3       1 GLC5        0.0000 
      5 CA         41.0000   55.0460   33.5490 C.3       2 GLP5        0.0000 
      6 CA         34.3970   52.1115   30.7675 C.3       1 GLC5        0.0000 
      7 CA         35.2200   52.7380   29.0330 C.3       3 GLL5        0.0000 
      8 CA         33.5740   51.4850   32.5020 C.3       2 GLP5        0.0000 
      9 CA         36.0390   54.7510   28.5885 C.3       1 GLC5        0.0000 
     10 CA         36.8580   56.7640   28.1440 C.3       2 GLP5        0.0000 
     11 CA         35.5230   55.5345   29.2350 C.3       1 GLC5        0.0000 
     12 CA         34.1880   54.3050   30.3260 C.3       3 GLL5        0.0000 
     13 CA         36.7505   52.4450   26.9180 C.3       1 GLC5        0.0000 
     14 CA         35.1770   52.0260   28.3270 C.3       3 GLL5        0.0000 
     15 CA         38.3240   52.8640   25.5090 C.3       2 GLP5        0.0000 
     16 CA         35.1775   53.7100   27.6035 C.3       1 GLC5        0.0000 
     17 CA         35.1780   55.3940   26.8800 C.3       2 GLP5        0.0000 
     18 CA         38.6030   54.3685   29.3805 C.3       1 GLC5        0.0000 
     19 CA         36.5720   53.9840   30.5580 C.3       3 GLL5        0.0000 
     20 CA         40.0120   54.6490   27.9590 C.3       2 GLP5        0.0000 
     21 CA         36.8768   55.5146   29.5254 C.3       1 GLC5        0.0000 
     22 CA         34.3278   52.9034   31.5244 C.3       1 GLC5        0.0000 
@<TRIPOS>BOND
@<TRIPOS>SUBSTRUCTURE
     1 GLC5        1 GROUP        1 X    GLC  0     ROOT GLC X 6
     2 GLP5        3 GROUP        1 Y    GLP  0     ROOT GLP Y 13
     3 GLL5        2 GROUP        1 Z    GLL  0     ROOT GLL Z 20
@<TRIPOS>SET

