#    Name: 1jdj_CFP_1_ligand
#    Modification time : Tue Mar 25 08:46:10 2014

@<TRIPOS>MOLECULE
1jdj_CFP_1_ligand
   13    14     1     0     0
SMALL
NO_CHARGES


@<TRIPOS>ATOM
      1 N9         33.1880   55.0960   30.8680 N.pl3     1 CFP367      0.0000 
      2 C8         33.8130   55.9020   31.7990 C.2       1 CFP367      0.0000 
      3 N7         35.1160   55.6990   31.9000 N.2       1 CFP367      0.0000 
      4 C5         35.3780   54.6930   30.9770 C.ar      1 CFP367      0.0000 
      5 C6         36.5720   53.9840   30.5580 C.ar      1 CFP367      0.0000 
      6 CL6        37.8160   54.1920   31.0460 Cl        1 CFP367      0.0000 
      7 N1         36.4470   53.0080   29.5770 N.ar      1 CFP367      0.0000 
      8 C2         35.2200   52.7380   29.0330 C.ar      1 CFP367      0.0000 
      9 N3         34.0450   53.3380   29.3490 N.ar      1 CFP367      0.0000 
     10 C4         34.1880   54.3050   30.3260 C.ar      1 CFP367      0.0000 
     11 F2         35.1770   52.0260   28.3270 F         1 CFP367      0.0000 
     12 H          32.2797   55.0844   30.6474 H         1 CFP367      0.0000 
     13 H          33.2978   56.5727   32.3359 H         1 CFP367      0.0000 
@<TRIPOS>BOND
     1    2    1 1    
     2   10    1 1    
     3   12    1 1    
     4    3    2 2    
     5   13    2 1    
     6    4    3 1    
     7    5    4 ar   
     8   10    4 ar   
     9    6    5 1    
    10    7    5 ar   
    11    8    7 ar   
    12    9    8 ar   
    13   11    8 1    
    14   10    9 ar   
@<TRIPOS>SUBSTRUCTURE
     1 CFP367      1 GROUP   
@<TRIPOS>SET

