#    Name: 4fhj_0TZ_1_INTS_M
#    Modification time : Mon Mar 24 20:02:50 2014

@<TRIPOS>MOLECULE
4fhj_0TZ_1_INTS_M
   46     0     9     0     0
SMALL
NO_CHARGES


@<TRIPOS>ATOM
      1 CA         19.7930   14.2735   19.8210 C.3       3 GLC5        0.0000 
      2 CA         19.8730   16.2080   20.4930 C.3       9 GLL5        0.0000 
      3 CA         19.7130   12.3390   19.1490 C.3       6 GLP5        0.0000 
      4 CA         20.2540   14.1170   24.7105 C.3       3 GLC5        0.0000 
      5 CA         20.3450   12.0920   24.0540 C.3       9 GLL5        0.0000 
      6 CA         20.1630   16.1420   25.3670 C.3       6 GLP5        0.0000 
      7 CA         22.0320    9.7765   25.5375 C.3       3 GLC5        0.0000 
      8 CA         20.9690   10.9590   24.8500 C.3       9 GLL5        0.0000 
      9 CA         23.0950    8.5940   26.2250 C.3       6 GLP5        0.0000 
     10 CA         20.6945   12.0835   26.4870 C.3       3 GLC5        0.0000 
     11 CA         20.4200   13.2080   28.1240 C.3       6 GLP5        0.0000 
     12 N          17.9820   11.2555   24.4970 N.am      2 SEC2        0.0000 
     13 N          19.0500   12.4110   24.2090 N.am      8 SEL2        0.0000 
     14 N          16.9140   10.1000   24.7850 N.am      5 SEP2        0.0000 
     15 CA         16.8715   12.2185   22.7425 C.3       3 GLC5        0.0000 
     16 CA         18.5310   13.4190   23.4920 C.3       9 GLL5        0.0000 
     17 CA         15.2120   11.0180   21.9930 C.3       6 GLP5        0.0000 
     18 CA         19.3470   14.7805   24.4295 C.3       3 GLC5        0.0000 
     19 O          16.2000   12.9990   24.5300 O.2       1 ALC1        0.0000 
     20 O          17.2510   13.7390   23.6400 O.2       7 ALL1        0.0000 
     21 O          15.1490   12.2590   25.4200 O.2       4 ALP1        0.0000 
     22 CA         24.8727   11.3555   20.5287 C.3       3 GLC5        0.0000 
     23 CA         24.7250   12.8780   21.6730 C.3       9 GLL5        0.0000 
     24 CA         24.6800   10.3120   19.0790 C.3       6 GLP5        0.0000 
     25 CA         24.9078   13.4070   23.7677 C.3       3 GLC5        0.0000 
     26 CA         24.7500   14.4150   25.5570 C.3       6 GLP5        0.0000 
     27 CA         26.7823   13.2160   22.7467 C.3       3 GLC5        0.0000 
     28 CA         25.4060   11.9200   22.2840 C.3       9 GLL5        0.0000 
     29 CA         28.4990   14.0330   23.5150 C.3       6 GLP5        0.0000 
     30 CA         20.4370   16.4062   17.8238 C.3       3 GLC5        0.0000 
     31 CA         22.2100   16.8620   19.0840 C.3       9 GLL5        0.0000 
     32 CA         19.2560   15.6000   16.6810 C.3       6 GLP5        0.0000 
     33 CA         19.5617   16.1617   18.3515 C.3       3 GLC5        0.0000 
     34 CA         19.8620   17.2390   19.5510 C.3       9 GLL5        0.0000 
     35 CA         20.5868   15.1297   23.6970 C.3       3 GLC5        0.0000 
     36 CA         21.4240   14.4560   21.5790 C.3       9 GLL5        0.0000 
     37 CA         20.5296   13.1941   20.5598 C.3       3 GLC5        0.0000 
     38 CA         20.5970   13.7790   22.4750 C.3       9 GLL5        0.0000 
     39 CA         22.5836   15.1436   22.9928 C.3       3 GLC5        0.0000 
     40 CA         23.8210   16.2380   24.0150 C.3       6 GLP5        0.0000 
     41 CA         21.6000   10.5053   22.9720 C.3       3 GLC5        0.0000 
     42 CA         22.5430    9.4850   21.4920 C.3       6 GLP5        0.0000 
     43 CA         19.5150   10.7048   25.9355 C.3       3 GLC5        0.0000 
     44 CA         18.3730    9.8840   27.4190 C.3       6 GLP5        0.0000 
     45 CA         22.0585   12.7758   25.3585 C.3       3 GLC5        0.0000 
     46 CA         23.4600   14.0260   26.2650 C.3       6 GLP5        0.0000 
@<TRIPOS>BOND
@<TRIPOS>SUBSTRUCTURE
     1 ALC1       19 GROUP        1 X    ALC  0     ROOT ALC X 1
     2 SEC2       12 GROUP        1 X    SEC  0     **** SEC X 2
     3 GLC5        1 GROUP        1 X    GLC  0     **** GLC X 6
     4 ALP1       21 GROUP        1 Y    ALP  0     ROOT ALP Y 8
     5 SEP2       14 GROUP        1 Y    SEP  0     **** SEP Y 9
     6 GLP5        3 GROUP        1 Y    GLP  0     **** GLP Y 13
     7 ALL1       20 GROUP        1 Z    ALL  0     ROOT ALL Z 15
     8 SEL2       13 GROUP        1 Z    SEL  0     **** SEL Z 16
     9 GLL5        2 GROUP        1 Z    GLL  0     **** GLL Z 20
@<TRIPOS>SET

