#    Name: 4fhj_0TZ_1_ligand
#    Modification time : Mon Mar 24 20:02:50 2014

@<TRIPOS>MOLECULE
4fhj_0TZ_1_ligand
   36    39     1     0     0
SMALL
NO_CHARGES


@<TRIPOS>ATOM
      1 N8         25.4920   13.4160   20.7260 N.pl3     1 0TZ1205     0.0000 
      2 N9         26.5870   12.8430   20.7340 N.2       1 0TZ1205     0.0000 
      3 C12        26.5920   11.9010   21.6790 C.2       1 0TZ1205     0.0000 
      4 C13        25.4060   11.9200   22.2840 C.2       1 0TZ1205     0.0000 
      5 C11        24.7250   12.8780   21.6730 C.2       1 0TZ1205     0.0000 
      6 N7         23.4710   13.2310   21.9860 N.pl3     1 0TZ1205     0.0000 
      7 C6         22.7670   14.1830   21.3530 C.2       1 0TZ1205     0.0000 
      8 N6         23.2310   15.0220   20.4240 N.2       1 0TZ1205     0.0000 
      9 C5         22.2420   15.8290   20.0240 C.2       1 0TZ1205     0.0000 
     10 C10        22.2100   16.8620   19.0840 C.2       1 0TZ1205     0.0000 
     11 C9         21.0260   17.5630   18.8490 C.2       1 0TZ1205     0.0000 
     12 C8         19.8620   17.2390   19.5510 C.2       1 0TZ1205     0.0000 
     13 C7         19.8730   16.2080   20.4930 C.2       1 0TZ1205     0.0000 
     14 N5         21.0670   15.5000   20.7330 N.pl3     1 0TZ1205     0.0000 
     15 C4         21.4240   14.4560   21.5790 C.2       1 0TZ1205     0.0000 
     16 C3         20.5970   13.7790   22.4750 C.ar      1 0TZ1205     0.0000 
     17 N3         19.2990   14.1030   22.6230 N.ar      1 0TZ1205     0.0000 
     18 N1         21.1140   12.7720   23.1970 N.ar      1 0TZ1205     0.0000 
     19 C1         20.3450   12.0920   24.0540 C.ar      1 0TZ1205     0.0000 
     20 C14        20.9690   10.9590   24.8500 C.3       1 0TZ1205     0.0000 
     21 N2         19.0500   12.4110   24.2090 N.ar      1 0TZ1205     0.0000 
     22 C2         18.5310   13.4190   23.4920 C.ar      1 0TZ1205     0.0000 
     23 N4         17.2510   13.7390   23.6400 N.pl3     1 0TZ1205     0.0000 
     24 H          25.1817   14.1548   20.1392 H         1 0TZ1205     0.0000 
     25 H          27.3299   11.3081   21.8872 H         1 0TZ1205     0.0000 
     26 H          25.1146   11.3636   23.0004 H         1 0TZ1205     0.0000 
     27 H          22.9938   12.7162   22.8014 H         1 0TZ1205     0.0000 
     28 H          23.0623   17.1065   18.5634 H         1 0TZ1205     0.0000 
     29 H          21.0095   18.3226   18.1552 H         1 0TZ1205     0.0000 
     30 H          18.9950   17.7614   19.3732 H         1 0TZ1205     0.0000 
     31 H          19.0250   15.9651   21.0067 H         1 0TZ1205     0.0000 
     32 H          16.7358   13.1967   24.3037 H         1 0TZ1205     0.0000 
     33 H          16.9178   14.4934   23.0744 H         1 0TZ1205     0.0000 
     34 H          21.3392   10.2464   24.2541 H         1 0TZ1205     0.0000 
     35 H          21.7212   11.2798   25.4255 H         1 0TZ1205     0.0000 
     36 H          20.3043   10.5197   25.4543 H         1 0TZ1205     0.0000 
@<TRIPOS>BOND
     1    2    1 1    
     2    5    1 1    
     3   24    1 1    
     4    3    2 2    
     5    4    3 1    
     6   25    3 1    
     7    5    4 2    
     8   26    4 1    
     9    6    5 1    
    10    7    6 1    
    11   27    6 1    
    12    8    7 1    
    13   15    7 2    
    14    9    8 2    
    15   10    9 1    
    16   14    9 1    
    17   11   10 2    
    18   28   10 1    
    19   12   11 1    
    20   29   11 1    
    21   13   12 2    
    22   30   12 1    
    23   14   13 1    
    24   31   13 1    
    25   15   14 1    
    26   16   15 1    
    27   17   16 ar   
    28   18   16 ar   
    29   22   17 ar   
    30   19   18 ar   
    31   20   19 1    
    32   21   19 ar   
    33   34   20 1    
    34   35   20 1    
    35   36   20 1    
    36   22   21 ar   
    37   23   22 1    
    38   32   23 1    
    39   33   23 1    
@<TRIPOS>SUBSTRUCTURE
     1 0TZ1205     1 GROUP   
@<TRIPOS>SET

