#    Name: 4elf_35I_2_INTS_M
#    Modification time : Mon Mar 24 18:11:18 2014

@<TRIPOS>MOLECULE
4elf_35I_2_INTS_M
   95     0     9     0     0
SMALL
NO_CHARGES


@<TRIPOS>ATOM
      1 CA         23.2555   -2.8865    2.5020 C.3       3 GLC5        0.0000 
      2 CA         22.2730   -4.7930    2.1980 C.3       9 GLL5        0.0000 
      3 CA         24.2380   -0.9800    2.8060 C.3       6 GLP5        0.0000 
      4 CA         21.1405   -6.4400    2.2920 C.3       3 GLC5        0.0000 
      5 CA         21.3290   -5.0520    1.0330 C.3       9 GLL5        0.0000 
      6 CA         20.9520   -7.8280    3.5510 C.3       6 GLP5        0.0000 
      7 CA         19.9390   -3.1310   -0.8525 C.3       3 GLC5        0.0000 
      8 CA         21.5830   -4.0420   -0.0930 C.3       9 GLL5        0.0000 
      9 CA         18.2950   -2.2200   -1.6120 C.3       6 GLP5        0.0000 
     10 CA         19.8815   -2.8695   -2.2745 C.3       3 GLC5        0.0000 
     11 CA         21.4680   -3.5190   -2.9370 C.3       9 GLL5        0.0000 
     12 CA         22.9530   -0.6660   -2.6535 C.3       3 GLC5        0.0000 
     13 CA         23.1090   -2.3140   -2.1110 C.3       9 GLL5        0.0000 
     14 CA         22.7970    0.9820   -3.1960 C.3       6 GLP5        0.0000 
     15 CA         16.8465   -4.3585    0.3170 C.3       3 GLC5        0.0000 
     16 CA         17.5390   -5.7880    1.1750 C.3       9 GLL5        0.0000 
     17 CA         16.1540   -2.9290   -0.5410 C.3       6 GLP5        0.0000 
     18 CA         16.9030   -5.5985   -0.7210 C.3       3 GLC5        0.0000 
     19 CA         16.7070   -6.8760    0.9630 C.3       9 GLL5        0.0000 
     20 CA         17.0990   -4.3210   -2.4050 C.3       6 GLP5        0.0000 
     21 CA         13.3760   -6.4435   -0.5955 C.3       3 GLC5        0.0000 
     22 CA         14.3400   -7.6750    0.7070 C.3       9 GLL5        0.0000 
     23 CA         12.4120   -5.2120   -1.8980 C.3       6 GLP5        0.0000 
     24 CA         13.6920   -6.6930   -1.7430 C.3       3 GLC5        0.0000 
     25 CA         14.9720   -8.1740   -1.5880 C.3       9 GLL5        0.0000 
     26 CA         16.0355   -6.2475   -1.9965 C.3       3 GLC5        0.0000 
     27 CA         12.0755   -6.8405   -0.2715 C.3       3 GLC5        0.0000 
     28 CA         12.9730   -7.6490    1.0270 C.3       9 GLL5        0.0000 
     29 CA         11.1780   -6.0320   -1.5700 C.3       6 GLP5        0.0000 
     30 CA         10.1335   -9.9500   -0.3975 C.3       3 GLC5        0.0000 
     31 CA         11.0340   -8.9860    1.1550 C.3       9 GLL5        0.0000 
     32 CA          9.2330  -10.9140   -1.9500 C.3       6 GLP5        0.0000 
     33 CA         11.1060   -7.5090   -0.2075 C.3       3 GLC5        0.0000 
     34 CA         11.5015  -10.8365    1.6145 C.3       3 GLC5        0.0000 
     35 CA         11.9690  -12.6870    2.0740 C.3       6 GLP5        0.0000 
     36 CA         14.3030   -4.6730    4.5435 C.3       3 GLC5        0.0000 
     37 CA         12.7060   -4.9020    3.6820 C.3       9 GLL5        0.0000 
     38 CA         15.9000   -4.4440    5.4050 C.3       6 GLP5        0.0000 
     39 CA         11.7820   -1.3705    1.5395 C.3       3 GLC5        0.0000 
     40 CA         13.2280   -2.8900    2.1960 C.3       9 GLL5        0.0000 
     41 CA         10.3360    0.1490    0.8830 C.3       6 GLP5        0.0000 
     42 CA         14.6910   -2.9095    0.8275 C.3       3 GLC5        0.0000 
     43 CA         14.7385   -1.3295    2.3730 C.3       3 GLC5        0.0000 
     44 CA         16.2490    0.2310    2.5500 C.3       6 GLP5        0.0000 
     45 N          13.5910   -0.6805    0.9205 N.am      2 SEC2        0.0000 
     46 N          13.3080   -1.5490    2.0270 N.am      8 SEL2        0.0000 
     47 N          13.8740    0.1880   -0.1860 N.am      5 SEP2        0.0000 
     48 CA         13.6695    0.5960    4.5020 C.3       3 GLC5        0.0000 
     49 CA         12.9820   -0.6850    3.0340 C.3       9 GLL5        0.0000 
     50 CA         14.3570    1.8770    5.9700 C.3       6 GLP5        0.0000 
     51 CA         11.3565   -0.1245    4.3145 C.3       3 GLC5        0.0000 
     52 CA          9.7310    0.4360    5.5950 C.3       6 GLP5        0.0000 
     53 CA         11.6590   -0.2680    1.9585 C.3       3 GLC5        0.0000 
     54 CA         14.6155   -0.2270    2.7920 C.3       3 GLC5        0.0000 
     55 O          13.4770    0.4540    1.3195 O.2       1 ALC1        0.0000 
     56 O          13.0800    0.7200    2.8250 O.2       7 ALL1        0.0000 
     57 O          13.8740    0.1880   -0.1860 O.2       4 ALP1        0.0000 
     58 O          13.2880    1.4575    1.7495 O.2       1 ALC1        0.0000 
     59 O          13.4960    2.1950    0.6740 O.2       4 ALP1        0.0000 
     60 CA         13.4105   -1.0975    5.6345 C.3       3 GLC5        0.0000 
     61 CA         12.4660   -2.4810    4.4530 C.3       9 GLL5        0.0000 
     62 CA         14.3550    0.2860    6.8160 C.3       6 GLP5        0.0000 
     63 CA         11.0985   -1.0225    5.0240 C.3       3 GLC5        0.0000 
     64 O          11.6380   -1.9285    6.6060 O.2       1 ALC1        0.0000 
     65 O          12.0200   -2.9400    5.7370 O.2       7 ALL1        0.0000 
     66 O          11.2560   -0.9170    7.4750 O.2       4 ALP1        0.0000 
     67 O          11.8260   -4.0085    6.6195 O.2       1 ALC1        0.0000 
     68 O          11.6320   -5.0770    7.5020 O.2       4 ALP1        0.0000 
     69 O          10.6220   -2.8055    6.7665 O.2       1 ALC1        0.0000 
     70 O           9.2240   -2.6710    7.7960 O.2       4 ALP1        0.0000 
     71 CA         22.5470   -5.7453    5.1237 C.3       3 GLC5        0.0000 
     72 CA         22.7320   -3.9380    4.4090 C.3       9 GLL5        0.0000 
     73 CA         21.7090   -7.3410    5.8810 C.3       6 GLP5        0.0000 
     74 CA         23.0145   -3.7433    6.3667 C.3       3 GLC5        0.0000 
     75 CA         22.6440   -3.3370    8.3670 C.3       6 GLP5        0.0000 
     76 CA         23.6986   -2.5940    3.4475 C.3       3 GLC5        0.0000 
     77 CA         24.0380   -4.3610    4.3240 C.3       9 GLL5        0.0000 
     78 CA         25.1573   -3.5252    2.1368 C.3       3 GLC5        0.0000 
     79 CA         24.4950   -5.0020    3.1970 C.3       9 GLL5        0.0000 
     80 CA         26.2570   -1.9350    1.6150 C.3       6 GLP5        0.0000 
     81 CA         21.8938   -6.3419    2.9926 C.3       3 GLC5        0.0000 
     82 CA         23.6200   -5.2290    2.1200 C.3       9 GLL5        0.0000 
     83 CA         24.6951   -6.5011    3.7626 C.3       3 GLC5        0.0000 
     84 CA         25.4470   -8.0470    4.5850 C.3       6 GLP5        0.0000 
     85 CA         15.9872   -8.2482    2.1715 C.3       3 GLC5        0.0000 
     86 CA         16.0190   -9.6520    3.1910 C.3       6 GLP5        0.0000 
     87 CA         15.5560   -4.6435    0.6422 C.3       3 GLC5        0.0000 
     88 CA         15.2040   -6.8130    1.3410 C.3       9 GLL5        0.0000 
     89 CA         14.8377   -8.6570    2.0290 C.3       3 GLC5        0.0000 
     90 CA         11.5880   -5.7962    0.8575 C.3       3 GLC5        0.0000 
     91 CA         12.4780   -6.7480    1.9800 C.3       9 GLL5        0.0000 
     92 CA         10.2740   -5.2860   -0.5840 C.3       6 GLP5        0.0000 
     93 CA         14.8880   -7.4295    3.4800 C.3       3 GLC5        0.0000 
     94 CA         13.3260   -5.8650    2.6180 C.3       9 GLL5        0.0000 
     95 CA         15.7570   -8.9750    4.4960 C.3       6 GLP5        0.0000 
@<TRIPOS>BOND
@<TRIPOS>SUBSTRUCTURE
     1 ALC1       55 GROUP        1 X    ALC  0     ROOT ALC X 1
     2 SEC2       45 GROUP        1 X    SEC  0     **** SEC X 2
     3 GLC5        1 GROUP        1 X    GLC  0     **** GLC X 6
     4 ALP1       57 GROUP        1 Y    ALP  0     ROOT ALP Y 8
     5 SEP2       47 GROUP        1 Y    SEP  0     **** SEP Y 9
     6 GLP5        3 GROUP        1 Y    GLP  0     **** GLP Y 13
     7 ALL1       56 GROUP        1 Z    ALL  0     ROOT ALL Z 15
     8 SEL2       46 GROUP        1 Z    SEL  0     **** SEL Z 16
     9 GLL5        2 GROUP        1 Z    GLL  0     **** GLL Z 20
@<TRIPOS>SET

