#    Name: 4elf_35I_2_ligand
#    Modification time : Mon Mar 24 18:11:18 2014

@<TRIPOS>MOLECULE
4elf_35I_2_ligand
   66    69     1     0     0
SMALL
NO_CHARGES


@<TRIPOS>ATOM
      1 O01        19.3670   -6.6020   -0.1100 O.2       1 35I203      0.0000 
      2 C02        18.9960   -5.8560    0.7600 C.2       1 35I203      0.0000 
      3 N03        19.9270   -5.0210    1.4210 N.am      1 35I203      0.0000 
      4 N04        19.5100   -4.1800    2.4040 N.2       1 35I203      0.0000 
      5 C05        20.4280   -3.7200    3.3780 C.2       1 35I203      0.0000 
      6 C06        21.8290   -4.1720    3.2990 C.ar      1 35I203      0.0000 
      7 C07        22.7320   -3.9380    4.4090 C.ar      1 35I203      0.0000 
      8 C08        24.0380   -4.3610    4.3240 C.ar      1 35I203      0.0000 
      9 C09        24.4950   -5.0020    3.1970 C.ar      1 35I203      0.0000 
     10 C10        23.6200   -5.2290    2.1200 C.ar      1 35I203      0.0000 
     11 C11        22.2730   -4.7930    2.1980 C.ar      1 35I203      0.0000 
     12 C12        21.3290   -5.0520    1.0330 C.3       1 35I203      0.0000 
     13 C13        21.5830   -4.0420   -0.0930 C.3       1 35I203      0.0000 
     14 C14        22.6680   -4.3640   -1.1030 C.3       1 35I203      0.0000 
     15 C15        22.6970   -3.5640   -2.3900 C.3       1 35I203      0.0000 
     16 F16        21.4680   -3.5190   -2.9370 F         1 35I203      0.0000 
     17 F17        23.5550   -4.1590   -3.2310 F         1 35I203      0.0000 
     18 F18        23.1090   -2.3140   -2.1110 F         1 35I203      0.0000 
     19 C19        17.5390   -5.7880    1.1750 C.2       1 35I203      0.0000 
     20 C20        16.7070   -6.8760    0.9630 C.2       1 35I203      0.0000 
     21 C21        15.2040   -6.8130    1.3410 C.ar      1 35I203      0.0000 
     22 C22        14.3400   -7.6750    0.7070 C.ar      1 35I203      0.0000 
     23 O23        14.8180   -8.5760   -0.2550 O.3       1 35I203      0.0000 
     24 C24        14.9720   -8.1740   -1.5880 C.3       1 35I203      0.0000 
     25 C25        12.9730   -7.6490    1.0270 C.ar      1 35I203      0.0000 
     26 O26        12.0990   -8.5080    0.4180 O.3       1 35I203      0.0000 
     27 C27        11.0340   -8.9860    1.1550 C.3       1 35I203      0.0000 
     28 C28        12.4780   -6.7480    1.9800 C.ar      1 35I203      0.0000 
     29 C29        13.3260   -5.8650    2.6180 C.ar      1 35I203      0.0000 
     30 C30        12.7060   -4.9020    3.6820 C.3       1 35I203      0.0000 
     31 C31        12.8070   -3.4050    3.4220 C.ar      1 35I203      0.0000 
     32 C32        13.2280   -2.8900    2.1960 C.ar      1 35I203      0.0000 
     33 N33        13.3080   -1.5490    2.0270 N.ar      1 35I203      0.0000 
     34 C34        12.9820   -0.6850    3.0340 C.ar      1 35I203      0.0000 
     35 N35        13.0800    0.7200    2.8250 N.pl3     1 35I203      0.0000 
     36 N36        12.5690   -1.1580    4.2280 N.ar      1 35I203      0.0000 
     37 C37        12.4660   -2.4810    4.4530 C.ar      1 35I203      0.0000 
     38 N38        12.0200   -2.9400    5.7370 N.pl3     1 35I203      0.0000 
     39 C39        14.7120   -5.9030    2.3100 C.ar      1 35I203      0.0000 
     40 H          20.1579   -3.1000    4.1160 H         1 35I203      0.0000 
     41 H          22.3691   -3.4602    5.2324 H         1 35I203      0.0000 
     42 H          24.6846   -4.1945    5.1187 H         1 35I203      0.0000 
     43 H          25.4691   -5.3192    3.1282 H         1 35I203      0.0000 
     44 H          23.9492   -5.7069    1.2801 H         1 35I203      0.0000 
     45 H          21.5743   -6.0445    0.6217 H         1 35I203      0.0000 
     46 H          21.8095   -3.0491    0.3747 H         1 35I203      0.0000 
     47 H          20.6183   -3.8806   -0.6400 H         1 35I203      0.0000 
     48 H          22.5997   -5.4539   -1.3626 H         1 35I203      0.0000 
     49 H          23.6651   -4.2623   -0.5978 H         1 35I203      0.0000 
     50 H          17.2307   -4.9260    1.6005 H         1 35I203      0.0000 
     51 H          17.0147   -7.7517    0.5620 H         1 35I203      0.0000 
     52 H          11.4697   -6.7521    2.2000 H         1 35I203      0.0000 
     53 H          13.1804   -5.1354    4.6645 H         1 35I203      0.0000 
     54 H          11.6324   -5.1805    3.8033 H         1 35I203      0.0000 
     55 H          13.4724   -3.5412    1.4354 H         1 35I203      0.0000 
     56 H          13.3606    1.0102    1.9101 H         1 35I203      0.0000 
     57 H          12.8600    1.2981    3.6107 H         1 35I203      0.0000 
     58 H          12.3874   -3.8186    6.0422 H         1 35I203      0.0000 
     59 H          11.3790   -2.3430    6.2194 H         1 35I203      0.0000 
     60 H          15.3554   -5.2718    2.7892 H         1 35I203      0.0000 
     61 H          15.6144   -7.4125   -1.6744 H         1 35I203      0.0000 
     62 H          15.3181   -8.9160   -2.1621 H         1 35I203      0.0000 
     63 H          14.1060   -7.8737   -1.9878 H         1 35I203      0.0000 
     64 H          11.3383   -9.4972    1.9588 H         1 35I203      0.0000 
     65 H          10.4474   -8.2456    1.4832 H         1 35I203      0.0000 
     66 H          10.4568   -9.6010    0.6178 H         1 35I203      0.0000 
@<TRIPOS>BOND
     1    2    1 2    
     2    3    2 am   
     3   19    2 1    
     4    4    3 1    
     5   12    3 1    
     6    5    4 2    
     7    6    5 1    
     8   40    5 1    
     9    7    6 ar   
    10   11    6 ar   
    11    8    7 ar   
    12   41    7 1    
    13    9    8 ar   
    14   42    8 1    
    15   10    9 ar   
    16   43    9 1    
    17   11   10 ar   
    18   44   10 1    
    19   12   11 1    
    20   13   12 1    
    21   45   12 1    
    22   14   13 1    
    23   46   13 1    
    24   47   13 1    
    25   15   14 1    
    26   48   14 1    
    27   49   14 1    
    28   16   15 1    
    29   17   15 1    
    30   18   15 1    
    31   20   19 2    
    32   50   19 1    
    33   21   20 1    
    34   51   20 1    
    35   22   21 ar   
    36   39   21 ar   
    37   23   22 1    
    38   25   22 ar   
    39   24   23 1    
    40   61   24 1    
    41   62   24 1    
    42   63   24 1    
    43   26   25 1    
    44   28   25 ar   
    45   27   26 1    
    46   64   27 1    
    47   65   27 1    
    48   66   27 1    
    49   29   28 ar   
    50   52   28 1    
    51   30   29 1    
    52   39   29 ar   
    53   31   30 1    
    54   53   30 1    
    55   54   30 1    
    56   32   31 ar   
    57   37   31 ar   
    58   33   32 ar   
    59   55   32 1    
    60   34   33 ar   
    61   35   34 1    
    62   36   34 ar   
    63   56   35 1    
    64   57   35 1    
    65   37   36 ar   
    66   38   37 1    
    67   58   38 1    
    68   59   38 1    
    69   60   39 1    
@<TRIPOS>SUBSTRUCTURE
     1 35I203      1 GROUP   
@<TRIPOS>SET

