#    Name: 2c6t_DT5_1_INTS_M
#    Modification time : Mon Mar 24 23:04:58 2014

@<TRIPOS>MOLECULE
2c6t_DT5_1_INTS_M
   72     0     9     0     0
SMALL
NO_CHARGES


@<TRIPOS>ATOM
      1 N          32.6025  131.6720   34.4895 N.am      2 SEC2        0.0000 
      2 N          33.1260  131.5230   35.9560 N.am      8 SEL2        0.0000 
      3 N          32.0790  131.8210   33.0230 N.am      5 SEP2        0.0000 
      4 CA         35.2680  133.1810   31.3325 C.3       3 GLC5        0.0000 
      5 CA         35.7110  133.8390   33.1220 C.3       9 GLL5        0.0000 
      6 CA         34.8250  132.5230   29.5430 C.3       6 GLP5        0.0000 
      7 CA         33.4035  136.7505   34.2135 C.3       3 GLC5        0.0000 
      8 CA         35.2570  135.7360   34.5880 C.3       9 GLL5        0.0000 
      9 CA         31.5500  137.7650   33.8390 C.3       6 GLP5        0.0000 
     10 CA         37.2475  136.6350   33.6535 C.3       3 GLC5        0.0000 
     11 CA         35.7570  135.2220   33.3700 C.3       9 GLL5        0.0000 
     12 CA         38.7380  138.0480   33.9370 C.3       6 GLP5        0.0000 
     13 O          34.9985  136.8810   32.3715 O.2       1 ALC1        0.0000 
     14 O          36.1770  136.0860   32.4050 O.2       7 ALL1        0.0000 
     15 O          33.8200  137.6760   32.3380 O.2       4 ALP1        0.0000 
     16 CA         40.2320  136.7755   30.6000 C.3       3 GLC5        0.0000 
     17 CA         38.3240  136.2870   29.5890 C.3       9 GLL5        0.0000 
     18 CA         42.1400  137.2640   31.6110 C.3       6 GLP5        0.0000 
     19 CA         38.8950  138.1340   29.9510 C.3       3 GLC5        0.0000 
     20 CA         39.4660  139.9810   30.3130 C.3       6 GLP5        0.0000 
     21 CA         36.9805  135.4975   29.0965 C.3       3 GLC5        0.0000 
     22 CA         35.6370  134.7080   28.6040 C.3       6 GLP5        0.0000 
     23 CA         38.2785  138.9315   29.5605 C.3       3 GLC5        0.0000 
     24 CA         37.0910  137.8820   28.8080 C.3       9 GLL5        0.0000 
     25 CA         36.9365  137.8925   26.8430 C.3       3 GLC5        0.0000 
     26 CA         36.7820  137.9030   24.8780 C.3       6 GLP5        0.0000 
     27 CA         38.3840  139.0660   27.5480 C.3       3 GLC5        0.0000 
     28 CA         39.6770  140.2500   26.2880 C.3       6 GLP5        0.0000 
     29 CA         36.0920  139.7010   29.3380 C.3       3 GLC5        0.0000 
     30 CA         35.0930  141.5200   29.8680 C.3       6 GLP5        0.0000 
     31 CA         35.3070  137.9050   27.8570 C.3       3 GLC5        0.0000 
     32 CA         33.5230  137.9280   26.9060 C.3       6 GLP5        0.0000 
     33 CA         36.3640  136.2950   28.7060 C.3       3 GLC5        0.0000 
     34 N          35.2740  138.4435   30.0615 N.am      2 SEC2        0.0000 
     35 N          36.5610  137.4900   29.9830 N.am      8 SEL2        0.0000 
     36 N          33.9870  139.3970   30.1400 N.am      5 SEP2        0.0000 
     37 CA         40.6500  135.9165   31.2650 C.3       3 GLC5        0.0000 
     38 CA         39.1600  134.5690   30.9190 C.3       9 GLL5        0.0000 
     39 CA         42.8305  130.8795   32.4845 C.3       3 GLC5        0.0000 
     40 CA         41.0520  130.9700   31.1850 C.3       9 GLL5        0.0000 
     41 CA         44.6090  130.7890   33.7840 C.3       6 GLP5        0.0000 
     42 CA         37.8645  129.8865   28.5560 C.3       3 GLC5        0.0000 
     43 CA         39.1070  131.3710   29.6360 C.3       9 GLL5        0.0000 
     44 CA         36.6220  128.4020   27.4760 C.3       6 GLP5        0.0000 
     45 CA         36.9660  131.9470   29.5895 C.3       3 GLC5        0.0000 
     46 CA         38.5090  132.6895   27.3325 C.3       3 GLC5        0.0000 
     47 CA         39.8460  132.5770   29.0320 C.3       9 GLL5        0.0000 
     48 CA         37.1720  132.8020   25.6330 C.3       6 GLP5        0.0000 
     49 CA         36.9193  135.8587   35.4813 C.3       3 GLC5        0.0000 
     50 CA         34.7620  134.8690   35.5610 C.3       9 GLL5        0.0000 
     51 CA         38.8290  136.4150   35.8880 C.3       6 GLP5        0.0000 
     52 CA         33.3710  133.6865   33.7332 C.3       3 GLC5        0.0000 
     53 CA         31.2820  133.9660   33.8600 C.3       6 GLP5        0.0000 
     54 CA         34.5080  131.7665   32.8363 C.3       3 GLC5        0.0000 
     55 CA         35.2090  132.9750   34.0910 C.3       9 GLL5        0.0000 
     56 CA         33.5560  130.1260   32.0660 C.3       6 GLP5        0.0000 
     57 CA         33.1416  134.4620   34.4366 C.3       3 GLC5        0.0000 
     58 CA         34.7290  133.4910   35.3160 C.3       9 GLL5        0.0000 
     59 CA         38.1930  136.6770   32.8157 C.3       3 GLC5        0.0000 
     60 CA         37.1790  135.7930   31.5480 C.3       9 GLL5        0.0000 
     61 CA         37.0205  134.8227   29.9554 C.3       3 GLC5        0.0000 
     62 CA         42.4385  134.0153   30.6513 C.3       3 GLC5        0.0000 
     63 CA         40.7860  133.1930   30.0790 C.3       9 GLL5        0.0000 
     64 CA         43.5840  135.3690   31.0040 C.3       6 GLP5        0.0000 
     65 CA         41.4385  132.0515   32.8207 C.3       3 GLC5        0.0000 
     66 CA         41.8000  132.1300   30.5180 C.3       9 GLL5        0.0000 
     67 CA         41.4510  132.5530   34.7900 C.3       6 GLP5        0.0000 
     68 CA         42.5517  130.0263   30.4419 C.3       3 GLC5        0.0000 
     69 CA         44.3420  129.1140   30.3720 C.3       6 GLP5        0.0000 
     70 CA         40.4485  131.0085   27.6805 C.3       3 GLC5        0.0000 
     71 CA         40.0970  130.3270   30.1720 C.3       9 GLL5        0.0000 
     72 CA         41.1730  130.3040   25.8930 C.3       6 GLP5        0.0000 
@<TRIPOS>BOND
@<TRIPOS>SUBSTRUCTURE
     1 ALC1       13 GROUP        1 X    ALC  0     ROOT ALC X 1
     2 SEC2        1 GROUP        1 X    SEC  0     **** SEC X 2
     3 GLC5        4 GROUP        1 X    GLC  0     **** GLC X 6
     4 ALP1       15 GROUP        1 Y    ALP  0     ROOT ALP Y 8
     5 SEP2        3 GROUP        1 Y    SEP  0     **** SEP Y 9
     6 GLP5        6 GROUP        1 Y    GLP  0     **** GLP Y 13
     7 ALL1       14 GROUP        1 Z    ALL  0     ROOT ALL Z 15
     8 SEL2        2 GROUP        1 Z    SEL  0     **** SEL Z 16
     9 GLL5        5 GROUP        1 Z    GLL  0     **** GLL Z 20
@<TRIPOS>SET

