#    Name: 2c6t_DT5_1_ligand
#    Modification time : Mon Mar 24 23:04:58 2014

@<TRIPOS>MOLECULE
2c6t_DT5_1_ligand
   47    50     1     0     0
SMALL
NO_CHARGES


@<TRIPOS>ATOM
      1 N6         35.2850  131.5110   37.1530 N.pl3     1 DT51297     0.0000 
      2 S1         34.0950  132.3920   36.5480 S.o2      1 DT51297     0.0000 
      3 O2         33.4750  133.1620   37.5890 O.2       1 DT51297     0.0000 
      4 O3         33.1260  131.5230   35.9560 O.2       1 DT51297     0.0000 
      5 C16        34.7290  133.4910   35.3160 C.ar      1 DT51297     0.0000 
      6 C15        34.7620  134.8690   35.5610 C.ar      1 DT51297     0.0000 
      7 C17        35.2090  132.9750   34.0910 C.ar      1 DT51297     0.0000 
      8 C18        35.7110  133.8390   33.1220 C.ar      1 DT51297     0.0000 
      9 C14        35.2570  135.7360   34.5880 C.ar      1 DT51297     0.0000 
     10 C13        35.7570  135.2220   33.3700 C.ar      1 DT51297     0.0000 
     11 N5         36.1770  136.0860   32.4050 N.pl3     1 DT51297     0.0000 
     12 C9         37.1790  135.7930   31.5480 C.ar      1 DT51297     0.0000 
     13 N2         37.3210  136.5040   30.4390 N.pl3     1 DT51297     0.0000 
     14 C10        38.3240  136.2870   29.5890 C.ar      1 DT51297     0.0000 
     15 N1         39.2470  135.3190   29.7960 N.ar      1 DT51297     0.0000 
     16 N4         38.2020  137.1110   28.5710 N.ar      1 DT51297     0.0000 
     17 C11        37.0910  137.8820   28.8080 C.ar      1 DT51297     0.0000 
     18 N3         36.5610  137.4900   29.9830 N.ar      1 DT51297     0.0000 
     19 C8         38.1170  134.8190   31.8410 C.ar      1 DT51297     0.0000 
     20 C7         39.1600  134.5690   30.9190 C.ar      1 DT51297     0.0000 
     21 O1         40.0830  133.5890   31.1930 O.3       1 DT51297     0.0000 
     22 C1         40.7860  133.1930   30.0790 C.3       1 DT51297     0.0000 
     23 C2         41.8000  132.1300   30.5180 C.3       1 DT51297     0.0000 
     24 C3         41.0520  130.9700   31.1850 C.3       1 DT51297     0.0000 
     25 C4         40.0970  130.3270   30.1720 C.3       1 DT51297     0.0000 
     26 C5         39.1070  131.3710   29.6360 C.3       1 DT51297     0.0000 
     27 C6         39.8460  132.5770   29.0320 C.3       1 DT51297     0.0000 
     28 H          35.7608  130.9124   36.5086 H         1 DT51297     0.0000 
     29 H          35.4639  131.6249   38.1302 H         1 DT51297     0.0000 
     30 H          34.4220  135.2374   36.4555 H         1 DT51297     0.0000 
     31 H          35.1834  131.9648   33.9255 H         1 DT51297     0.0000 
     32 H          36.0486  133.4730   32.2257 H         1 DT51297     0.0000 
     33 H          35.2621  136.7478   34.7477 H         1 DT51297     0.0000 
     34 H          35.6951  137.0253   32.3269 H         1 DT51297     0.0000 
     35 H          36.7632  138.5723   28.2310 H         1 DT51297     0.0000 
     36 H          38.0692  134.2814   32.7056 H         1 DT51297     0.0000 
     37 H          41.3315  133.9895   29.6140 H         1 DT51297     0.0000 
     38 H          42.4914  132.5645   31.2249 H         1 DT51297     0.0000 
     39 H          42.3321  131.7632   29.6526 H         1 DT51297     0.0000 
     40 H          40.4831  131.3459   32.0250 H         1 DT51297     0.0000 
     41 H          41.7656  130.2307   31.5237 H         1 DT51297     0.0000 
     42 H          39.5458  129.5275   30.6562 H         1 DT51297     0.0000 
     43 H          40.6711  129.9216   29.3453 H         1 DT51297     0.0000 
     44 H          38.4721  131.7137   30.4505 H         1 DT51297     0.0000 
     45 H          38.4848  130.9140   28.8692 H         1 DT51297     0.0000 
     46 H          40.4263  132.2489   28.1786 H         1 DT51297     0.0000 
     47 H          39.1219  133.3193   28.7199 H         1 DT51297     0.0000 
@<TRIPOS>BOND
     1    2    1 1    
     2   28    1 1    
     3   29    1 1    
     4    3    2 2    
     5    4    2 2    
     6    5    2 1    
     7    6    5 ar   
     8    7    5 ar   
     9    9    6 ar   
    10   30    6 1    
    11    8    7 ar   
    12   31    7 1    
    13   10    8 ar   
    14   32    8 1    
    15   10    9 ar   
    16   33    9 1    
    17   11   10 1    
    18   12   11 1    
    19   34   11 1    
    20   13   12 ar   
    21   19   12 ar   
    22   14   13 ar   
    23   18   13 ar   
    24   15   14 ar   
    25   16   14 ar   
    26   20   15 ar   
    27   17   16 ar   
    28   18   17 ar   
    29   35   17 1    
    30   20   19 ar   
    31   36   19 1    
    32   21   20 1    
    33   22   21 1    
    34   23   22 1    
    35   27   22 1    
    36   37   22 1    
    37   24   23 1    
    38   38   23 1    
    39   39   23 1    
    40   25   24 1    
    41   40   24 1    
    42   41   24 1    
    43   26   25 1    
    44   42   25 1    
    45   43   25 1    
    46   27   26 1    
    47   44   26 1    
    48   45   26 1    
    49   46   27 1    
    50   47   27 1    
@<TRIPOS>SUBSTRUCTURE
     1 DT51297     1 GROUP   
@<TRIPOS>SET

