#    Name: 1ce8_IMP_1_INTS_M
#    Modification time : Mon Mar 24 20:33:15 2014

@<TRIPOS>MOLECULE
1ce8_IMP_1_INTS_M
   58     0    12     0     0
SMALL
NO_CHARGES


@<TRIPOS>ATOM
      1 NZ         26.7455    8.2555   34.3845 N.4       3 LYC4        0.0000 
      2 NZ         25.0390    8.2320   34.8530 N.4      11 LYL4        0.0000 
      3 NZ         28.4520    8.2790   33.9160 N.4       7 LYP4        0.0000 
      4 N          24.2545    8.3200   35.7655 N.am      2 SEC2        0.0000 
      5 N          25.0390    8.2320   34.8530 N.am     10 SEL2        0.0000 
      6 N          23.4700    8.4080   36.6780 N.am      6 SEP2        0.0000 
      7 N          25.3890    6.9760   34.4025 N.am      2 SEC2        0.0000 
      8 N          25.7390    5.7200   33.9520 N.am      6 SEP2        0.0000 
      9 N          25.8660    7.5560   35.5165 N.am      2 SEC2        0.0000 
     10 N          26.6930    6.8800   36.1800 N.am      6 SEP2        0.0000 
     11 NZ         23.3560   10.3650   32.9635 N.4       3 LYC4        0.0000 
     12 NZ         24.0350    9.2950   32.8830 N.4      11 LYL4        0.0000 
     13 NZ         22.6770   11.4350   33.0440 N.4       7 LYP4        0.0000 
     14 N          23.9610    7.9985   32.4970 N.am      2 SEC2        0.0000 
     15 N          24.0350    9.2950   32.8830 N.am     10 SEL2        0.0000 
     16 N          23.8870    6.7020   32.1110 N.am      6 SEP2        0.0000 
     17 N          23.3560   10.3650   32.9635 N.am      2 SEC2        0.0000 
     18 N          22.6770   11.4350   33.0440 N.am      6 SEP2        0.0000 
     19 NZ         27.4455    8.7760   33.5535 N.4       3 LYC4        0.0000 
     20 NZ         26.4390    9.2730   33.1910 N.4      11 LYL4        0.0000 
     21 N          27.4455    8.7760   33.5535 N.am      2 SEC2        0.0000 
     22 N          26.4390    9.2730   33.1910 N.am     10 SEL2        0.0000 
     23 N          28.4520    8.2790   33.9160 N.am      6 SEP2        0.0000 
     24 CA         25.8260    9.8075   37.6885 C.3       4 GLC5        0.0000 
     25 CA         25.8820   10.8910   35.9570 C.3      12 GLL5        0.0000 
     26 CA         25.7700    8.7240   39.4200 C.3       8 GLP5        0.0000 
     27 CA         23.9010   11.2155   35.1160 C.3       4 GLC5        0.0000 
     28 CA         21.9200   11.5400   34.2750 C.3       8 GLP5        0.0000 
     29 CA         28.0145   11.1230   37.9755 C.3       4 GLC5        0.0000 
     30 CA         26.6720   12.8420   37.5010 C.3      12 GLL5        0.0000 
     31 CA         29.3570    9.4040   38.4500 C.3       8 GLP5        0.0000 
     32 N          28.0580   14.5525   38.1400 N.am      2 SEC2        0.0000 
     33 N          27.8810   13.5950   37.1090 N.am     10 SEL2        0.0000 
     34 N          28.2350   15.5100   39.1710 N.am      6 SEP2        0.0000 
     35 O          28.7135   13.2885   38.1130 O.2       1 ALC1        0.0000 
     36 O          27.8810   13.5950   37.1090 O.2       9 ALL1        0.0000 
     37 O          29.5460   12.9820   39.1170 O.2       5 ALP1        0.0000 
     38 N          26.2125   13.8140   40.1330 N.am      2 SEC2        0.0000 
     39 N          25.9280   14.6640   39.1410 N.am     10 SEL2        0.0000 
     40 N          26.4970   12.9640   41.1250 N.am      6 SEP2        0.0000 
     41 O          27.0815   15.0870   39.1560 O.2       1 ALC1        0.0000 
     42 O          25.9280   14.6640   39.1410 O.2       9 ALL1        0.0000 
     43 O          28.2350   15.5100   39.1710 O.2       5 ALP1        0.0000 
     44 CA         22.2020   16.3150   38.4245 C.3       4 GLC5        0.0000 
     45 CA         21.0220   14.4670   37.9800 C.3      12 GLL5        0.0000 
     46 CA         23.3820   18.1630   38.8690 C.3       8 GLP5        0.0000 
     47 N          17.4845   14.5375   37.7340 N.am      2 SEC2        0.0000 
     48 N          18.6860   14.9880   38.3260 N.am     10 SEL2        0.0000 
     49 N          16.2830   14.0870   37.1420 N.am      6 SEP2        0.0000 
     50 CA         23.3960   16.0290   38.0730 C.3       4 GLC5        0.0000 
     51 CA         22.1890   14.7910   37.3150 C.3      12 GLL5        0.0000 
     52 CA         24.6030   17.2670   38.8310 C.3       8 GLP5        0.0000 
     53 CA         25.3990   11.4420   38.8462 C.3       4 GLC5        0.0000 
     54 CA         25.5600   13.4880   38.3400 C.3      12 GLL5        0.0000 
     55 CA         24.6820    9.7190   39.7720 C.3       8 GLP5        0.0000 
     56 CA         24.8230   15.4647   38.3222 C.3       4 GLC5        0.0000 
     57 CA         20.6917   13.4870   36.4868 C.3       4 GLC5        0.0000 
     58 CA         19.7780   12.3450   35.3260 C.3       8 GLP5        0.0000 
@<TRIPOS>BOND
@<TRIPOS>SUBSTRUCTURE
     1 ALC1       35 GROUP        1 X    ALC  0     ROOT ALC X 1
     2 SEC2        4 GROUP        1 X    SEC  0     **** SEC X 2
     3 LYC4        1 GROUP        1 X    LYC  0     **** LYC X 4
     4 GLC5       24 GROUP        1 X    GLC  0     **** GLC X 6
     5 ALP1       37 GROUP        1 Y    ALP  0     ROOT ALP Y 8
     6 SEP2        6 GROUP        1 Y    SEP  0     **** SEP Y 9
     7 LYP4        3 GROUP        1 Y    LYP  0     **** LYP Y 11
     8 GLP5       26 GROUP        1 Y    GLP  0     **** GLP Y 13
     9 ALL1       36 GROUP        1 Z    ALL  0     ROOT ALL Z 15
    10 SEL2        5 GROUP        1 Z    SEL  0     **** SEL Z 16
    11 LYL4        2 GROUP        1 Z    LYL  0     **** LYL Z 18
    12 GLL5       25 GROUP        1 Z    GLL  0     **** GLL Z 20
@<TRIPOS>SET

