#    Name: 1ce8_IMP_1_ligand
#    Modification time : Mon Mar 24 20:33:16 2014

@<TRIPOS>MOLECULE
1ce8_IMP_1_ligand
   34    36     1     0     0
SMALL
NO_CHARGES


@<TRIPOS>ATOM
      1 P          25.1500    9.3420   33.8570 P.3       1 IMP5012     0.0000 
      2 O1P        25.0390    8.2320   34.8530 O.co2     1 IMP5012     0.0000 
      3 O2P        24.0350    9.2950   32.8830 O.co2     1 IMP5012     0.0000 
      4 O3P        26.4390    9.2730   33.1910 O.co2     1 IMP5012     0.0000 
      5 O5'        25.2750   10.7570   34.6490 O.3       1 IMP5012     0.0000 
      6 C5'        25.8820   10.8910   35.9570 C.3       1 IMP5012     0.0000 
      7 C4'        25.9360   12.3540   36.2540 C.3       1 IMP5012     0.0000 
      8 O4'        24.5800   12.8570   36.3320 O.3       1 IMP5012     0.0000 
      9 C3'        26.6720   12.8420   37.5010 C.3       1 IMP5012     0.0000 
     10 O3'        27.8810   13.5950   37.1090 O.3       1 IMP5012     0.0000 
     11 C2'        25.5600   13.4880   38.3400 C.3       1 IMP5012     0.0000 
     12 O2'        25.9280   14.6640   39.1410 O.3       1 IMP5012     0.0000 
     13 C1'        24.5260   13.8370   37.2870 C.3       1 IMP5012     0.0000 
     14 N9         23.1290   13.8670   37.7420 N.pl3     1 IMP5012     0.0000 
     15 C8         22.4960   13.0500   38.6220 C.2       1 IMP5012     0.0000 
     16 N7         21.2090   13.3720   38.8050 N.2       1 IMP5012     0.0000 
     17 C5         21.0220   14.4670   37.9800 C.2       1 IMP5012     0.0000 
     18 C6         19.8620   15.2380   37.7260 C.2       1 IMP5012     0.0000 
     19 O6         18.6860   14.9880   38.3260 O.2       1 IMP5012     0.0000 
     20 N1         20.0200   16.2850   36.8550 N.am      1 IMP5012     0.0000 
     21 C2         21.2560   16.4850   36.2810 C.2       1 IMP5012     0.0000 
     22 N3         22.3660   15.8160   36.4360 N.2       1 IMP5012     0.0000 
     23 C4         22.1890   14.7910   37.3150 C.2       1 IMP5012     0.0000 
     24 H          26.8887   10.4883   35.9629 H         1 IMP5012     0.0000 
     25 H          25.2873   10.3946   36.7156 H         1 IMP5012     0.0000 
     26 H          26.4097   12.8680   35.3795 H         1 IMP5012     0.0000 
     27 H          26.9594   11.9015   38.0272 H         1 IMP5012     0.0000 
     28 H          25.1215   12.7025   38.9498 H         1 IMP5012     0.0000 
     29 H          24.7877   14.7981   36.8562 H         1 IMP5012     0.0000 
     30 H          22.9508   12.2910   39.0799 H         1 IMP5012     0.0000 
     31 H          19.2370   16.9072   36.6338 H         1 IMP5012     0.0000 
     32 H          21.2866   17.3525   35.5853 H         1 IMP5012     0.0000 
     33 H          28.6472   13.0475   37.4454 H         1 IMP5012     0.0000 
     34 H          26.6752   15.0969   38.6368 H         1 IMP5012     0.0000 
@<TRIPOS>BOND
     1    2    1 ar   
     2    3    1 ar   
     3    4    1 ar   
     4    5    1 1    
     5    6    5 1    
     6    7    6 1    
     7   24    6 1    
     8   25    6 1    
     9    8    7 1    
    10    9    7 1    
    11   26    7 1    
    12   13    8 1    
    13   10    9 1    
    14   11    9 1    
    15   27    9 1    
    16   33   10 1    
    17   12   11 1    
    18   13   11 1    
    19   28   11 1    
    20   34   12 1    
    21   14   13 1    
    22   29   13 1    
    23   15   14 1    
    24   23   14 1    
    25   16   15 2    
    26   30   15 1    
    27   17   16 1    
    28   18   17 1    
    29   23   17 2    
    30   19   18 2    
    31   20   18 am   
    32   21   20 1    
    33   31   20 1    
    34   22   21 2    
    35   32   21 1    
    36   23   22 1    
@<TRIPOS>SUBSTRUCTURE
     1 IMP5012     1 GROUP   
@<TRIPOS>SET

