#    Name: 1ep2_FAD_2_INTS_M
#    Modification time : Tue Mar 25 00:07:28 2014

@<TRIPOS>MOLECULE
1ep2_FAD_2_INTS_M
   82     0     9     0     0
SMALL
NO_CHARGES


@<TRIPOS>ATOM
      1 N          44.2150   16.4795   13.3095 N.am      2 SEC2        0.0000 
      2 N          43.2620   16.5920   12.0000 N.am      8 SEL2        0.0000 
      3 N          45.1680   16.3670   14.6190 N.am      5 SEP2        0.0000 
      4 CA         43.3370   18.1455   18.4975 C.3       3 GLC5        0.0000 
      5 CA         42.1270   16.8600   17.1480 C.3       9 GLL5        0.0000 
      6 CA         44.5470   19.4310   19.8470 C.3       6 GLP5        0.0000 
      7 CA         36.2035   15.4015   17.9560 C.3       3 GLC5        0.0000 
      8 CA         36.9140   13.5600   18.4670 C.3       9 GLL5        0.0000 
      9 CA         35.4930   17.2430   17.4450 C.3       6 GLP5        0.0000 
     10 N          40.4545    4.9885   15.1210 N.am      2 SEC2        0.0000 
     11 N          39.5800    5.3140   16.3520 N.am      8 SEL2        0.0000 
     12 N          41.3290    4.6630   13.8900 N.am      5 SEP2        0.0000 
     13 O          40.4760    3.5190   18.3245 O.2       1 ALC1        0.0000 
     14 O          39.4930    4.6230   18.4730 O.2       7 ALL1        0.0000 
     15 O          41.4590    2.4150   18.1760 O.2       4 ALP1        0.0000 
     16 N          39.9565    4.7615   21.9095 N.am      2 SEC2        0.0000 
     17 N          39.3770    4.0040   20.6220 N.am      8 SEL2        0.0000 
     18 N          40.5360    5.5190   23.1970 N.am      5 SEP2        0.0000 
     19 N          40.2720    2.6985   20.8495 N.am      2 SEC2        0.0000 
     20 N          41.1670    1.3930   21.0770 N.am      5 SEP2        0.0000 
     21 N          39.4565    6.0230   22.2825 N.am      2 SEC2        0.0000 
     22 N          38.3770    6.5270   21.3680 N.am      8 SEL2        0.0000 
     23 N          38.1175    5.7665   22.7650 N.am      2 SEC2        0.0000 
     24 N          37.8580    5.0060   24.1620 N.am      5 SEP2        0.0000 
     25 CA         38.2260    6.0445   23.5240 C.3       3 GLC5        0.0000 
     26 CA         37.6040    8.0980   22.9440 C.3       9 GLL5        0.0000 
     27 CA         38.8480    3.9910   24.1040 C.3       6 GLP5        0.0000 
     28 CA         38.8535   10.5065   23.2480 C.3       3 GLC5        0.0000 
     29 CA         37.1240    9.3180   23.2940 C.3       9 GLL5        0.0000 
     30 CA         40.5830   11.6950   23.2020 C.3       6 GLP5        0.0000 
     31 CA         37.9585    9.4475   26.4260 C.3       3 GLC5        0.0000 
     32 CA         36.8240    9.6080   24.7490 C.3       9 GLL5        0.0000 
     33 CA         39.0930    9.2870   28.1030 C.3       6 GLP5        0.0000 
     34 CA         36.7380   11.4290   25.3220 C.3       3 GLC5        0.0000 
     35 CA         36.6520   13.2500   25.8950 C.3       6 GLP5        0.0000 
     36 CA         36.2325    9.0750   26.4595 C.3       3 GLC5        0.0000 
     37 CA         35.6410    8.5420   28.1700 C.3       6 GLP5        0.0000 
     38 CA         34.5255   11.2905   22.3780 C.3       3 GLC5        0.0000 
     39 CA         36.3690   11.6800   22.6290 C.3       9 GLL5        0.0000 
     40 CA         32.6820   10.9010   22.1270 C.3       6 GLP5        0.0000 
     41 CA         34.8350   13.1625   22.2250 C.3       3 GLC5        0.0000 
     42 CA         33.3010   14.6450   21.8210 C.3       6 GLP5        0.0000 
     43 CA         36.5105   12.4650   24.2620 C.3       3 GLC5        0.0000 
     44 O          40.0840   10.1250   20.1485 O.2       1 ALC1        0.0000 
     45 O          39.6640   10.7350   18.9930 O.2       7 ALL1        0.0000 
     46 O          40.5040    9.5150   21.3040 O.2       4 ALP1        0.0000 
     47 CA         42.3035   10.6065   15.4555 C.3       3 GLC5        0.0000 
     48 CA         40.5530   11.5360   16.3800 C.3       9 GLL5        0.0000 
     49 CA         44.0540    9.6770   14.5310 C.3       6 GLP5        0.0000 
     50 N          43.3560   13.9165   15.6400 N.am      2 SEC2        0.0000 
     51 N          42.0020   13.0120   15.0200 N.am      8 SEL2        0.0000 
     52 N          44.7100   14.8210   16.2600 N.am      5 SEP2        0.0000 
     53 N          44.3870   13.6720   15.1015 N.am      2 SEC2        0.0000 
     54 N          44.0640   12.5230   13.9430 N.am      8 SEL2        0.0000 
     55 N          45.1985   11.9470   13.5930 N.am      2 SEC2        0.0000 
     56 N          46.3330   11.3710   13.2430 N.am      5 SEP2        0.0000 
     57 N          44.1045   11.3065   13.0565 N.am      2 SEC2        0.0000 
     58 N          44.1450   10.0900   12.1700 N.am      5 SEP2        0.0000 
     59 N          43.0725   11.4050   12.3830 N.am      2 SEC2        0.0000 
     60 N          42.0000   12.7200   12.5960 N.am      8 SEL2        0.0000 
     61 N          43.8100   14.7155   14.8635 N.am      2 SEC2        0.0000 
     62 N          42.9100   14.6100   13.4670 N.am      8 SEL2        0.0000 
     63 N          44.0390   15.4885   14.0430 N.am      2 SEC2        0.0000 
     64 CA         42.7540   19.4117   15.5628 C.3       3 GLC5        0.0000 
     65 CA         42.5240   17.5120   14.6560 C.3       9 GLL5        0.0000 
     66 CA         43.4050   21.2140   15.8180 C.3       6 GLP5        0.0000 
     67 CA         43.2775   15.2372   17.3365 C.3       3 GLC5        0.0000 
     68 CA         44.8860   14.2020   17.5730 C.3       6 GLP5        0.0000 
     69 CA         36.4193   15.7266   16.9473 C.3       3 GLC5        0.0000 
     70 CA         37.2060   14.1740   15.8410 C.3       9 GLL5        0.0000 
     71 CA         39.7788    7.5747   22.1455 C.3       3 GLC5        0.0000 
     72 CA         37.9050    7.7830   21.6060 C.3       9 GLL5        0.0000 
     73 CA         41.8030    7.2090   22.0160 C.3       6 GLP5        0.0000 
     74 CA         35.2812    9.3637   21.7807 C.3       3 GLC5        0.0000 
     75 CA         33.5460    8.9050   20.7770 C.3       6 GLP5        0.0000 
     76 CA         38.4975   11.4501   21.8195 C.3       3 GLC5        0.0000 
     77 CA         36.9090   10.3270   22.2750 C.3       9 GLL5        0.0000 
     78 CA         40.0760   12.3800   21.9460 C.3       6 GLP5        0.0000 
     79 CA         35.4973    9.1560   20.7720 C.3       3 GLC5        0.0000 
     80 CA         37.1990   10.0370   20.9340 C.3       9 GLL5        0.0000 
     81 CA         42.3323   12.4445   16.7210 C.3       3 GLC5        0.0000 
     82 CA         44.1300   12.9010   17.6660 C.3       6 GLP5        0.0000 
@<TRIPOS>BOND
@<TRIPOS>SUBSTRUCTURE
     1 ALC1       13 GROUP        1 X    ALC  0     ROOT ALC X 1
     2 SEC2        1 GROUP        1 X    SEC  0     **** SEC X 2
     3 GLC5        4 GROUP        1 X    GLC  0     **** GLC X 6
     4 ALP1       15 GROUP        1 Y    ALP  0     ROOT ALP Y 8
     5 SEP2        3 GROUP        1 Y    SEP  0     **** SEP Y 9
     6 GLP5        6 GROUP        1 Y    GLP  0     **** GLP Y 13
     7 ALL1       14 GROUP        1 Z    ALL  0     ROOT ALL Z 15
     8 SEL2        2 GROUP        1 Z    SEL  0     **** SEL Z 16
     9 GLL5        5 GROUP        1 Z    GLL  0     **** GLL Z 20
@<TRIPOS>SET

