#    Name: 1ep2_FAD_2_ligand
#    Modification time : Tue Mar 25 00:07:28 2014

@<TRIPOS>MOLECULE
1ep2_FAD_2_ligand
   84    89     1     0     0
SMALL
NO_CHARGES


@<TRIPOS>ATOM
      1 PA         42.2200   15.7570   12.6730 P.3       1 FAD503      0.0000 
      2 O1A        43.2620   16.5920   12.0000 O.co2     1 FAD503      0.0000 
      3 O2A        41.1350   15.3200   12.0160 O.co2     1 FAD503      0.0000 
      4 O5B        41.6900   16.7610   13.7100 O.3       1 FAD503      0.0000 
      5 C5B        42.5240   17.5120   14.6560 C.3       1 FAD503      0.0000 
      6 C4B        41.6820   17.7070   15.9590 C.3       1 FAD503      0.0000 
      7 O4B        40.2760   17.3050   15.7190 O.3       1 FAD503      0.0000 
      8 C3B        42.1270   16.8600   17.1480 C.3       1 FAD503      0.0000 
      9 O3B        42.1750   17.5170   18.3820 O.3       1 FAD503      0.0000 
     10 C2B        41.2110   15.6850   17.0520 C.3       1 FAD503      0.0000 
     11 O2B        41.1510   14.9220   18.2130 O.3       1 FAD503      0.0000 
     12 C1B        39.9200   16.3700   16.8030 C.3       1 FAD503      0.0000 
     13 N9A        38.8800   15.5620   16.2050 N.pl3     1 FAD503      0.0000 
     14 C8A        38.5740   15.4800   14.8730 C.2       1 FAD503      0.0000 
     15 N7A        37.5720   14.6590   14.6280 N.2       1 FAD503      0.0000 
     16 C5A        37.2060   14.1740   15.8410 C.ar      1 FAD503      0.0000 
     17 C6A        36.1660   13.2350   16.2170 C.ar      1 FAD503      0.0000 
     18 N6A        35.3640   12.6610   15.3670 N.pl3     1 FAD503      0.0000 
     19 N1A        36.0820   12.9780   17.5560 N.ar      1 FAD503      0.0000 
     20 C2A        36.9140   13.5600   18.4670 C.ar      1 FAD503      0.0000 
     21 N3A        37.8980   14.4400   18.2050 N.ar      1 FAD503      0.0000 
     22 C4A        38.0050   14.7160   16.8700 C.ar      1 FAD503      0.0000 
     23 N1         38.8260    6.8310   17.7380 N.2       1 FAD503      0.0000 
     24 C2         39.2930    5.6250   17.4650 C.2       1 FAD503      0.0000 
     25 O2         39.5800    5.3140   16.3520 O.2       1 FAD503      0.0000 
     26 N3         39.4930    4.6230   18.4730 N.am      1 FAD503      0.0000 
     27 C4         39.1990    4.8720   19.7890 C.2       1 FAD503      0.0000 
     28 O4         39.3770    4.0040   20.6220 O.2       1 FAD503      0.0000 
     29 C4X        38.6820    6.2140   20.1010 C.2       1 FAD503      0.0000 
     30 N5         38.3770    6.5270   21.3680 N.2       1 FAD503      0.0000 
     31 C5X        37.9050    7.7830   21.6060 C.ar      1 FAD503      0.0000 
     32 C6         37.6040    8.0980   22.9440 C.ar      1 FAD503      0.0000 
     33 C7         37.1240    9.3180   23.2940 C.ar      1 FAD503      0.0000 
     34 C7M        36.8240    9.6080   24.7490 C.3       1 FAD503      0.0000 
     35 C8         36.9090   10.3270   22.2750 C.ar      1 FAD503      0.0000 
     36 C8M        36.3690   11.6800   22.6290 C.3       1 FAD503      0.0000 
     37 C9         37.1990   10.0370   20.9340 C.ar      1 FAD503      0.0000 
     38 C9A        37.6980    8.7770   20.6000 C.ar      1 FAD503      0.0000 
     39 N10        38.0290    8.4010   19.2670 N.pl3     1 FAD503      0.0000 
     40 C10        38.5010    7.1680   19.0110 C.2       1 FAD503      0.0000 
     41 C1'        37.8720    9.3630   18.1340 C.3       1 FAD503      0.0000 
     42 C2'        39.2710    9.9990   17.8300 C.3       1 FAD503      0.0000 
     43 O2'        39.6640   10.7350   18.9930 O.3       1 FAD503      0.0000 
     44 C3'        39.1790   10.9410   16.6280 C.3       1 FAD503      0.0000 
     45 O3'        38.7920   10.1940   15.4890 O.3       1 FAD503      0.0000 
     46 C4'        40.5530   11.5360   16.3800 C.3       1 FAD503      0.0000 
     47 O4'        40.9630   12.2970   17.5380 O.3       1 FAD503      0.0000 
     48 C5'        40.5160   12.4400   15.1720 C.3       1 FAD503      0.0000 
     49 O5'        42.0020   13.0120   15.0200 O.3       1 FAD503      0.0000 
     50 P          42.6970   13.1880   13.6880 P.3       1 FAD503      0.0000 
     51 O1P        44.0640   12.5230   13.9430 O.co2     1 FAD503      0.0000 
     52 O2P        42.0000   12.7200   12.5960 O.co2     1 FAD503      0.0000 
     53 O3P        42.9100   14.6100   13.4670 O.3       1 FAD503      0.0000 
     54 H          42.7732   18.4888   14.2769 H         1 FAD503      0.0000 
     55 H          43.4149   16.9671   14.9193 H         1 FAD503      0.0000 
     56 H          41.7036   18.7429   16.2422 H         1 FAD503      0.0000 
     57 H          43.1347   16.4709   16.8437 H         1 FAD503      0.0000 
     58 H          41.4640   15.1374   16.1701 H         1 FAD503      0.0000 
     59 H          39.6027   16.9179   17.6278 H         1 FAD503      0.0000 
     60 H          39.0724   15.9974   14.1824 H         1 FAD503      0.0000 
     61 H          34.6886   12.0333   15.7541 H         1 FAD503      0.0000 
     62 H          35.4973   12.9007   14.4054 H         1 FAD503      0.0000 
     63 H          36.7616   13.2810   19.5047 H         1 FAD503      0.0000 
     64 H          39.8659    3.7077   18.1739 H         1 FAD503      0.0000 
     65 H          37.7606    7.3635   23.6659 H         1 FAD503      0.0000 
     66 H          37.0458   10.7419   20.2120 H         1 FAD503      0.0000 
     67 H          37.1937   10.1590   18.3961 H         1 FAD503      0.0000 
     68 H          37.5351    8.8572   17.2435 H         1 FAD503      0.0000 
     69 H          39.9472    9.2071   17.6124 H         1 FAD503      0.0000 
     70 H          38.4977   11.7218   16.8575 H         1 FAD503      0.0000 
     71 H          41.2441   10.7318   16.1898 H         1 FAD503      0.0000 
     72 H          39.8682   13.2664   15.3290 H         1 FAD503      0.0000 
     73 H          40.2899   11.8947   14.2895 H         1 FAD503      0.0000 
     74 H          37.6384    9.5148   25.3218 H         1 FAD503      0.0000 
     75 H          36.4790   10.5376   24.8790 H         1 FAD503      0.0000 
     76 H          36.1338    8.9851   25.1172 H         1 FAD503      0.0000 
     77 H          36.9641   12.1605   23.2733 H         1 FAD503      0.0000 
     78 H          36.2761   12.2652   21.8234 H         1 FAD503      0.0000 
     79 H          35.4655   11.6199   23.0534 H         1 FAD503      0.0000 
     80 H          41.8229   16.8535   19.0422 H         1 FAD503      0.0000 
     81 H          41.0597   13.9775   17.8974 H         1 FAD503      0.0000 
     82 H          39.7183   10.0545   19.7236 H         1 FAD503      0.0000 
     83 H          39.4142    9.4114   15.4693 H         1 FAD503      0.0000 
     84 H          40.7936   11.6936   18.3172 H         1 FAD503      0.0000 
@<TRIPOS>BOND
     1    2    1 ar   
     2    3    1 ar   
     3    4    1 1    
     4   53    1 1    
     5    5    4 1    
     6    6    5 1    
     7   54    5 1    
     8   55    5 1    
     9    7    6 1    
    10    8    6 1    
    11   56    6 1    
    12   12    7 1    
    13    9    8 1    
    14   10    8 1    
    15   57    8 1    
    16   80    9 1    
    17   11   10 1    
    18   12   10 1    
    19   58   10 1    
    20   81   11 1    
    21   13   12 1    
    22   59   12 1    
    23   14   13 1    
    24   22   13 1    
    25   15   14 2    
    26   60   14 1    
    27   16   15 1    
    28   17   16 ar   
    29   22   16 ar   
    30   18   17 1    
    31   19   17 ar   
    32   61   18 1    
    33   62   18 1    
    34   20   19 ar   
    35   21   20 ar   
    36   63   20 1    
    37   22   21 ar   
    38   24   23 1    
    39   40   23 2    
    40   25   24 2    
    41   26   24 am   
    42   27   26 am   
    43   64   26 1    
    44   28   27 2    
    45   29   27 1    
    46   30   29 2    
    47   40   29 1    
    48   31   30 1    
    49   32   31 ar   
    50   38   31 ar   
    51   33   32 ar   
    52   65   32 1    
    53   34   33 1    
    54   35   33 ar   
    55   74   34 1    
    56   75   34 1    
    57   76   34 1    
    58   36   35 1    
    59   37   35 ar   
    60   77   36 1    
    61   78   36 1    
    62   79   36 1    
    63   38   37 ar   
    64   66   37 1    
    65   39   38 1    
    66   40   39 1    
    67   41   39 1    
    68   42   41 1    
    69   67   41 1    
    70   68   41 1    
    71   43   42 1    
    72   44   42 1    
    73   69   42 1    
    74   82   43 1    
    75   45   44 1    
    76   46   44 1    
    77   70   44 1    
    78   83   45 1    
    79   47   46 1    
    80   48   46 1    
    81   71   46 1    
    82   84   47 1    
    83   49   48 1    
    84   72   48 1    
    85   73   48 1    
    86   50   49 1    
    87   51   50 ar   
    88   52   50 ar   
    89   53   50 1    
@<TRIPOS>SUBSTRUCTURE
     1 FAD503      1 GROUP   
@<TRIPOS>SET

