#    Name: 4aub_NAP_7_INTS_M
#    Modification time : Tue Mar 25 06:16:20 2014

@<TRIPOS>MOLECULE
4aub_NAP_7_INTS_M
   83     0     9     0     0
SMALL
NO_CHARGES


@<TRIPOS>ATOM
      1 N         -11.6010   30.1750   32.6690 N.am      2 SEC2        0.0000 
      2 N         -10.6980   30.9480   33.8920 N.am      8 SEL2        0.0000 
      3 N         -12.5040   29.4020   31.4460 N.am      5 SEP2        0.0000 
      4 N          -8.6225   31.0970   36.2510 N.am      2 SEC2        0.0000 
      5 N          -9.8640   30.2510   36.4440 N.am      8 SEL2        0.0000 
      6 N          -7.3810   31.9430   36.0580 N.am      5 SEP2        0.0000 
      7 N         -10.0055   30.3915   37.8570 N.am      2 SEC2        0.0000 
      8 N         -10.1470   30.5320   39.2700 N.am      5 SEP2        0.0000 
      9 CA        -13.6145   29.9330   33.1655 C.3       3 GLC5        0.0000 
     10 CA        -13.3060   30.8040   34.8510 C.3       9 GLL5        0.0000 
     11 CA        -13.9230   29.0620   31.4800 C.3       6 GLP5        0.0000 
     12 CA        -14.8120   30.2045   33.0015 C.3       3 GLC5        0.0000 
     13 CA        -15.7010   31.3470   34.5230 C.3       9 GLL5        0.0000 
     14 N         -17.8340   29.2710   33.9260 N.am      2 SEC2        0.0000 
     15 N         -16.5400   30.1820   34.5320 N.am      8 SEL2        0.0000 
     16 N         -19.1280   28.3600   33.3200 N.am      5 SEP2        0.0000 
     17 N         -12.7935   35.2700   31.5870 N.am      2 SEC2        0.0000 
     18 N         -13.6580   35.2670   32.7300 N.am      8 SEL2        0.0000 
     19 N         -11.9290   35.2730   30.4440 N.am      5 SEP2        0.0000 
     20 CA        -12.1965   35.4205   33.8685 C.3       3 GLC5        0.0000 
     21 CA        -14.1120   36.3050   33.4630 C.3       9 GLL5        0.0000 
     22 CA        -10.2810   34.5360   34.2740 C.3       6 GLP5        0.0000 
     23 CA        -12.0145   38.3780   33.6980 C.3       3 GLC5        0.0000 
     24 CA        -14.0790   37.7960   33.3590 C.3       9 GLL5        0.0000 
     25 CA         -9.9500   38.9600   34.0370 C.3       6 GLP5        0.0000 
     26 O         -13.7475   39.8665   31.9275 O.2       1 ALC1        0.0000 
     27 O         -13.4310   38.3410   32.3030 O.2       7 ALL1        0.0000 
     28 O         -14.0640   41.3920   31.5520 O.2       4 ALP1        0.0000 
     29 O         -12.4405   37.8970   31.4630 O.2       1 ALC1        0.0000 
     30 O         -11.4500   37.4530   30.6230 O.2       4 ALP1        0.0000 
     31 CA        -13.5770   37.7690   36.0390 C.3       3 GLC5        0.0000 
     32 CA        -15.3750   37.9900   35.3420 C.3       9 GLL5        0.0000 
     33 CA        -11.7790   37.5480   36.7360 C.3       6 GLP5        0.0000 
     34 CA        -10.7180   28.1150   31.8275 C.3       3 GLC5        0.0000 
     35 CA        -11.1150   26.4620   33.2170 C.3       9 GLL5        0.0000 
     36 CA        -10.3210   29.7680   30.4380 C.3       6 GLP5        0.0000 
     37 CA        -12.5190   27.7620   32.3485 C.3       3 GLC5        0.0000 
     38 CA         -9.6295   25.0015   31.0130 C.3       3 GLC5        0.0000 
     39 CA        -10.8990   25.1620   32.4900 C.3       9 GLL5        0.0000 
     40 CA         -8.3600   24.8410   29.5360 C.3       6 GLP5        0.0000 
     41 N         -14.3110   23.4890   32.0000 N.am      2 SEC2        0.0000 
     42 N         -13.1670   24.3380   32.0230 N.am      8 SEL2        0.0000 
     43 N         -15.4550   22.6400   31.9770 N.am      5 SEP2        0.0000 
     44 CA        -12.0180   21.0655   32.6400 C.3       3 GLC5        0.0000 
     45 CA        -11.1660   22.8380   32.4680 C.3       9 GLL5        0.0000 
     46 CA        -12.8700   19.2930   32.8120 C.3       6 GLP5        0.0000 
     47 O         -10.6000   21.5875   30.3585 O.2       1 ALC1        0.0000 
     48 O         -11.1550   22.5020   31.0830 O.2       7 ALL1        0.0000 
     49 O         -10.0450   20.6730   29.6340 O.2       4 ALP1        0.0000 
     50 CA         -8.0355   23.5965   33.4370 C.3       3 GLC5        0.0000 
     51 CA         -9.7340   23.1710   32.9600 C.3       9 GLL5        0.0000 
     52 CA         -6.3370   24.0220   33.9140 C.3       6 GLP5        0.0000 
     53 O          -5.7675   18.3535   34.3920 O.2       1 ALC1        0.0000 
     54 O          -7.0380   18.9680   34.5880 O.2       7 ALL1        0.0000 
     55 O          -4.4970   17.7390   34.1960 O.2       4 ALP1        0.0000 
     56 O          -7.0240   19.7510   33.2140 O.2       1 ALC1        0.0000 
     57 O          -7.0100   20.5340   31.8400 O.2       4 ALP1        0.0000 
     58 CA        -12.2550   22.7825   34.7775 C.3       3 GLC5        0.0000 
     59 CA        -10.1090   23.0170   35.3850 C.3       9 GLL5        0.0000 
     60 CA        -14.4010   22.5480   34.1700 C.3       6 GLP5        0.0000 
     61 CA         -8.2230   23.5195   34.6495 C.3       3 GLC5        0.0000 
     62 N         -19.7200   33.6105   34.4735 N.am      2 SEC2        0.0000 
     63 N         -18.8790   33.9440   35.4380 N.am      8 SEL2        0.0000 
     64 N         -20.5610   33.2770   33.5090 N.am      5 SEP2        0.0000 
     65 N         -18.4935   34.8635   34.5520 N.am      2 SEC2        0.0000 
     66 N         -18.1080   35.7830   33.6660 N.am      5 SEP2        0.0000 
     67 CA        -16.4745   31.6292   32.7443 C.3       3 GLC5        0.0000 
     68 CA        -16.4570   32.5740   34.9640 C.3       9 GLL5        0.0000 
     69 CA        -16.8700   31.2980   30.7450 C.3       6 GLP5        0.0000 
     70 CA        -13.1264   36.9786   35.3738 C.3       3 GLC5        0.0000 
     71 CA        -15.9689   36.4931   32.7298 C.3       3 GLC5        0.0000 
     72 CA        -14.8520   35.7680   34.6120 C.3       9 GLL5        0.0000 
     73 CA        -17.4640   36.5770   31.4480 C.3       6 GLP5        0.0000 
     74 CA        -12.9832   23.0132   33.3957 C.3       3 GLC5        0.0000 
     75 CA        -11.9650   24.1190   32.7750 C.3       9 GLL5        0.0000 
     76 CA        -12.0255   24.1616   30.7776 C.3       3 GLC5        0.0000 
     77 CA        -12.7520   24.5840   29.0050 C.3       6 GLP5        0.0000 
     78 CA         -9.0500   23.2542   31.2685 C.3       3 GLC5        0.0000 
     79 CA         -7.6500   23.5040   29.8230 C.3       6 GLP5        0.0000 
     80 CA         -7.5188   22.5352   34.4215 C.3       3 GLC5        0.0000 
     81 CA         -8.8030   21.3930   34.3300 C.3       9 GLL5        0.0000 
     82 CA         -9.4932   24.4045   36.9665 C.3       3 GLC5        0.0000 
     83 CA         -8.9560   26.1050   37.9460 C.3       6 GLP5        0.0000 
@<TRIPOS>BOND
@<TRIPOS>SUBSTRUCTURE
     1 ALC1       26 GROUP        1 X    ALC  0     ROOT ALC X 1
     2 SEC2        1 GROUP        1 X    SEC  0     **** SEC X 2
     3 GLC5        9 GROUP        1 X    GLC  0     **** GLC X 6
     4 ALP1       28 GROUP        1 Y    ALP  0     ROOT ALP Y 8
     5 SEP2        3 GROUP        1 Y    SEP  0     **** SEP Y 9
     6 GLP5       11 GROUP        1 Y    GLP  0     **** GLP Y 13
     7 ALL1       27 GROUP        1 Z    ALL  0     ROOT ALL Z 15
     8 SEL2        2 GROUP        1 Z    SEL  0     **** SEL Z 16
     9 GLL5       10 GROUP        1 Z    GLL  0     **** GLL Z 20
@<TRIPOS>SET

