#    Name: 4aub_NAP_7_ligand
#    Modification time : Tue Mar 25 06:16:20 2014

@<TRIPOS>MOLECULE
4aub_NAP_7_ligand
   73    77     1     0     0
SMALL
NO_CHARGES


@<TRIPOS>ATOM
      1 PA        -10.8520   30.2200   35.2720 P.3       1 NAP500      0.0000 
      2 O1A       -10.6980   30.9480   33.8920 O.co2     1 NAP500      0.0000 
      3 O2A        -9.8640   30.2510   36.4440 O.co2     1 NAP500      0.0000 
      4 O5B       -12.3090   30.5680   35.8440 O.3       1 NAP500      0.0000 
      5 C5B       -13.3060   30.8040   34.8510 C.3       1 NAP500      0.0000 
      6 C4B       -14.5580   31.2930   35.5300 C.3       1 NAP500      0.0000 
      7 O4B       -14.3130   32.6390   35.9940 O.3       1 NAP500      0.0000 
      8 C3B       -15.7010   31.3470   34.5230 C.3       1 NAP500      0.0000 
      9 O3B       -16.5400   30.1820   34.5320 O.3       1 NAP500      0.0000 
     10 C2B       -16.4570   32.5740   34.9640 C.3       1 NAP500      0.0000 
     11 O2B       -17.3460   32.1200   35.9980 O.3       1 NAP500      0.0000 
     12 C1B       -15.3620   33.5040   35.5020 C.3       1 NAP500      0.0000 
     13 N9A       -14.7680   34.4460   34.5020 N.pl3     1 NAP500      0.0000 
     14 C8A       -14.0400   34.1420   33.3910 C.2       1 NAP500      0.0000 
     15 N7A       -13.6580   35.2670   32.7300 N.2       1 NAP500      0.0000 
     16 C5A       -14.1120   36.3050   33.4630 C.ar      1 NAP500      0.0000 
     17 C6A       -14.0790   37.7960   33.3590 C.ar      1 NAP500      0.0000 
     18 N6A       -13.4310   38.3410   32.3030 N.pl3     1 NAP500      0.0000 
     19 N1A       -14.7140   38.5500   34.3120 N.ar      1 NAP500      0.0000 
     20 C2A       -15.3750   37.9900   35.3420 C.ar      1 NAP500      0.0000 
     21 N3A       -15.4520   36.6380   35.4880 N.ar      1 NAP500      0.0000 
     22 C4A       -14.8520   35.7680   34.6120 C.ar      1 NAP500      0.0000 
     23 O3        -10.8960   28.6640   34.8270 O.3       1 NAP500      0.0000 
     24 PN        -11.7930   27.4450   35.4140 P.3       1 NAP500      0.0000 
     25 O1N       -13.1700   27.6390   34.7890 O.co2     1 NAP500      0.0000 
     26 O2N       -11.7530   27.2990   36.9390 O.co2     1 NAP500      0.0000 
     27 O5D       -11.0170   26.2830   34.6370 O.3       1 NAP500      0.0000 
     28 C5D       -11.1150   26.4620   33.2170 C.3       1 NAP500      0.0000 
     29 C4D       -10.8990   25.1620   32.4900 C.3       1 NAP500      0.0000 
     30 O4D        -9.6630   24.6080   32.9280 O.3       1 NAP500      0.0000 
     31 C3D       -11.9650   24.1190   32.7750 C.3       1 NAP500      0.0000 
     32 O3D       -13.1670   24.3380   32.0230 O.3       1 NAP500      0.0000 
     33 C2D       -11.1660   22.8380   32.4680 C.3       1 NAP500      0.0000 
     34 O2D       -11.1550   22.5020   31.0830 O.3       1 NAP500      0.0000 
     35 C1D        -9.7340   23.1710   32.9600 C.3       1 NAP500      0.0000 
     36 N1N        -9.5070   22.5410   34.2910 N.pl3     1 NAP500      0.0000 
     37 C2N        -8.8030   21.3930   34.3300 C.ar      1 NAP500      0.0000 
     38 C3N        -8.5980   20.7040   35.5280 C.ar      1 NAP500      0.0000 
     39 C7N        -7.7610   19.4360   35.6370 C.2       1 NAP500      0.0000 
     40 O7N        -7.7680   18.8770   36.7390 O.2       1 NAP500      0.0000 
     41 N7N        -7.0380   18.9680   34.5880 N.am      1 NAP500      0.0000 
     42 C4N        -9.1960   21.2270   36.6720 C.ar      1 NAP500      0.0000 
     43 C5N        -9.9520   22.3910   36.5890 C.ar      1 NAP500      0.0000 
     44 C6N       -10.1090   23.0170   35.3850 C.ar      1 NAP500      0.0000 
     45 P2B       -18.6030   32.9590   36.5790 P.3       1 NAP500      0.0000 
     46 O1X       -18.1090   33.5260   37.9000 O.co2     1 NAP500      0.0000 
     47 O2X       -18.8790   33.9440   35.4380 O.co2     1 NAP500      0.0000 
     48 O3X       -19.6860   31.9250   36.7540 O.co2     1 NAP500      0.0000 
     49 H         -13.5476   29.8910   34.2983 H         1 NAP500      0.0000 
     50 H         -12.9852   31.5631   34.1311 H         1 NAP500      0.0000 
     51 H         -14.8170   30.6475   36.3240 H         1 NAP500      0.0000 
     52 H         -15.2768   31.5570   33.5605 H         1 NAP500      0.0000 
     53 H         -16.9283   33.0015   34.1482 H         1 NAP500      0.0000 
     54 H         -15.7749   34.0616   36.3339 H         1 NAP500      0.0000 
     55 H         -13.8212   33.2308   33.1069 H         1 NAP500      0.0000 
     56 H         -12.6511   37.8237   31.9506 H         1 NAP500      0.0000 
     57 H         -13.7896   39.2126   31.9688 H         1 NAP500      0.0000 
     58 H         -15.8449   38.6040   36.0538 H         1 NAP500      0.0000 
     59 H         -10.3672   27.1885   32.8559 H         1 NAP500      0.0000 
     60 H         -12.1060   26.8559   32.9339 H         1 NAP500      0.0000 
     61 H         -10.8696   25.3434   31.4295 H         1 NAP500      0.0000 
     62 H         -12.1162   24.1345   33.8501 H         1 NAP500      0.0000 
     63 H         -11.5385   22.0602   33.0983 H         1 NAP500      0.0000 
     64 H          -9.0655   22.7403   32.2214 H         1 NAP500      0.0000 
     65 H          -8.3926   20.9915   33.4572 H         1 NAP500      0.0000 
     66 H          -6.5136   18.1327   34.7528 H         1 NAP500      0.0000 
     67 H          -7.0937   19.4999   33.7430 H         1 NAP500      0.0000 
     68 H          -9.0780   20.7525   37.5756 H         1 NAP500      0.0000 
     69 H         -10.3894   22.7728   37.4420 H         1 NAP500      0.0000 
     70 H         -10.7061   23.8723   35.3330 H         1 NAP500      0.0000 
     71 H         -17.2135   30.3538   35.2511 H         1 NAP500      0.0000 
     72 H         -13.6741   25.0270   32.5408 H         1 NAP500      0.0000 
     73 H         -10.5749   21.6900   31.0184 H         1 NAP500      0.0000 
@<TRIPOS>BOND
     1    2    1 ar   
     2    3    1 ar   
     3    4    1 1    
     4   23    1 1    
     5    5    4 1    
     6    6    5 1    
     7   49    5 1    
     8   50    5 1    
     9    7    6 1    
    10    8    6 1    
    11   51    6 1    
    12   12    7 1    
    13    9    8 1    
    14   10    8 1    
    15   52    8 1    
    16   71    9 1    
    17   11   10 1    
    18   12   10 1    
    19   53   10 1    
    20   45   11 1    
    21   13   12 1    
    22   54   12 1    
    23   14   13 1    
    24   22   13 1    
    25   15   14 2    
    26   55   14 1    
    27   16   15 1    
    28   17   16 ar   
    29   22   16 ar   
    30   18   17 1    
    31   19   17 ar   
    32   56   18 1    
    33   57   18 1    
    34   20   19 ar   
    35   21   20 ar   
    36   58   20 1    
    37   22   21 ar   
    38   24   23 1    
    39   25   24 ar   
    40   26   24 ar   
    41   27   24 1    
    42   28   27 1    
    43   29   28 1    
    44   59   28 1    
    45   60   28 1    
    46   30   29 1    
    47   31   29 1    
    48   61   29 1    
    49   35   30 1    
    50   32   31 1    
    51   33   31 1    
    52   62   31 1    
    53   72   32 1    
    54   34   33 1    
    55   35   33 1    
    56   63   33 1    
    57   73   34 1    
    58   36   35 1    
    59   64   35 1    
    60   37   36 ar   
    61   44   36 ar   
    62   38   37 ar   
    63   65   37 1    
    64   39   38 1    
    65   42   38 ar   
    66   40   39 2    
    67   41   39 am   
    68   66   41 1    
    69   67   41 1    
    70   43   42 ar   
    71   68   42 1    
    72   44   43 ar   
    73   69   43 1    
    74   70   44 1    
    75   46   45 ar   
    76   47   45 ar   
    77   48   45 ar   
@<TRIPOS>SUBSTRUCTURE
     1 NAP500      1 GROUP   
@<TRIPOS>SET

