#    Name: 1tv8_SAM_1_INTS_M
#    Modification time : Tue Mar 25 05:41:56 2014

@<TRIPOS>MOLECULE
1tv8_SAM_1_INTS_M
   52     0    12     0     0
SMALL
NO_CHARGES


@<TRIPOS>ATOM
      1 OD1        16.7875   71.8945    9.0495 O.co2     3 ASC3        0.0000 
      2 OD1        16.3450   71.7520   10.7480 O.co2    11 ASL3        0.0000 
      3 OD1        17.2300   72.0370    7.3510 O.co2     7 ASP3        0.0000 
      4 O          16.5645   73.1270   11.0155 O.2       1 ALC1        0.0000 
      5 O          16.3450   71.7520   10.7480 O.2       9 ALL1        0.0000 
      6 O          16.7840   74.5020   11.2830 O.2       5 ALP1        0.0000 
      7 N          18.8525   67.7805   11.2465 N.am      2 SEC2        0.0000 
      8 N          18.5960   68.9060   10.9130 N.am     10 SEL2        0.0000 
      9 N          19.1090   66.6550   11.5800 N.am      6 SEP2        0.0000 
     10 CA         19.7165   73.4740   13.3220 C.3       4 GLC5        0.0000 
     11 CA         17.9490   72.2460   13.0690 C.3      12 GLL5        0.0000 
     12 CA         21.4840   74.7020   13.5750 C.3       8 GLP5        0.0000 
     13 CA         14.3080   71.6580   15.5270 C.3       4 GLC5        0.0000 
     14 CA         16.3640   72.1620   15.3230 C.3      12 GLL5        0.0000 
     15 CA         12.2520   71.1540   15.7310 C.3       8 GLP5        0.0000 
     16 CA         17.8160   66.8590   12.7375 C.3       4 GLC5        0.0000 
     17 CA         17.3900   67.8820   14.6590 C.3      12 GLL5        0.0000 
     18 CA         18.2420   65.8360   10.8160 C.3       8 GLP5        0.0000 
     19 O          18.7460   66.8235   12.8750 O.2       1 ALC1        0.0000 
     20 O          18.3830   66.9920   14.1700 O.2       9 ALL1        0.0000 
     21 O          19.1090   66.6550   11.5800 O.2       5 ALP1        0.0000 
     22 CA         14.6700   66.3020   16.2635 C.3       4 GLC5        0.0000 
     23 CA         16.3920   67.1900   15.5940 C.3      12 GLL5        0.0000 
     24 CA         12.9480   65.4140   16.9330 C.3       8 GLP5        0.0000 
     25 O          15.1440   65.0595   15.2245 O.2       1 ALC1        0.0000 
     26 O          16.3350   65.7960   15.3950 O.2       9 ALL1        0.0000 
     27 O          13.9530   64.3230   15.0540 O.2       5 ALP1        0.0000 
     28 CA         15.1770   65.0100   22.8910 C.3       4 GLC5        0.0000 
     29 CA         14.5690   65.5010   20.8300 C.3      12 GLL5        0.0000 
     30 CA         15.7850   64.5190   24.9520 C.3       8 GLP5        0.0000 
     31 O          13.1855   65.0965   22.9360 O.2       1 ALC1        0.0000 
     32 O          13.4990   65.6180   21.6170 O.2       9 ALL1        0.0000 
     33 O          12.8720   64.5750   24.2550 O.2       5 ALP1        0.0000 
     34 N          15.2055   63.5480   22.3515 N.am      2 SEC2        0.0000 
     35 N          15.4700   64.4640   21.0390 N.am     10 SEL2        0.0000 
     36 N          14.9410   62.6320   23.6640 N.am      6 SEP2        0.0000 
     37 CA         16.7295   63.5965   18.5535 C.3       4 GLC5        0.0000 
     38 CA         16.5830   64.3610   20.2310 C.3      12 GLL5        0.0000 
     39 CA         16.8760   62.8320   16.8760 C.3       8 GLP5        0.0000 
     40 CA         18.3020   63.1805   19.9935 C.3       4 GLC5        0.0000 
     41 CA         20.0210   62.0000   19.7560 C.3       8 GLP5        0.0000 
     42 CA         15.7755   62.5435   21.2045 C.3       4 GLC5        0.0000 
     43 CA         14.9680   60.7260   22.1780 C.3       8 GLP5        0.0000 
     44 CA         17.3910   65.2515   21.7440 C.3       4 GLC5        0.0000 
     45 CA         18.1990   66.1420   23.2570 C.3       8 GLP5        0.0000 
     46 CA         16.4120   64.5700   17.9285 C.3       4 GLC5        0.0000 
     47 CA         15.9480   66.3080   18.9810 C.3      12 GLL5        0.0000 
     48 CA         18.6620   73.0817   10.1423 C.3       4 GLC5        0.0000 
     49 CA         18.6140   71.7080   11.8160 C.3      12 GLL5        0.0000 
     50 CA         19.1920   74.7740    8.9810 C.3       8 GLP5        0.0000 
     51 CA         19.1770   70.9337    9.5578 C.3       4 GLC5        0.0000 
     52 CA         20.2220   70.4780    7.8120 C.3       8 GLP5        0.0000 
@<TRIPOS>BOND
@<TRIPOS>SUBSTRUCTURE
     1 ALC1        4 GROUP        1 X    ALC  0     ROOT ALC X 1
     2 SEC2        7 GROUP        1 X    SEC  0     **** SEC X 2
     3 ASC3        1 GROUP        1 X    ASC  0     **** ASC X 3
     4 GLC5       10 GROUP        1 X    GLC  0     **** GLC X 6
     5 ALP1        6 GROUP        1 Y    ALP  0     ROOT ALP Y 8
     6 SEP2        9 GROUP        1 Y    SEP  0     **** SEP Y 9
     7 ASP3        3 GROUP        1 Y    ASP  0     **** ASP Y 10
     8 GLP5       12 GROUP        1 Y    GLP  0     **** GLP Y 13
     9 ALL1        5 GROUP        1 Z    ALL  0     ROOT ALL Z 15
    10 SEL2        8 GROUP        1 Z    SEL  0     **** SEL Z 16
    11 ASL3        2 GROUP        1 Z    ASL  0     **** ASL Z 17
    12 GLL5       11 GROUP        1 Z    GLL  0     **** GLL Z 20
@<TRIPOS>SET

