#    Name: 1tv8_SAM_1_ligand
#    Modification time : Tue Mar 25 05:41:56 2014

@<TRIPOS>MOLECULE
1tv8_SAM_1_ligand
   50    52     1     0     0
SMALL
NO_CHARGES


@<TRIPOS>ATOM
      1 N          16.3450   71.7520   10.7480 N.4       1 SAM1501     0.0000 
      2 CA         17.6500   71.0710   10.7910 C.3       1 SAM1501     0.0000 
      3 C          17.5530   69.5830   11.0950 C.2       1 SAM1501     0.0000 
      4 O          16.4530   69.1820   11.4950 O.co2     1 SAM1501     0.0000 
      5 OXT        18.5960   68.9060   10.9130 O.co2     1 SAM1501     0.0000 
      6 CB         18.6140   71.7080   11.8160 C.3       1 SAM1501     0.0000 
      7 CG         17.9490   72.2460   13.0690 C.3       1 SAM1501     0.0000 
      8 SD         16.9230   71.0710   13.9850 S.3       1 SAM1501     0.0000 
      9 CE         16.3640   72.1620   15.3230 C.3       1 SAM1501     0.0000 
     10 C5'        18.2930   70.2880   14.8950 C.3       1 SAM1501     0.0000 
     11 C4'        18.0430   68.9320   15.5580 C.3       1 SAM1501     0.0000 
     12 O4'        17.2500   68.9850   16.7310 O.3       1 SAM1501     0.0000 
     13 C3'        17.3900   67.8820   14.6590 C.3       1 SAM1501     0.0000 
     14 O3'        18.3830   66.9920   14.1700 O.3       1 SAM1501     0.0000 
     15 C2'        16.3920   67.1900   15.5940 C.3       1 SAM1501     0.0000 
     16 O2'        16.3350   65.7960   15.3950 O.3       1 SAM1501     0.0000 
     17 C1'        16.9110   67.6150   16.9820 C.3       1 SAM1501     0.0000 
     18 N9         15.9260   67.3470   18.0580 N.pl3     1 SAM1501     0.0000 
     19 C8         14.7970   68.0820   18.3070 C.2       1 SAM1501     0.0000 
     20 N7         14.1280   67.5280   19.3510 N.2       1 SAM1501     0.0000 
     21 C5         14.8100   66.4350   19.7880 C.ar      1 SAM1501     0.0000 
     22 C6         14.5690   65.5010   20.8300 C.ar      1 SAM1501     0.0000 
     23 N6         13.4990   65.6180   21.6170 N.pl3     1 SAM1501     0.0000 
     24 N1         15.4700   64.4640   21.0390 N.ar      1 SAM1501     0.0000 
     25 C2         16.5830   64.3610   20.2310 C.ar      1 SAM1501     0.0000 
     26 N3         16.8080   65.2770   19.2190 N.ar      1 SAM1501     0.0000 
     27 C4         15.9480   66.3080   18.9810 C.ar      1 SAM1501     0.0000 
     28 H          18.1489   71.1651    9.8074 H         1 SAM1501     0.0000 
     29 H          19.1630   72.5258   11.3132 H         1 SAM1501     0.0000 
     30 H          19.3687   70.9507   12.0986 H         1 SAM1501     0.0000 
     31 H          17.2480   73.0560   12.8723 H         1 SAM1501     0.0000 
     32 H          18.6582   72.5705   13.8291 H         1 SAM1501     0.0000 
     33 H          18.5638   71.0730   15.6135 H         1 SAM1501     0.0000 
     34 H          19.0802   70.2525   14.1302 H         1 SAM1501     0.0000 
     35 H          19.0432   68.5043   15.8301 H         1 SAM1501     0.0000 
     36 H          16.8493   68.3894   13.9052 H         1 SAM1501     0.0000 
     37 H          15.4447   67.6938   15.4537 H         1 SAM1501     0.0000 
     38 H          17.8240   67.0375   17.1316 H         1 SAM1501     0.0000 
     39 H          14.5265   68.8663   17.8156 H         1 SAM1501     0.0000 
     40 H          13.4028   64.9279   22.3343 H         1 SAM1501     0.0000 
     41 H          12.8890   66.3853   21.4191 H         1 SAM1501     0.0000 
     42 H          17.2588   63.5902   20.3820 H         1 SAM1501     0.0000 
     43 H          16.4413   72.7271   10.5481 H         1 SAM1501     0.0000 
     44 H          15.7478   71.3663   10.0448 H         1 SAM1501     0.0000 
     45 H          15.8585   71.6779   11.6186 H         1 SAM1501     0.0000 
     46 H          17.1256   72.6572   15.7411 H         1 SAM1501     0.0000 
     47 H          15.7130   72.8471   14.9961 H         1 SAM1501     0.0000 
     48 H          15.9102   71.6515   16.0534 H         1 SAM1501     0.0000 
     49 H          18.3709   67.1111   13.1772 H         1 SAM1501     0.0000 
     50 H          15.3901   65.6117   15.1246 H         1 SAM1501     0.0000 
@<TRIPOS>BOND
     1    2    1 1    
     2   43    1 1    
     3   44    1 1    
     4   45    1 1    
     5    3    2 1    
     6    6    2 1    
     7   28    2 1    
     8    4    3 ar   
     9    5    3 ar   
    10    7    6 1    
    11   29    6 1    
    12   30    6 1    
    13    8    7 1    
    14   31    7 1    
    15   32    7 1    
    16    9    8 1    
    17   10    8 1    
    18   46    9 1    
    19   47    9 1    
    20   48    9 1    
    21   11   10 1    
    22   33   10 1    
    23   34   10 1    
    24   12   11 1    
    25   13   11 1    
    26   35   11 1    
    27   17   12 1    
    28   14   13 1    
    29   15   13 1    
    30   36   13 1    
    31   49   14 1    
    32   16   15 1    
    33   17   15 1    
    34   37   15 1    
    35   50   16 1    
    36   18   17 1    
    37   38   17 1    
    38   19   18 1    
    39   27   18 1    
    40   20   19 2    
    41   39   19 1    
    42   21   20 1    
    43   22   21 ar   
    44   27   21 ar   
    45   23   22 1    
    46   24   22 ar   
    47   40   23 1    
    48   41   23 1    
    49   25   24 ar   
    50   26   25 ar   
    51   42   25 1    
    52   27   26 ar   
@<TRIPOS>SUBSTRUCTURE
     1 SAM1501     1 GROUP   
@<TRIPOS>SET

