#    Name: 1q4l_679_1_INTS_M
#    Modification time : Mon Mar 24 23:04:54 2014

@<TRIPOS>MOLECULE
1q4l_679_1_INTS_M
   60     0    12     0     0
SMALL
NO_CHARGES


@<TRIPOS>ATOM
      1 CA         37.4940    5.7365   36.0275 C.3       4 GLC5        0.0000 
      2 CA         37.6640    7.0740   34.3670 C.3      12 GLL5        0.0000 
      3 CA         37.3240    4.3990   37.6880 C.3       8 GLP5        0.0000 
      4 CA         37.1440   10.0475   30.5360 C.3       4 GLC5        0.0000 
      5 CA         36.7440   10.8860   32.1020 C.3      12 GLL5        0.0000 
      6 CA         37.5440    9.2090   28.9700 C.3       8 GLP5        0.0000 
      7 CA         38.6700   10.6240   31.6665 C.3       4 GLC5        0.0000 
      8 CA         40.5960   10.3620   31.2310 C.3       8 GLP5        0.0000 
      9 CA         37.2190   12.4900   31.8015 C.3       4 GLC5        0.0000 
     10 CA         37.6940   14.0940   31.5010 C.3       8 GLP5        0.0000 
     11 N          41.9485    6.9185   39.4760 N.am      2 SEC2        0.0000 
     12 N          41.6590    7.2730   38.0830 N.am     10 SEL2        0.0000 
     13 N          42.2380    6.5640   40.8690 N.am      6 SEP2        0.0000 
     14 O          40.7380    9.7385   38.9785 O.2       1 ALC1        0.0000 
     15 O          40.2260    9.0380   37.7500 O.2       9 ALL1        0.0000 
     16 O          41.2500   10.4390   40.2070 O.2       5 ALP1        0.0000 
     17 CA         42.5495    6.5975   34.2855 C.3       4 GLC5        0.0000 
     18 CA         40.6680    5.6890   34.3220 C.3      12 GLL5        0.0000 
     19 CA         44.4310    7.5060   34.2490 C.3       8 GLP5        0.0000 
     20 CA         41.7150    4.7950   29.3100 C.3       4 GLC5        0.0000 
     21 CA         40.3780    4.1460   30.1030 C.3      12 GLL5        0.0000 
     22 CA         43.0520    5.4440   28.5170 C.3       8 GLP5        0.0000 
     23 CA         40.2150    5.6695   28.5260 C.3       4 GLC5        0.0000 
     24 CA         40.0520    7.1930   26.9490 C.3       8 GLP5        0.0000 
     25 NZ         41.5000    0.6370   34.3225 N.4       3 LYC4        0.0000 
     26 NZ         41.1170    1.6090   33.1310 N.4      11 LYL4        0.0000 
     27 NZ         41.7330   -1.3570   34.6740 N.4       7 LYP4        0.0000 
     28 N          41.4765    0.2245   33.2460 N.am      2 SEC2        0.0000 
     29 N          41.1170    1.6090   33.1310 N.am     10 SEL2        0.0000 
     30 N          41.8360   -1.1600   33.3610 N.am      6 SEP2        0.0000 
     31 N          41.5000    0.6370   34.3225 N.am      2 SEC2        0.0000 
     32 N          41.8830   -0.3350   35.5140 N.am      6 SEP2        0.0000 
     33 N          37.9845    2.4580   31.9955 N.am      2 SEC2        0.0000 
     34 N          39.1290    1.8280   32.2410 N.am     10 SEL2        0.0000 
     35 N          36.8400    3.0880   31.7500 N.am      6 SEP2        0.0000 
     36 CA         34.8987    8.5345   32.9880 C.3       4 GLC5        0.0000 
     37 CA         36.7560    7.0460   33.2770 C.3      12 GLL5        0.0000 
     38 CA         33.1860    9.4310   33.0560 C.3       8 GLP5        0.0000 
     39 CA         37.1627    9.0235   30.8618 C.3       4 GLC5        0.0000 
     40 CA         36.4670    8.2300   32.5630 C.3      12 GLL5        0.0000 
     41 CA         35.9137    7.3940   34.8123 C.3       4 GLC5        0.0000 
     42 CA         34.9890    7.1430   36.4320 C.3       8 GLP5        0.0000 
     43 CA         39.0747    9.9123   32.3585 C.3       4 GLC5        0.0000 
     44 CA         37.0960    9.4460   32.9440 C.3      12 GLL5        0.0000 
     45 CA         35.0530    9.7985   32.7895 C.3       4 GLC5        0.0000 
     46 CA         36.8783    7.7225   35.8700 C.3       4 GLC5        0.0000 
     47 CA         38.3100    8.2890   34.7600 C.3      12 GLL5        0.0000 
     48 CA         38.8072    7.1848   37.4620 C.3       4 GLC5        0.0000 
     49 CA         39.2250    8.3150   35.8560 C.3      12 GLL5        0.0000 
     50 CA         37.8760    6.5190   38.8770 C.3       8 GLP5        0.0000 
     51 CA         42.6665    6.6913   32.6515 C.3       4 GLC5        0.0000 
     52 CA         40.7840    6.5320   33.1640 C.3      12 GLL5        0.0000 
     53 CA         44.5980    7.1250   32.7820 C.3       8 GLP5        0.0000 
     54 CA         41.3715    8.0928   32.0660 C.3       4 GLC5        0.0000 
     55 CA         42.0080    9.9280   31.6110 C.3       8 GLP5        0.0000 
     56 CA         41.8170    5.3655   30.1582 C.3       4 GLC5        0.0000 
     57 CA         40.6860    5.9830   31.8780 C.3      12 GLL5        0.0000 
     58 CA         39.3143    2.6648   34.6677 C.3       4 GLC5        0.0000 
     59 CA         40.3630    3.6900   32.8480 C.3      12 GLL5        0.0000 
     60 CA         38.2160    1.3420   35.8330 C.3       8 GLP5        0.0000 
@<TRIPOS>BOND
@<TRIPOS>SUBSTRUCTURE
     1 ALC1       14 GROUP        1 X    ALC  0     ROOT ALC X 1
     2 SEC2       11 GROUP        1 X    SEC  0     **** SEC X 2
     3 LYC4       25 GROUP        1 X    LYC  0     **** LYC X 4
     4 GLC5        1 GROUP        1 X    GLC  0     **** GLC X 6
     5 ALP1       16 GROUP        1 Y    ALP  0     ROOT ALP Y 8
     6 SEP2       13 GROUP        1 Y    SEP  0     **** SEP Y 9
     7 LYP4       27 GROUP        1 Y    LYP  0     **** LYP Y 11
     8 GLP5        3 GROUP        1 Y    GLP  0     **** GLP Y 13
     9 ALL1       15 GROUP        1 Z    ALL  0     ROOT ALL Z 15
    10 SEL2       12 GROUP        1 Z    SEL  0     **** SEL Z 16
    11 LYL4       26 GROUP        1 Z    LYL  0     **** LYL Z 18
    12 GLL5        2 GROUP        1 Z    GLL  0     **** GLL Z 20
@<TRIPOS>SET

