#    Name: 1q4l_679_1_ligand
#    Modification time : Mon Mar 24 23:04:54 2014

@<TRIPOS>MOLECULE
1q4l_679_1_ligand
   34    36     1     0     0
SMALL
NO_CHARGES


@<TRIPOS>ATOM
      1 C1         37.6640    7.0740   34.3670 C.ar      1 679451      0.0000 
      2 C2         36.7560    7.0460   33.2770 C.ar      1 679451      0.0000 
      3 C3         36.4670    8.2300   32.5630 C.ar      1 679451      0.0000 
      4 C4         37.0960    9.4460   32.9440 C.ar      1 679451      0.0000 
      5 C5         38.0110    9.4790   34.0280 C.ar      1 679451      0.0000 
      6 C6         38.3100    8.2890   34.7600 C.ar      1 679451      0.0000 
      7 CL7        36.7440   10.8860   32.1020 Cl        1 679451      0.0000 
      8 C8         39.2250    8.3150   35.8560 C.2       1 679451      0.0000 
      9 C9         40.2520    7.3860   36.2380 C.2       1 679451      0.0000 
     10 C10        40.7900    7.8610   37.4300 C.2       1 679451      0.0000 
     11 C11        39.2740    9.3230   36.8620 C.2       1 679451      0.0000 
     12 O12        38.5340   10.3170   36.9200 O.2       1 679451      0.0000 
     13 O13        41.6590    7.2730   38.0830 O.2       1 679451      0.0000 
     14 N14        40.2260    9.0380   37.7500 N.am      1 679451      0.0000 
     15 N15        40.7360    6.2130   35.6170 N.pl3     1 679451      0.0000 
     16 C16        40.6680    5.6890   34.3220 C.ar      1 679451      0.0000 
     17 C17        40.7840    6.5320   33.1640 C.ar      1 679451      0.0000 
     18 C18        40.6860    5.9830   31.8780 C.ar      1 679451      0.0000 
     19 C19        40.4780    4.5910   31.7210 C.ar      1 679451      0.0000 
     20 C20        40.3630    3.6900   32.8480 C.ar      1 679451      0.0000 
     21 C21        40.4620    4.2850   34.1570 C.ar      1 679451      0.0000 
     22 CL2        40.3780    4.1460   30.1030 Cl        1 679451      0.0000 
     23 C23        40.1700    2.3380   32.7420 C.2       1 679451      0.0000 
     24 O24        41.1170    1.6090   33.1310 O.co2     1 679451      0.0000 
     25 O25        39.1290    1.8280   32.2410 O.co2     1 679451      0.0000 
     26 H          37.8640    6.2126   34.8848 H         1 679451      0.0000 
     27 H          36.3117    6.1661   33.0102 H         1 679451      0.0000 
     28 H          35.8161    8.2164   31.7838 H         1 679451      0.0000 
     29 H          38.4609   10.3567   34.2900 H         1 679451      0.0000 
     30 H          40.4779    9.5910   38.5123 H         1 679451      0.0000 
     31 H          41.3070    5.5507   36.3323 H         1 679451      0.0000 
     32 H          40.9382    7.5324   33.2948 H         1 679451      0.0000 
     33 H          40.7635    6.5792   31.0531 H         1 679451      0.0000 
     34 H          40.3824    3.6846   34.9820 H         1 679451      0.0000 
@<TRIPOS>BOND
     1    2    1 ar   
     2    6    1 ar   
     3   26    1 1    
     4    3    2 ar   
     5   27    2 1    
     6    4    3 ar   
     7   28    3 1    
     8    5    4 ar   
     9    7    4 1    
    10    6    5 ar   
    11   29    5 1    
    12    8    6 1    
    13    9    8 2    
    14   11    8 1    
    15   10    9 1    
    16   15    9 1    
    17   13   10 2    
    18   14   10 am   
    19   12   11 2    
    20   14   11 am   
    21   30   14 1    
    22   16   15 1    
    23   31   15 1    
    24   17   16 ar   
    25   21   16 ar   
    26   18   17 ar   
    27   32   17 1    
    28   19   18 ar   
    29   33   18 1    
    30   20   19 ar   
    31   22   19 1    
    32   21   20 ar   
    33   23   20 1    
    34   34   21 1    
    35   24   23 ar   
    36   25   23 ar   
@<TRIPOS>SUBSTRUCTURE
     1 679451      1 GROUP   
@<TRIPOS>SET

