#    Name: 2am3_UPG_1_INTS_M
#    Modification time : Mon Mar 24 19:24:01 2014

@<TRIPOS>MOLECULE
2am3_UPG_1_INTS_M
   78     0    15     0     0
SMALL
NO_CHARGES


@<TRIPOS>ATOM
      1 O          -2.9040   21.3070    4.8840 O.2       1 ALC1        0.0000 
      2 O          -1.7280   21.0320    5.6420 O.2      11 ALL1        0.0000 
      3 O          -4.0800   21.5820    4.1260 O.2       6 ALP1        0.0000 
      4 CA          0.6220   20.5850    4.3710 C.3       5 GLC5        0.0000 
      5 CA          0.5960   21.3610    6.0970 C.3      15 GLL5        0.0000 
      6 CA          0.6480   19.8090    2.6450 C.3      10 GLP5        0.0000 
      7 CA         -0.2275   21.0255    4.0375 C.3       5 GLC5        0.0000 
      8 CA         -1.0510   20.6900    1.9780 C.3      10 GLP5        0.0000 
      9 CA          0.3675   19.1955    5.0430 C.3       5 GLC5        0.0000 
     10 CA          0.5820   20.2320    6.8110 C.3      15 GLL5        0.0000 
     11 CA          0.1530   18.1590    3.2750 C.3      10 GLP5        0.0000 
     12 N          -3.9615   18.5925    6.2035 N.am      2 SEC2        0.0000 
     13 N          -2.8250   19.2220    6.4830 N.am     12 SEL2        0.0000 
     14 N          -5.0980   17.9630    5.9240 N.am      7 SEP2        0.0000 
     15 CA         -0.6670   20.0760    8.7455 C.3       5 GLC5        0.0000 
     16 CA         -0.5300   18.2090    7.7780 C.3      15 GLL5        0.0000 
     17 CA         -0.8040   21.9430    9.7130 C.3      10 GLP5        0.0000 
     18 CA          0.3535   17.6775    5.3685 C.3       5 GLC5        0.0000 
     19 CA          0.5540   17.1960    7.4620 C.3      15 GLL5        0.0000 
     20 CA          0.6105   14.8520   10.0440 C.3       5 GLC5        0.0000 
     21 CA          0.6600   16.3870    8.7730 C.3      15 GLL5        0.0000 
     22 CA          0.5610   13.3170   11.3150 C.3      10 GLP5        0.0000 
     23 CA         -0.0665   15.8160   10.9695 C.3       5 GLC5        0.0000 
     24 CA          0.2990   17.4440    9.8180 C.3      15 GLL5        0.0000 
     25 CA         -0.4320   14.1880   12.1210 C.3      10 GLP5        0.0000 
     26 O          -0.7790   14.3695    7.9390 O.2       1 ALC1        0.0000 
     27 O          -0.2920   15.3350    8.8320 O.2      11 ALL1        0.0000 
     28 O          -1.2660   13.4040    7.0460 O.2       6 ALP1        0.0000 
     29 CA          0.9425   19.9600   10.5910 C.3       5 GLC5        0.0000 
     30 CA          1.4730   18.0430   10.5730 C.3      15 GLL5        0.0000 
     31 CA          0.4120   21.8770   10.6090 C.3      10 GLP5        0.0000 
     32 NZ          5.0105   17.5855    7.9480 N.4       3 LYC4        0.0000 
     33 NZ          4.6820   19.3110    8.7710 N.4      13 LYL4        0.0000 
     34 NZ          5.3390   15.8600    7.1250 N.4       8 LYP4        0.0000 
     35 N           5.3630   20.3675    8.7130 N.am      2 SEC2        0.0000 
     36 N           4.6820   19.3110    8.7710 N.am     12 SEL2        0.0000 
     37 N           6.0440   21.4240    8.6550 N.am      7 SEP2        0.0000 
     38 NZ          4.2865   16.4780    8.9435 N.4       3 LYC4        0.0000 
     39 NZ          4.3590   17.2860   10.0850 N.4      13 LYL4        0.0000 
     40 Zn          4.8945   16.7375   10.8550 Zn        4 ZIC7        0.0000 
     41 Zn          4.3590   17.2860   10.0850 Zn       14 ZIL7        0.0000 
     42 Zn          5.4300   16.1890   11.6250 Zn        9 ZIP7        0.0000 
     43 N           5.3605   16.8800    8.8985 N.am      2 SEC2        0.0000 
     44 N           4.3590   17.2860   10.0850 N.am     12 SEL2        0.0000 
     45 N           6.3620   16.4740    7.7120 N.am      7 SEP2        0.0000 
     46 N           4.2865   16.4780    8.9435 N.am      2 SEC2        0.0000 
     47 N           4.2140   15.6700    7.8020 N.am      7 SEP2        0.0000 
     48 N           6.7445   20.9620   13.1370 N.am      2 SEC2        0.0000 
     49 N           5.6230   20.2610   13.1360 N.am     12 SEL2        0.0000 
     50 N           7.8660   21.6630   13.1380 N.am      7 SEP2        0.0000 
     51 Zn          5.1525   17.0610   12.2740 Zn        4 ZIC7        0.0000 
     52 Zn          4.8750   17.9330   12.9230 Zn       14 ZIL7        0.0000 
     53 CA         -1.6235   18.4425   15.5025 C.3       5 GLC5        0.0000 
     54 CA          0.2260   19.0750   14.8840 C.3      15 GLL5        0.0000 
     55 CA         -3.4730   17.8100   16.1210 C.3      10 GLP5        0.0000 
     56 CA          0.5490   21.1755   12.5310 C.3       5 GLC5        0.0000 
     57 CA          0.6860   20.4740   14.4530 C.3      15 GLL5        0.0000 
     58 CA          0.5590   23.3245   14.1990 C.3       5 GLC5        0.0000 
     59 CA         -0.4410   21.5010   14.7280 C.3      15 GLL5        0.0000 
     60 CA          1.5590   25.1480   13.6700 C.3      10 GLP5        0.0000 
     61 CA         -1.4485   21.2595   13.0675 C.3       5 GLC5        0.0000 
     62 CA         -2.4560   21.0180   11.4070 C.3      10 GLP5        0.0000 
     63 CA         -2.2275   21.3220   14.7825 C.3       5 GLC5        0.0000 
     64 CA         -4.0140   21.1430   14.8370 C.3      10 GLP5        0.0000 
     65 O           1.1110   16.0935   14.1640 O.2       1 ALC1        0.0000 
     66 O           0.8890   16.7640   15.1810 O.2      11 ALL1        0.0000 
     67 O           1.3330   15.4230   13.1470 O.2       6 ALP1        0.0000 
     68 N          -2.1360   19.3360   14.4240 N.am      2 SEC2        0.0000 
     69 N          -0.9230   18.7400   14.0670 N.am     12 SEL2        0.0000 
     70 N          -3.3490   19.9320   14.7810 N.am      7 SEP2        0.0000 
     71 O          -0.7590   17.5875   13.4815 O.2       1 ALC1        0.0000 
     72 O          -0.9230   18.7400   14.0670 O.2      11 ALL1        0.0000 
     73 O          -0.5950   16.4350   12.8960 O.2       6 ALP1        0.0000 
     74 CA         -0.1075   21.3697    8.0835 C.3       5 GLC5        0.0000 
     75 CA          1.8400   21.5472    7.3550 C.3       5 GLC5        0.0000 
     76 CA          3.0910   22.2980    8.2560 C.3      10 GLP5        0.0000 
     77 CA         -1.6126   16.5640    8.3214 C.3       5 GLC5        0.0000 
     78 CA         -3.4710   15.8190    8.1850 C.3      10 GLP5        0.0000 
@<TRIPOS>BOND
@<TRIPOS>SUBSTRUCTURE
     1 ALC1        1 GROUP        1 X    ALC  0     ROOT ALC X 1
     2 SEC2       12 GROUP        1 X    SEC  0     **** SEC X 2
     3 LYC4       32 GROUP        1 X    LYC  0     **** LYC X 4
     4 ZIC7       40 GROUP        1 X    ZIC  0     **** ZIC X 5
     5 GLC5        4 GROUP        1 X    GLC  0     **** GLC X 6
     6 ALP1        3 GROUP        1 Y    ALP  0     ROOT ALP Y 8
     7 SEP2       14 GROUP        1 Y    SEP  0     **** SEP Y 9
     8 LYP4       34 GROUP        1 Y    LYP  0     **** LYP Y 11
     9 ZIP7       42 GROUP        1 Y    ZIP  0     **** ZIP Y 12
    10 GLP5        6 GROUP        1 Y    GLP  0     **** GLP Y 13
    11 ALL1        2 GROUP        1 Z    ALL  0     ROOT ALL Z 15
    12 SEL2       13 GROUP        1 Z    SEL  0     **** SEL Z 16
    13 LYL4       33 GROUP        1 Z    LYL  0     **** LYL Z 18
    14 ZIL7       41 GROUP        1 Z    ZIL  0     **** ZIL Z 19
    15 GLL5        5 GROUP        1 Z    GLL  0     **** GLL Z 20
@<TRIPOS>SET

