#    Name: 2am3_UPG_1_ligand
#    Modification time : Mon Mar 24 19:24:01 2014

@<TRIPOS>MOLECULE
2am3_UPG_1_ligand
   58    60     1     0     0
SMALL
NO_CHARGES


@<TRIPOS>ATOM
      1 N1         -0.5690   19.4550    6.9750 N.am      1 UPG449      0.0000 
      2 C2         -1.7850   19.8490    6.3810 C.2       1 UPG449      0.0000 
      3 N3         -1.7280   21.0320    5.6420 N.am      1 UPG449      0.0000 
      4 C4         -0.5910   21.8510    5.4460 C.2       1 UPG449      0.0000 
      5 C5          0.5960   21.3610    6.0970 C.2       1 UPG449      0.0000 
      6 C6          0.5820   20.2320    6.8110 C.2       1 UPG449      0.0000 
      7 O2         -2.8250   19.2220    6.4830 O.2       1 UPG449      0.0000 
      8 O4         -0.6920   22.8660    4.7710 O.2       1 UPG449      0.0000 
      9 C1C        -0.5300   18.2090    7.7780 C.3       1 UPG449      0.0000 
     10 C2C         0.5540   17.1960    7.4620 C.3       1 UPG449      0.0000 
     11 O2C         0.2500   16.4010    6.3000 O.3       1 UPG449      0.0000 
     12 C3C         0.6600   16.3870    8.7730 C.3       1 UPG449      0.0000 
     13 C4C         0.2990   17.4440    9.8180 C.3       1 UPG449      0.0000 
     14 O4C        -0.3970   18.5260    9.1250 O.3       1 UPG449      0.0000 
     15 O3C        -0.2920   15.3350    8.8320 O.3       1 UPG449      0.0000 
     16 C5C         1.4730   18.0430   10.5730 C.3       1 UPG449      0.0000 
     17 O5C         2.3590   18.6770    9.6350 O.3       1 UPG449      0.0000 
     18 PA          3.9370   18.6720    9.8530 P.3       1 UPG449      0.0000 
     19 O1A         4.6820   19.3110    8.7710 O.co2     1 UPG449      0.0000 
     20 O2A         4.3590   17.2860   10.0850 O.co2     1 UPG449      0.0000 
     21 O3A         4.1790   19.6110   11.1590 O.3       1 UPG449      0.0000 
     22 PB          4.5390   19.3840   12.6940 P.3       1 UPG449      0.0000 
     23 O1B         5.6230   20.2610   13.1360 O.co2     1 UPG449      0.0000 
     24 O2B         4.8750   17.9330   12.9230 O.co2     1 UPG449      0.0000 
     25 O3B         3.2040   19.9160   13.4970 O.3       1 UPG449      0.0000 
     26 C1'         3.0210   19.9470   14.9300 C.3       1 UPG449      0.0000 
     27 C2'         2.6140   18.5510   15.4960 C.3       1 UPG449      0.0000 
     28 C3'         1.3660   18.0600   14.7230 C.3       1 UPG449      0.0000 
     29 C4'         0.2260   19.0750   14.8840 C.3       1 UPG449      0.0000 
     30 C5'         0.6860   20.4740   14.4530 C.3       1 UPG449      0.0000 
     31 C6'        -0.4410   21.5010   14.7280 C.3       1 UPG449      0.0000 
     32 O2'         3.6420   17.5330   15.3160 O.3       1 UPG449      0.0000 
     33 O3'         0.8890   16.7640   15.1810 O.3       1 UPG449      0.0000 
     34 O4'        -0.9230   18.7400   14.0670 O.3       1 UPG449      0.0000 
     35 O5'         1.9060   20.8570   15.1880 O.3       1 UPG449      0.0000 
     36 O6'        -0.0610   22.8430   14.3420 O.3       1 UPG449      0.0000 
     37 H          -2.6336   21.3590    5.1728 H         1 UPG449      0.0000 
     38 H           1.4590   21.9296    5.9821 H         1 UPG449      0.0000 
     39 H           1.4629   19.8900    7.2812 H         1 UPG449      0.0000 
     40 H          -1.5042   17.6787    7.6435 H         1 UPG449      0.0000 
     41 H           1.4819   17.7460    7.3625 H         1 UPG449      0.0000 
     42 H           1.6537   16.1050    8.9164 H         1 UPG449      0.0000 
     43 H          -0.3874   16.9963   10.5338 H         1 UPG449      0.0000 
     44 H           1.9749   17.2391   11.1171 H         1 UPG449      0.0000 
     45 H           1.0817   18.7585   11.3005 H         1 UPG449      0.0000 
     46 H           3.8885   20.2761   15.4385 H         1 UPG449      0.0000 
     47 H           2.3363   18.6594   16.5192 H         1 UPG449      0.0000 
     48 H           1.6167   18.0236   13.6687 H         1 UPG449      0.0000 
     49 H          -0.0496   19.1296   15.9244 H         1 UPG449      0.0000 
     50 H           0.8726   20.4610   13.3940 H         1 UPG449      0.0000 
     51 H          -0.6809   21.4447   15.8016 H         1 UPG449      0.0000 
     52 H          -1.3339   21.1628   14.1786 H         1 UPG449      0.0000 
     53 H           1.0754   16.4398    5.7368 H         1 UPG449      0.0000 
     54 H          -0.6243   15.2340    7.8943 H         1 UPG449      0.0000 
     55 H           4.0268   17.7113   14.4104 H         1 UPG449      0.0000 
     56 H           1.4737   16.0958   14.7209 H         1 UPG449      0.0000 
     57 H          -0.9441   17.7404   14.0477 H         1 UPG449      0.0000 
     58 H          -0.9251   23.3233   14.1914 H         1 UPG449      0.0000 
@<TRIPOS>BOND
     1    2    1 1    
     2    6    1 1    
     3    9    1 1    
     4    3    2 1    
     5    7    2 2    
     6    4    3 1    
     7   37    3 1    
     8    5    4 1    
     9    8    4 2    
    10    6    5 2    
    11   38    5 1    
    12   39    6 1    
    13   10    9 1    
    14   14    9 1    
    15   40    9 1    
    16   11   10 1    
    17   12   10 1    
    18   41   10 1    
    19   53   11 1    
    20   13   12 1    
    21   15   12 1    
    22   42   12 1    
    23   14   13 1    
    24   16   13 1    
    25   43   13 1    
    26   54   15 1    
    27   17   16 1    
    28   44   16 1    
    29   45   16 1    
    30   18   17 1    
    31   19   18 ar   
    32   20   18 ar   
    33   21   18 1    
    34   22   21 1    
    35   23   22 ar   
    36   24   22 ar   
    37   25   22 1    
    38   26   25 1    
    39   27   26 1    
    40   35   26 1    
    41   46   26 1    
    42   28   27 1    
    43   32   27 1    
    44   47   27 1    
    45   29   28 1    
    46   33   28 1    
    47   48   28 1    
    48   30   29 1    
    49   34   29 1    
    50   49   29 1    
    51   31   30 1    
    52   35   30 1    
    53   50   30 1    
    54   36   31 1    
    55   51   31 1    
    56   52   31 1    
    57   55   32 1    
    58   56   33 1    
    59   57   34 1    
    60   58   36 1    
@<TRIPOS>SUBSTRUCTURE
     1 UPG449      1 GROUP   
@<TRIPOS>SET

