#    Name: 3i8u_18B_1_INTS_M
#    Modification time : Tue Mar 25 15:59:58 2014

@<TRIPOS>MOLECULE
3i8u_18B_1_INTS_M
  134     0    12     0     0
SMALL
NO_CHARGES


@<TRIPOS>ATOM
      1 O           0.7120  -19.6655   -0.0775 O.2       1 ALC1        0.0000 
      2 O          -0.8660  -19.2470   -0.1240 O.2       9 ALL1        0.0000 
      3 O           2.2900  -20.0840   -0.0310 O.2       5 ALP1        0.0000 
      4 O           1.8980  -18.6950   -0.0710 O.2       1 ALC1        0.0000 
      5 O           1.5060  -17.3060   -0.1110 O.2       9 ALL1        0.0000 
      6 N           5.0195  -16.8780   -1.7610 N.am      2 SEC2        0.0000 
      7 N           3.6360  -16.8240   -0.8510 N.am     10 SEL2        0.0000 
      8 N           6.4030  -16.9320   -2.6710 N.am      6 SEP2        0.0000 
      9 N           3.9780  -18.0490   -0.5275 N.am      2 SEC2        0.0000 
     10 N           4.3200  -19.2740   -0.2040 N.am      6 SEP2        0.0000 
     11 N           5.3390  -17.6810   -2.9475 N.am      2 SEC2        0.0000 
     12 N           4.2750  -18.4300   -3.2240 N.am     10 SEL2        0.0000 
     13 NZ         -5.2485  -24.6615    1.9225 N.4       3 LYC4        0.0000 
     14 NZ         -5.1630  -23.2780    2.1980 N.4      11 LYL4        0.0000 
     15 NZ         -4.4970  -26.8280    2.3420 N.4       7 LYP4        0.0000 
     16 N          -5.2485  -24.6615    1.9225 N.am      2 SEC2        0.0000 
     17 N          -5.1630  -23.2780    2.1980 N.am     10 SEL2        0.0000 
     18 N          -5.3340  -26.0450    1.6470 N.am      6 SEP2        0.0000 
     19 CA          1.7830  -16.5160    1.7600 C.3       4 GLC5        0.0000 
     20 CA          0.5040  -16.4970    0.3220 C.3      12 GLL5        0.0000 
     21 CA          3.0620  -16.5350    3.1980 C.3       8 GLP5        0.0000 
     22 NZ         -3.9595  -24.8840    3.7100 N.4       3 LYC4        0.0000 
     23 NZ         -4.1380  -23.4580    4.1100 N.4      11 LYL4        0.0000 
     24 N          -3.5395  -23.1785    5.3075 N.am      2 SEC2        0.0000 
     25 N          -4.1380  -23.4580    4.1100 N.am     10 SEL2        0.0000 
     26 N          -2.9410  -22.8990    6.5050 N.am      6 SEP2        0.0000 
     27 N          -3.9595  -24.8840    3.7100 N.am      2 SEC2        0.0000 
     28 N          -3.7810  -26.3100    3.3100 N.am      6 SEP2        0.0000 
     29 NZ         -6.8500  -22.4945   -3.4810 N.4       3 LYC4        0.0000 
     30 NZ         -5.7320  -23.3480   -3.9180 N.4      11 LYL4        0.0000 
     31 NZ         -7.9680  -21.6410   -3.0440 N.4       7 LYP4        0.0000 
     32 N          -6.8500  -22.4945   -3.4810 N.am      2 SEC2        0.0000 
     33 N          -5.7320  -23.3480   -3.9180 N.am     10 SEL2        0.0000 
     34 N          -7.9680  -21.6410   -3.0440 N.am      6 SEP2        0.0000 
     35 CA         -4.2875  -19.9310   -0.1025 C.3       4 GLC5        0.0000 
     36 CA         -3.9280  -20.8590    1.5150 C.3      12 GLL5        0.0000 
     37 CA         -4.6470  -19.0030   -1.7200 C.3       8 GLP5        0.0000 
     38 CA          3.3950  -13.3450   -2.4215 C.3       4 GLC5        0.0000 
     39 CA          3.0660  -13.8850   -0.3500 C.3      12 GLL5        0.0000 
     40 CA          3.7240  -12.8050   -4.4930 C.3       8 GLP5        0.0000 
     41 CA          4.5700  -22.4050   -2.2320 C.3       4 GLC5        0.0000 
     42 CA          5.0000  -23.2200   -4.2160 C.3      12 GLL5        0.0000 
     43 CA          4.1400  -21.5900   -0.2480 C.3       8 GLP5        0.0000 
     44 CA         -2.4970  -25.6595   -1.3955 C.3       4 GLC5        0.0000 
     45 CA         -2.5750  -24.0600   -2.0790 C.3      12 GLL5        0.0000 
     46 CA         -2.4190  -27.2590   -0.7120 C.3       8 GLP5        0.0000 
     47 CA         -1.8430  -21.0775    3.7705 C.3       4 GLC5        0.0000 
     48 CA         -3.4260  -21.6790    2.7030 C.3      12 GLL5        0.0000 
     49 CA         -0.2600  -20.4760    4.8380 C.3       8 GLP5        0.0000 
     50 CA         -2.0890  -23.0830    2.9825 C.3       4 GLC5        0.0000 
     51 CA         -0.7520  -24.4870    3.2620 C.3       8 GLP5        0.0000 
     52 CA          5.7105  -12.9815    1.0360 C.3       4 GLC5        0.0000 
     53 CA          3.8180  -13.9130    0.9640 C.3      12 GLL5        0.0000 
     54 CA          7.6030  -12.0500    1.1080 C.3       8 GLP5        0.0000 
     55 CA          3.8320  -12.9775    2.7895 C.3       4 GLC5        0.0000 
     56 CA          3.8460  -12.0420    4.6150 C.3       8 GLP5        0.0000 
     57 CA          5.2965  -15.2000    0.3820 C.3       4 GLC5        0.0000 
     58 CA          6.7750  -16.4870   -0.2000 C.3       8 GLP5        0.0000 
     59 CA          8.1755  -23.3610   -4.1745 C.3       4 GLC5        0.0000 
     60 CA          6.2870  -23.5450   -4.2420 C.3      12 GLL5        0.0000 
     61 CA         10.0640  -23.1770   -4.1070 C.3       8 GLP5        0.0000 
     62 CA          7.3120  -23.4600   -2.5040 C.3       4 GLC5        0.0000 
     63 CA          8.3370  -23.3750   -0.7660 C.3       8 GLP5        0.0000 
     64 CA          5.6070  -24.4115   -5.7750 C.3       4 GLC5        0.0000 
     65 CA          4.9270  -25.2780   -7.3080 C.3       8 GLP5        0.0000 
     66 CA         -3.5395  -24.3470   -4.8230 C.3       4 GLC5        0.0000 
     67 CA         -3.4970  -23.3040   -3.0600 C.3      12 GLL5        0.0000 
     68 CA         -3.5820  -25.3900   -6.5860 C.3       8 GLP5        0.0000 
     69 CA         -4.5420  -21.7535   -2.5110 C.3       4 GLC5        0.0000 
     70 CA         -5.5870  -20.2030   -1.9620 C.3       8 GLP5        0.0000 
     71 CA         -0.1500  -15.9105    2.4070 C.3       4 GLC5        0.0000 
     72 CA         -0.8080  -16.9200    0.7350 C.3      12 GLL5        0.0000 
     73 CA          0.5080  -14.9010    4.0790 C.3       8 GLP5        0.0000 
     74 CA          1.8405  -23.7720   -1.6155 C.3       4 GLC5        0.0000 
     75 CA          2.1650  -22.6990   -3.3410 C.3      12 GLL5        0.0000 
     76 CA          1.5160  -24.8450    0.1100 C.3       8 GLP5        0.0000 
     77 CA          1.1770  -22.5690   -5.1535 C.3       4 GLC5        0.0000 
     78 CA          0.1890  -22.4390   -6.9660 C.3       8 GLP5        0.0000 
     79 CA         -2.3565  -18.6510    3.8905 C.3       4 GLC5        0.0000 
     80 CA         -3.3780  -17.7370    2.3540 C.3      12 GLL5        0.0000 
     81 CA         -1.3350  -19.5650    5.4270 C.3       8 GLP5        0.0000 
     82 CA         -4.0125  -18.3700    0.3170 C.3       4 GLC5        0.0000 
     83 CA         -3.7295  -15.8525    2.2135 C.3       4 GLC5        0.0000 
     84 CA         -4.0810  -13.9680    2.0730 C.3       8 GLP5        0.0000 
     85 CA          0.0185  -14.1730   -1.2900 C.3       4 GLC5        0.0000 
     86 CA          0.0090  -13.9500    0.7900 C.3      12 GLL5        0.0000 
     87 CA          0.0280  -14.3960   -3.3700 C.3       8 GLP5        0.0000 
     88 CA         -1.2520  -12.9845    1.5580 C.3       4 GLC5        0.0000 
     89 CA         -2.5130  -12.0190    2.3260 C.3       8 GLP5        0.0000 
     90 CA          0.1395  -11.9885   -0.1550 C.3       4 GLC5        0.0000 
     91 CA          0.2700  -10.0270   -1.1000 C.3       8 GLP5        0.0000 
     92 CA          7.9915  -19.5865   -4.8710 C.3       4 GLC5        0.0000 
     93 CA          6.6180  -20.2240   -4.2010 C.3      12 GLL5        0.0000 
     94 CA          9.3650  -18.9490   -5.5410 C.3       8 GLP5        0.0000 
     95 CA          1.0250  -25.5045   -2.2650 C.3       4 GLC5        0.0000 
     96 CA         -0.1080  -24.9270   -3.9210 C.3      12 GLL5        0.0000 
     97 CA          2.1580  -26.0820   -0.6090 C.3       8 GLP5        0.0000 
     98 CA          0.1515  -26.7085   -4.5630 C.3       4 GLC5        0.0000 
     99 CA          0.4110  -28.4900   -5.2050 C.3       8 GLP5        0.0000 
    100 CA         -1.6840  -25.7785   -4.8845 C.3       4 GLC5        0.0000 
    101 CA         -3.2600  -26.6300   -5.8480 C.3       8 GLP5        0.0000 
    102 CA          0.0405  -23.6830   -5.4435 C.3       4 GLC5        0.0000 
    103 CA          1.2645  -25.3855   -5.5750 C.3       4 GLC5        0.0000 
    104 CA          2.6370  -25.8440   -7.2290 C.3       8 GLP5        0.0000 
    105 CA         -1.2540  -26.5355   -2.8530 C.3       4 GLC5        0.0000 
    106 CA         -2.4000  -28.1440   -1.7850 C.3       8 GLP5        0.0000 
    107 CA         -1.0290  -20.0368    2.0183 C.3       4 GLC5        0.0000 
    108 CA         -1.7400  -20.2470    0.0780 C.3      12 GLL5        0.0000 
    109 CA          0.2180  -19.9650    3.4770 C.3       8 GLP5        0.0000 
    110 CA          0.4725  -14.7118    2.3262 C.3       4 GLC5        0.0000 
    111 CA          0.8650  -15.0950    0.3570 C.3      12 GLL5        0.0000 
    112 CA          4.5040  -21.3927   -2.0595 C.3       4 GLC5        0.0000 
    113 CA          5.2030  -20.5480   -3.8320 C.3      12 GLL5        0.0000 
    114 CA          5.3682  -18.9295   -5.3422 C.3       4 GLC5        0.0000 
    115 CA          4.8260  -17.4730   -6.6680 C.3       8 GLP5        0.0000 
    116 CA         -3.3048  -18.7160   -0.3317 C.3       4 GLC5        0.0000 
    117 CA         -1.3410  -18.2760    0.7210 C.3      12 GLL5        0.0000 
    118 CA          4.2123  -23.7252   -5.5680 C.3       4 GLC5        0.0000 
    119 CA          4.5330  -21.8430   -3.9100 C.3      12 GLL5        0.0000 
    120 CA          3.6580  -24.9190   -7.0730 C.3       8 GLP5        0.0000 
    121 CA         -1.4447  -16.4471   -0.9511 C.3       4 GLC5        0.0000 
    122 CA         -2.1430  -15.4020   -2.5270 C.3       8 GLP5        0.0000 
    123 CA          3.4022  -21.8727   -1.8260 C.3       4 GLC5        0.0000 
    124 CA          3.1640  -21.6120   -3.4670 C.3      12 GLL5        0.0000 
    125 CA          0.3897  -23.8807   -0.9677 C.3       4 GLC5        0.0000 
    126 CA         -0.1450  -23.7540   -2.9880 C.3      12 GLL5        0.0000 
    127 CA          1.1666  -14.4415   -1.7456 C.3       4 GLC5        0.0000 
    128 CA          4.8323  -24.8592   -3.2370 C.3       4 GLC5        0.0000 
    129 CA          4.0210  -26.3360   -2.2450 C.3       8 GLP5        0.0000 
    130 CA          3.1467  -15.3667    1.7785 C.3       4 GLC5        0.0000 
    131 CA          2.2240  -15.0830   -0.1420 C.3      12 GLL5        0.0000 
    132 CA         -3.3093  -19.9224   -0.8506 C.3       4 GLC5        0.0000 
    133 CA         -2.8120  -19.9700    1.0410 C.3      12 GLL5        0.0000 
    134 CA         -0.5836  -18.8197    2.1864 C.3       4 GLC5        0.0000 
@<TRIPOS>BOND
@<TRIPOS>SUBSTRUCTURE
     1 ALC1        1 GROUP        1 X    ALC  0     ROOT ALC X 1
     2 SEC2        6 GROUP        1 X    SEC  0     **** SEC X 2
     3 LYC4       13 GROUP        1 X    LYC  0     **** LYC X 4
     4 GLC5       19 GROUP        1 X    GLC  0     **** GLC X 6
     5 ALP1        3 GROUP        1 Y    ALP  0     ROOT ALP Y 8
     6 SEP2        8 GROUP        1 Y    SEP  0     **** SEP Y 9
     7 LYP4       15 GROUP        1 Y    LYP  0     **** LYP Y 11
     8 GLP5       21 GROUP        1 Y    GLP  0     **** GLP Y 13
     9 ALL1        2 GROUP        1 Z    ALL  0     ROOT ALL Z 15
    10 SEL2        7 GROUP        1 Z    SEL  0     **** SEL Z 16
    11 LYL4       14 GROUP        1 Z    LYL  0     **** LYL Z 18
    12 GLL5       20 GROUP        1 Z    GLL  0     **** GLL Z 20
@<TRIPOS>SET

