#    Name: 3i8u_18B_1_ligand
#    Modification time : Tue Mar 25 15:59:58 2014

@<TRIPOS>MOLECULE
3i8u_18B_1_ligand
   75    78     1     0     0
SMALL
NO_CHARGES


@<TRIPOS>ATOM
      1 NA         -0.8660  -19.2470   -0.1240 N.pl3     1 18B2030     0.0000 
      2 NB          1.5060  -17.3060   -0.1110 N.am      1 18B2030     0.0000 
      3 OB          3.6360  -16.8240   -0.8510 O.2       1 18B2030     0.0000 
      4 NC          2.9350  -20.3450   -3.1570 N.am      1 18B2030     0.0000 
      5 OC          4.2750  -18.4300   -3.2240 O.2       1 18B2030     0.0000 
      6 ND          0.4660  -21.8600   -1.8330 N.2       1 18B2030     0.0000 
      7 C1A        -1.7400  -20.2470    0.0780 C.2       1 18B2030     0.0000 
      8 O1A        -5.1630  -23.2780    2.1980 O.co2     1 18B2030     0.0000 
      9 C1B         0.5040  -16.4970    0.3220 C.2       1 18B2030     0.0000 
     10 C1C         4.1640  -19.7290   -3.3960 C.2       1 18B2030     0.0000 
     11 C1D         0.7930  -22.7480   -2.8340 C.2       1 18B2030     0.0000 
     12 O1D        -5.2970  -24.4720   -2.0540 O.co2     1 18B2030     0.0000 
     13 C2A        -2.8120  -19.9700    1.0410 C.2       1 18B2030     0.0000 
     14 O2A        -4.1380  -23.4580    4.1100 O.co2     1 18B2030     0.0000 
     15 C2B         0.8650  -15.0950    0.3570 C.2       1 18B2030     0.0000 
     16 C2C         5.2030  -20.5480   -3.8320 C.2       1 18B2030     0.0000 
     17 C2D        -0.1450  -23.7540   -2.9880 C.2       1 18B2030     0.0000 
     18 O2D        -5.7320  -23.3480   -3.9180 O.co2     1 18B2030     0.0000 
     19 C3A        -2.5840  -18.5820    1.3920 C.2       1 18B2030     0.0000 
     20 C3B         2.2240  -15.0830   -0.1420 C.2       1 18B2030     0.0000 
     21 C3C         4.5330  -21.8430   -3.9100 C.2       1 18B2030     0.0000 
     22 C3D        -1.2030  -23.4060   -2.1800 C.2       1 18B2030     0.0000 
     23 C4A        -1.3410  -18.2760    0.7210 C.2       1 18B2030     0.0000 
     24 C4B         2.4960  -16.4390   -0.3930 C.2       1 18B2030     0.0000 
     25 C4C         3.1640  -21.6120   -3.4670 C.2       1 18B2030     0.0000 
     26 C4D        -0.7990  -22.2530   -1.5070 C.2       1 18B2030     0.0000 
     27 CAA        -3.9280  -20.8590    1.5150 C.3       1 18B2030     0.0000 
     28 CAB         3.0660  -13.8850   -0.3500 C.3       1 18B2030     0.0000 
     29 CAC         5.0000  -23.2200   -4.2160 C.2       1 18B2030     0.0000 
     30 CAD        -2.5750  -24.0600   -2.0790 C.3       1 18B2030     0.0000 
     31 CBA        -3.4260  -21.6790    2.7030 C.3       1 18B2030     0.0000 
     32 CBB         3.8180  -13.9130    0.9640 C.3       1 18B2030     0.0000 
     33 CBC         6.2870  -23.5450   -4.2420 C.2       1 18B2030     0.0000 
     34 CBD        -3.4970  -23.3040   -3.0600 C.3       1 18B2030     0.0000 
     35 CGA        -4.2920  -22.8940    3.0100 C.2       1 18B2030     0.0000 
     36 CGD        -4.9550  -23.7410   -3.0040 C.2       1 18B2030     0.0000 
     37 CHA        -1.6670  -21.5750   -0.5220 C.2       1 18B2030     0.0000 
     38 CHB        -0.8080  -16.9200    0.7350 C.2       1 18B2030     0.0000 
     39 CHD         2.1650  -22.6990   -3.3410 C.2       1 18B2030     0.0000 
     40 CMA        -3.3780  -17.7370    2.3540 C.3       1 18B2030     0.0000 
     41 CMB         0.0090  -13.9500    0.7900 C.3       1 18B2030     0.0000 
     42 CMC         6.6180  -20.2240   -4.2010 C.3       1 18B2030     0.0000 
     43 CMD        -0.1080  -24.9270   -3.9210 C.3       1 18B2030     0.0000 
     44 H          -0.1318  -19.2053   -0.6812 H         1 18B2030     0.0000 
     45 H           1.5008  -18.2335   -0.1903 H         1 18B2030     0.0000 
     46 H           2.1636  -19.9246   -2.8519 H         1 18B2030     0.0000 
     47 H          -4.2288  -21.5319    0.7229 H         1 18B2030     0.0000 
     48 H          -4.7718  -20.2597    1.8304 H         1 18B2030     0.0000 
     49 H           2.4816  -13.0172   -0.4034 H         1 18B2030     0.0000 
     50 H           3.7359  -14.0271   -1.1428 H         1 18B2030     0.0000 
     51 H           4.2397  -23.9066   -4.4076 H         1 18B2030     0.0000 
     52 H          -2.9581  -23.9551   -1.0855 H         1 18B2030     0.0000 
     53 H          -2.5138  -25.0864   -2.3749 H         1 18B2030     0.0000 
     54 H          -3.3865  -21.0313    3.5918 H         1 18B2030     0.0000 
     55 H          -2.3978  -22.0127    2.4967 H         1 18B2030     0.0000 
     56 H          -3.1127  -23.4495   -4.0821 H         1 18B2030     0.0000 
     57 H          -3.4316  -22.2266   -2.8400 H         1 18B2030     0.0000 
     58 H          -2.4749  -22.2612   -0.1412 H         1 18B2030     0.0000 
     59 H          -1.4657  -16.1651    1.0905 H         1 18B2030     0.0000 
     60 H           2.5381  -23.6703   -3.7066 H         1 18B2030     0.0000 
     61 H           4.1940  -14.8192    1.1575 H         1 18B2030     0.0000 
     62 H           4.5846  -13.2709    0.9670 H         1 18B2030     0.0000 
     63 H           3.2287  -13.6696    1.7344 H         1 18B2030     0.0000 
     64 H          -3.3709  -18.1198    3.2778 H         1 18B2030     0.0000 
     65 H          -3.0148  -16.8076    2.4191 H         1 18B2030     0.0000 
     66 H          -4.3355  -17.6587    2.0766 H         1 18B2030     0.0000 
     67 H           0.4942  -13.0781    0.7248 H         1 18B2030     0.0000 
     68 H          -0.8151  -13.8695    0.2292 H         1 18B2030     0.0000 
     69 H          -0.2907  -14.0484    1.7390 H         1 18B2030     0.0000 
     70 H           7.1175  -19.8173   -3.4361 H         1 18B2030     0.0000 
     71 H           7.1246  -21.0392   -4.4815 H         1 18B2030     0.0000 
     72 H           6.6645  -19.5745   -4.9599 H         1 18B2030     0.0000 
     73 H          -0.0617  -24.6393   -4.8776 H         1 18B2030     0.0000 
     74 H           0.6858  -25.5112   -3.7519 H         1 18B2030     0.0000 
     75 H          -0.9206  -25.5022   -3.8269 H         1 18B2030     0.0000 
@<TRIPOS>BOND
     1    7    1 1    
     2   23    1 1    
     3   44    1 1    
     4    9    2 1    
     5   24    2 am   
     6   45    2 1    
     7   24    3 2    
     8   10    4 am   
     9   25    4 1    
    10   46    4 1    
    11   10    5 2    
    12   11    6 2    
    13   26    6 1    
    14   13    7 2    
    15   37    7 1    
    16   35    8 ar   
    17   15    9 1    
    18   38    9 2    
    19   16   10 1    
    20   17   11 1    
    21   39   11 1    
    22   36   12 ar   
    23   19   13 1    
    24   27   13 1    
    25   35   14 ar   
    26   20   15 2    
    27   41   15 1    
    28   21   16 2    
    29   42   16 1    
    30   22   17 2    
    31   43   17 1    
    32   36   18 ar   
    33   23   19 2    
    34   40   19 1    
    35   24   20 1    
    36   28   20 1    
    37   25   21 1    
    38   29   21 1    
    39   26   22 1    
    40   30   22 1    
    41   38   23 1    
    42   39   25 2    
    43   37   26 2    
    44   31   27 1    
    45   47   27 1    
    46   48   27 1    
    47   32   28 1    
    48   49   28 1    
    49   50   28 1    
    50   33   29 2    
    51   51   29 1    
    52   34   30 1    
    53   52   30 1    
    54   53   30 1    
    55   35   31 1    
    56   54   31 1    
    57   55   31 1    
    58   61   32 1    
    59   62   32 1    
    60   63   32 1    
    61   36   34 1    
    62   56   34 1    
    63   57   34 1    
    64   58   37 1    
    65   59   38 1    
    66   60   39 1    
    67   64   40 1    
    68   65   40 1    
    69   66   40 1    
    70   67   41 1    
    71   68   41 1    
    72   69   41 1    
    73   70   42 1    
    74   71   42 1    
    75   72   42 1    
    76   73   43 1    
    77   74   43 1    
    78   75   43 1    
@<TRIPOS>SUBSTRUCTURE
     1 18B2030     1 GROUP   
@<TRIPOS>SET

