#    Name: 1q8w_M77_1_INTS_M
#    Modification time : Mon Mar 24 23:14:51 2014

@<TRIPOS>MOLECULE
1q8w_M77_1_INTS_M
   47     0     9     0     0
SMALL
NO_CHARGES


@<TRIPOS>ATOM
      1 CA         25.7535   24.6960   11.6045 C.3       3 GLC5        0.0000 
      2 CA         27.4130   24.2840   10.6350 C.3       9 GLL5        0.0000 
      3 CA         24.0940   25.1080   12.5740 C.3       6 GLP5        0.0000 
      4 CA         28.2300   23.5600   13.7095 C.3       3 GLC5        0.0000 
      5 CA         28.4790   24.0170   11.7230 C.3       9 GLL5        0.0000 
      6 CA         27.9810   23.1030   15.6960 C.3       6 GLP5        0.0000 
      7 OD1        29.9485   26.1810   11.9555 O.co2     2 ASC3        0.0000 
      8 OD1        29.7220   24.8500   11.4750 O.co2     8 ASL3        0.0000 
      9 OD1        30.1750   27.5120   12.4360 O.co2     5 ASP3        0.0000 
     10 CA         30.7965   26.0795    7.4750 C.3       3 GLC5        0.0000 
     11 CA         30.3290   24.5740    9.0120 C.3       9 GLL5        0.0000 
     12 CA         31.2640   27.5850    5.9380 C.3       6 GLP5        0.0000 
     13 CA         28.6735   23.7290    6.6325 C.3       3 GLC5        0.0000 
     14 CA         29.0210   23.8900    8.5770 C.3       9 GLL5        0.0000 
     15 CA         28.3260   23.5680    4.6880 C.3       6 GLP5        0.0000 
     16 CA         27.0530   23.5310    6.2700 C.3       3 GLC5        0.0000 
     17 CA         25.7800   23.4940    7.8520 C.3       9 GLL5        0.0000 
     18 CA         24.0855   21.6195    6.0435 C.3       3 GLC5        0.0000 
     19 CA         24.6130   22.7330    7.5170 C.3       9 GLL5        0.0000 
     20 CA         23.5580   20.5060    4.5700 C.3       6 GLP5        0.0000 
     21 CA         22.9510   21.5875    6.5665 C.3       3 GLC5        0.0000 
     22 CA         23.3990   23.3610    7.3210 C.3       9 GLL5        0.0000 
     23 CA         22.5030   19.8140    5.8120 C.3       6 GLP5        0.0000 
     24 CA         20.5670   26.4195    6.2480 C.3       3 GLC5        0.0000 
     25 CA         22.1280   25.4500    7.1710 C.3       9 GLL5        0.0000 
     26 CA         19.0060   27.3890    5.3250 C.3       6 GLP5        0.0000 
     27 CA         20.6355   25.6965    8.5210 C.3       3 GLC5        0.0000 
     28 CA         19.1430   25.9430    9.8710 C.3       6 GLP5        0.0000 
     29 N          20.7565   27.3240    7.4690 N.am      1 SEC2        0.0000 
     30 N          21.9990   26.7680    7.2870 N.am      7 SEL2        0.0000 
     31 N          19.5140   27.8800    7.6510 N.am      4 SEP2        0.0000 
     32 CA         21.1870   27.9390    8.3060 C.3       3 GLC5        0.0000 
     33 CA         23.0920   27.5280    7.5800 C.3       9 GLL5        0.0000 
     34 CA         19.2820   28.3500    9.0320 C.3       6 GLP5        0.0000 
     35 CA         25.8575   25.2270    5.9537 C.3       3 GLC5        0.0000 
     36 CA         24.4820   25.5390    7.7340 C.3       9 GLL5        0.0000 
     37 CA         26.6120   25.2440    4.0580 C.3       6 GLP5        0.0000 
     38 CA         24.0542   22.4622    8.9768 C.3       3 GLC5        0.0000 
     39 CA         22.9120   21.8110   10.2690 C.3       6 GLP5        0.0000 
     40 CA         23.1390   22.9387    8.8180 C.3       3 GLC5        0.0000 
     41 CA         23.3330   24.7720    7.4130 C.3       9 GLL5        0.0000 
     42 CA         24.2890   28.1092    5.9685 C.3       3 GLC5        0.0000 
     43 CA         24.3120   26.9510    7.8040 C.3       9 GLL5        0.0000 
     44 CA         24.8760   28.9790    4.2450 C.3       6 GLP5        0.0000 
     45 CA         22.7465   25.0516    5.5925 C.3       3 GLC5        0.0000 
     46 CA         22.7460   25.3450    3.9160 C.3       6 GLP5        0.0000 
     47 CA         23.2452   26.1157    5.7953 C.3       3 GLC5        0.0000 
@<TRIPOS>BOND
@<TRIPOS>SUBSTRUCTURE
     1 SEC2       29 GROUP        1 X    SEC  0     ROOT SEC X 2
     2 ASC3        7 GROUP        1 X    ASC  0     **** ASC X 3
     3 GLC5        1 GROUP        1 X    GLC  0     **** GLC X 6
     4 SEP2       31 GROUP        1 Y    SEP  0     ROOT SEP Y 9
     5 ASP3        9 GROUP        1 Y    ASP  0     **** ASP Y 10
     6 GLP5        3 GROUP        1 Y    GLP  0     **** GLP Y 13
     7 SEL2       30 GROUP        1 Z    SEL  0     ROOT SEL Z 16
     8 ASL3        8 GROUP        1 Z    ASL  0     **** ASL Z 17
     9 GLL5        2 GROUP        1 Z    GLL  0     **** GLL Z 20
@<TRIPOS>SET

