#    Name: 1q8w_M77_1_ligand
#    Modification time : Mon Mar 24 23:14:51 2014

@<TRIPOS>MOLECULE
1q8w_M77_1_ligand
   36    38     1     0     0
SMALL
NO_CHARGES


@<TRIPOS>ATOM
      1 O1         26.9940   26.9540    9.2830 O.2       1 M77960      0.0000 
      2 S1         27.1860   25.7920    8.4080 S.o2      1 M77960      0.0000 
      3 O2         27.9860   26.0500    7.2280 O.2       1 M77960      0.0000 
      4 N4         27.9080   24.6030    9.2490 N.pl3     1 M77960      0.0000 
      5 C22        27.4130   24.2840   10.6350 C.3       1 M77960      0.0000 
      6 C21        28.4790   24.0170   11.7230 C.3       1 M77960      0.0000 
      7 N17        29.7220   24.8500   11.4750 N.4       1 M77960      0.0000 
      8 C16        30.6460   24.1750   10.4640 C.3       1 M77960      0.0000 
      9 C20        30.3290   24.5740    9.0120 C.3       1 M77960      0.0000 
     10 C15        29.0210   23.8900    8.5770 C.3       1 M77960      0.0000 
     11 C5         25.7240   24.8810    7.9650 C.ar      1 M77960      0.0000 
     12 C6         25.7800   23.4940    7.8520 C.ar      1 M77960      0.0000 
     13 C7         24.6130   22.7330    7.5170 C.ar      1 M77960      0.0000 
     14 C8         23.3990   23.3610    7.3210 C.ar      1 M77960      0.0000 
     15 C9         23.3330   24.7720    7.4130 C.ar      1 M77960      0.0000 
     16 C10        24.4820   25.5390    7.7340 C.ar      1 M77960      0.0000 
     17 C11        24.3120   26.9510    7.8040 C.ar      1 M77960      0.0000 
     18 C14        22.1280   25.4500    7.1710 C.ar      1 M77960      0.0000 
     19 N13        21.9990   26.7680    7.2870 N.ar      1 M77960      0.0000 
     20 C12        23.0920   27.5280    7.5800 C.ar      1 M77960      0.0000 
     21 H          26.7412   23.3920   10.5909 H         1 M77960      0.0000 
     22 H          26.7608   25.1171   10.9950 H         1 M77960      0.0000 
     23 H          28.7343   22.9596   11.7077 H         1 M77960      0.0000 
     24 H          28.0554   24.2662   12.6935 H         1 M77960      0.0000 
     25 H          30.5534   23.0875   10.5594 H         1 M77960      0.0000 
     26 H          31.6841   24.4460   10.6859 H         1 M77960      0.0000 
     27 H          31.1325   24.2501    8.3690 H         1 M77960      0.0000 
     28 H          30.2088   25.6446    8.9538 H         1 M77960      0.0000 
     29 H          28.9337   23.9652    7.5053 H         1 M77960      0.0000 
     30 H          29.0552   22.8569    8.8825 H         1 M77960      0.0000 
     31 H          26.6638   22.9923    8.0080 H         1 M77960      0.0000 
     32 H          24.7039   21.7142    7.4273 H         1 M77960      0.0000 
     33 H          22.5542   22.8308    7.1125 H         1 M77960      0.0000 
     34 H          25.1397   27.5292    8.0297 H         1 M77960      0.0000 
     35 H          21.3001   24.8557    6.8839 H         1 M77960      0.0000 
     36 H          22.9989   28.5659    7.6348 H         1 M77960      0.0000 
@<TRIPOS>BOND
     1    2    1 2    
     2    3    2 2    
     3    4    2 1    
     4   11    2 1    
     5    5    4 1    
     6   10    4 1    
     7    6    5 1    
     8   21    5 1    
     9   22    5 1    
    10    7    6 1    
    11   23    6 1    
    12   24    6 1    
    13    8    7 1    
    14    9    8 1    
    15   25    8 1    
    16   26    8 1    
    17   10    9 1    
    18   27    9 1    
    19   28    9 1    
    20   29   10 1    
    21   30   10 1    
    22   12   11 ar   
    23   16   11 ar   
    24   13   12 ar   
    25   31   12 1    
    26   14   13 ar   
    27   32   13 1    
    28   15   14 ar   
    29   33   14 1    
    30   16   15 ar   
    31   18   15 ar   
    32   17   16 ar   
    33   20   17 ar   
    34   34   17 1    
    35   19   18 ar   
    36   35   18 1    
    37   20   19 ar   
    38   36   20 1    
@<TRIPOS>SUBSTRUCTURE
     1 M77960      1 GROUP   
@<TRIPOS>SET

