#    Name: 3q3b_55E_2_INTS_M
#    Modification time : Tue Mar 25 08:51:37 2014

@<TRIPOS>MOLECULE
3q3b_55E_2_INTS_M
   44     0     9     0     0
SMALL
NO_CHARGES


@<TRIPOS>ATOM
      1 N          15.7910  -14.6780   10.7970 N.am      2 SEC2        0.0000 
      2 N          16.9690  -14.5860   10.1290 N.am      8 SEL2        0.0000 
      3 N          14.6130  -14.7700   11.4650 N.am      5 SEP2        0.0000 
      4 CA         23.7830  -21.8915    7.2450 C.3       3 GLC5        0.0000 
      5 CA         23.1490  -20.1060    7.6870 C.3       9 GLL5        0.0000 
      6 CA         24.4170  -23.6770    6.8030 C.3       6 GLP5        0.0000 
      7 CA         21.3915  -21.1285    4.9285 C.3       3 GLC5        0.0000 
      8 CA         21.0540  -19.4590    6.3270 C.3       9 GLL5        0.0000 
      9 CA         21.7290  -22.7980    3.5300 C.3       6 GLP5        0.0000 
     10 N          22.4535  -20.7210    4.4840 N.am      2 SEC2        0.0000 
     11 N          21.3920  -20.2930    5.3200 N.am      8 SEL2        0.0000 
     12 N          23.5150  -21.1490    3.6480 N.am      5 SEP2        0.0000 
     13 O          20.4615  -20.6825    4.5190 O.2       1 ALC1        0.0000 
     14 O          21.3920  -20.2930    5.3200 O.2       7 ALL1        0.0000 
     15 O          19.5310  -21.0720    3.7180 O.2       4 ALP1        0.0000 
     16 CA         19.2500  -18.1290    4.4545 C.3       3 GLC5        0.0000 
     17 CA         19.8680  -18.7160    6.1880 C.3       9 GLL5        0.0000 
     18 CA         18.6320  -17.5420    2.7210 C.3       6 GLP5        0.0000 
     19 CA         19.3080  -17.7840   11.9200 C.3       3 GLC5        0.0000 
     20 CA         20.4540  -16.6060   10.6570 C.3       9 GLL5        0.0000 
     21 CA         18.1620  -18.9620   13.1830 C.3       6 GLP5        0.0000 
     22 CA         19.9307  -19.3100    9.9565 C.3       3 GLC5        0.0000 
     23 CA         21.4330  -18.4400    8.5080 C.3       9 GLL5        0.0000 
     24 CA         19.0290  -20.5550   11.4750 C.3       6 GLP5        0.0000 
     25 CA         21.5452  -17.2015    6.5935 C.3       3 GLC5        0.0000 
     26 CA         22.2580  -16.3380    4.7490 C.3       6 GLP5        0.0000 
     27 CA         20.2923  -15.6845    7.4047 C.3       3 GLC5        0.0000 
     28 CA         20.2320  -17.6900    8.3680 C.3       9 GLL5        0.0000 
     29 CA         20.7390  -13.6040    7.0250 C.3       6 GLP5        0.0000 
     30 CA         21.8567  -17.8642    5.8303 C.3       3 GLC5        0.0000 
     31 CA         22.3360  -20.8558    9.2408 C.3       3 GLC5        0.0000 
     32 CA         22.2750  -22.2180   10.6370 C.3       6 GLP5        0.0000 
     33 CA         19.9159  -20.7011    6.9574 C.3       3 GLC5        0.0000 
     34 CA         21.8570  -19.3220    7.4960 C.3       9 GLL5        0.0000 
     35 CA         19.1700  -22.3490    7.3650 C.3       6 GLP5        0.0000 
     36 CA         17.6773  -18.4125    6.7332 C.3       3 GLC5        0.0000 
     37 CA         15.6910  -18.5470    6.7720 C.3       6 GLP5        0.0000 
     38 CA         20.9607  -17.3080    5.7218 C.3       3 GLC5        0.0000 
     39 CA         19.4590  -17.8400    7.2010 C.3       9 GLL5        0.0000 
     40 CA         19.6687  -17.5418   13.2200 C.3       3 GLC5        0.0000 
     41 CA         20.7330  -15.6090   13.0070 C.3       9 GLL5        0.0000 
     42 CA         22.1232  -18.2882   15.0332 C.3       3 GLC5        0.0000 
     43 CA         21.6180  -16.6340   13.5070 C.3       9 GLL5        0.0000 
     44 CA         22.3030  -20.0230   15.9270 C.3       6 GLP5        0.0000 
@<TRIPOS>BOND
@<TRIPOS>SUBSTRUCTURE
     1 ALC1       13 GROUP        1 X    ALC  0     ROOT ALC X 1
     2 SEC2        1 GROUP        1 X    SEC  0     **** SEC X 2
     3 GLC5        4 GROUP        1 X    GLC  0     **** GLC X 6
     4 ALP1       15 GROUP        1 Y    ALP  0     ROOT ALP Y 8
     5 SEP2        3 GROUP        1 Y    SEP  0     **** SEP Y 9
     6 GLP5        6 GROUP        1 Y    GLP  0     **** GLP Y 13
     7 ALL1       14 GROUP        1 Z    ALL  0     ROOT ALL Z 15
     8 SEL2        2 GROUP        1 Z    SEL  0     **** SEL Z 16
     9 GLL5        5 GROUP        1 Z    GLL  0     **** GLL Z 20
@<TRIPOS>SET

