#    Name: 3q3b_55E_2_ligand
#    Modification time : Tue Mar 25 08:51:37 2014

@<TRIPOS>MOLECULE
3q3b_55E_2_ligand
   35    37     1     0     0
SMALL
NO_CHARGES


@<TRIPOS>ATOM
      1 O3         16.9690  -14.5860   10.1290 O.2       1 55E421      0.0000 
      2 C2         18.0250  -15.1860   10.2990 C.2       1 55E421      0.0000 
      3 N4         18.6050  -16.0940    9.2800 N.2       1 55E421      0.0000 
      4 C5         19.7480  -16.7480    9.4730 C.2       1 55E421      0.0000 
      5 C6         20.2320  -17.6900    8.3680 C.ar      1 55E421      0.0000 
      6 C21        21.4330  -18.4400    8.5080 C.ar      1 55E421      0.0000 
      7 C19        21.8570  -19.3220    7.4960 C.ar      1 55E421      0.0000 
      8 C20        23.1490  -20.1060    7.6870 C.3       1 55E421      0.0000 
      9 C17        21.0540  -19.4590    6.3270 C.ar      1 55E421      0.0000 
     10 O18        21.3920  -20.2930    5.3200 O.3       1 55E421      0.0000 
     11 C16        19.8680  -18.7160    6.1880 C.ar      1 55E421      0.0000 
     12 C15        19.4590  -17.8400    7.2010 C.ar      1 55E421      0.0000 
     13 C7         20.4540  -16.6060   10.6570 C.3       1 55E421      0.0000 
     14 C8         20.0010  -15.7830   11.6700 C.2       1 55E421      0.0000 
     15 N1         18.7050  -15.0360   11.4660 N.2       1 55E421      0.0000 
     16 C9         20.7330  -15.6090   13.0070 C.ar      1 55E421      0.0000 
     17 C14        21.6180  -16.6340   13.5070 C.ar      1 55E421      0.0000 
     18 C13        22.2690  -16.4730   14.7720 C.ar      1 55E421      0.0000 
     19 C12        22.0380  -15.2920   15.5360 C.ar      1 55E421      0.0000 
     20 C11        21.1640  -14.2660   15.0390 C.ar      1 55E421      0.0000 
     21 C10        20.5160  -14.4250   13.7860 C.ar      1 55E421      0.0000 
     22 H          21.9935  -18.3319    9.3612 H         1 55E421      0.0000 
     23 H          19.3010  -18.8183    5.3384 H         1 55E421      0.0000 
     24 H          18.5908  -17.3025    7.0952 H         1 55E421      0.0000 
     25 H          21.5531  -16.3108   10.3995 H         1 55E421      0.0000 
     26 H          20.6528  -17.6674   11.0991 H         1 55E421      0.0000 
     27 H          21.7762  -17.4711   12.9552 H         1 55E421      0.0000 
     28 H          22.8885  -17.1945   15.1190 H         1 55E421      0.0000 
     29 H          22.4920  -15.1705   16.4381 H         1 55E421      0.0000 
     30 H          21.0138  -13.4256   15.5923 H         1 55E421      0.0000 
     31 H          19.8944  -13.7001   13.4342 H         1 55E421      0.0000 
     32 H          23.9368  -19.5011    7.8030 H         1 55E421      0.0000 
     33 H          23.1102  -20.6948    8.4943 H         1 55E421      0.0000 
     34 H          23.3450  -20.6955    6.9034 H         1 55E421      0.0000 
     35 H          20.5379  -20.4655    4.8293 H         1 55E421      0.0000 
@<TRIPOS>BOND
     1    2    1 2    
     2    3    2 1    
     3   15    2 1    
     4    4    3 2    
     5    5    4 1    
     6   13    4 1    
     7    6    5 ar   
     8   12    5 ar   
     9    7    6 ar   
    10   22    6 1    
    11    8    7 1    
    12    9    7 ar   
    13   32    8 1    
    14   33    8 1    
    15   34    8 1    
    16   10    9 1    
    17   11    9 ar   
    18   35   10 1    
    19   12   11 ar   
    20   23   11 1    
    21   24   12 1    
    22   14   13 1    
    23   25   13 1    
    24   26   13 1    
    25   15   14 2    
    26   16   14 1    
    27   17   16 ar   
    28   21   16 ar   
    29   18   17 ar   
    30   27   17 1    
    31   19   18 ar   
    32   28   18 1    
    33   20   19 ar   
    34   29   19 1    
    35   21   20 ar   
    36   30   20 1    
    37   31   21 1    
@<TRIPOS>SUBSTRUCTURE
     1 55E421      1 GROUP   
@<TRIPOS>SET

