#    Name: 1pjk_ANP_1_INTS_M
#    Modification time : Mon Mar 24 21:40:30 2014

@<TRIPOS>MOLECULE
1pjk_ANP_1_INTS_M
   51     0    12     0     0
SMALL
NO_CHARGES


@<TRIPOS>ATOM
      1 N          16.8405  -57.3180  -34.4865 N.am      2 SEC2        0.0000 
      2 N          15.7530  -56.8980  -35.7130 N.am     10 SEL2        0.0000 
      3 N          17.9280  -57.7380  -33.2600 N.am      6 SEP2        0.0000 
      4 N          18.8780  -58.9490  -38.6345 N.am      2 SEC2        0.0000 
      5 N          17.6140  -59.3610  -38.4900 N.am     10 SEL2        0.0000 
      6 N          20.1420  -58.5370  -38.7790 N.am      6 SEP2        0.0000 
      7 N          13.4690  -58.1915  -39.1260 N.am      2 SEC2        0.0000 
      8 N          15.1230  -58.5710  -38.9890 N.am     10 SEL2        0.0000 
      9 N          11.8150  -57.8120  -39.2630 N.am      6 SEP2        0.0000 
     10 NZ         17.1850  -58.8775  -42.6950 N.4       3 LYC4        0.0000 
     11 NZ         16.7590  -57.3510  -42.7640 N.4      11 LYL4        0.0000 
     12 NZ         17.6110  -60.4040  -42.6260 N.4       7 LYP4        0.0000 
     13 N          17.1850  -58.8775  -42.6950 N.am      2 SEC2        0.0000 
     14 N          16.7590  -57.3510  -42.7640 N.am     10 SEL2        0.0000 
     15 N          17.6110  -60.4040  -42.6260 N.am      6 SEP2        0.0000 
     16 CA         14.7610  -54.6250  -43.6050 C.3       4 GLC5        0.0000 
     17 CA         15.5790  -54.2560  -41.8630 C.3      12 GLL5        0.0000 
     18 CA         13.9430  -54.9940  -45.3470 C.3       8 GLP5        0.0000 
     19 CA         14.1595  -51.6015  -44.1625 C.3       4 GLC5        0.0000 
     20 CA         15.5570  -51.8590  -42.8690 C.3      12 GLL5        0.0000 
     21 CA         12.7620  -51.3440  -45.4560 C.3       8 GLP5        0.0000 
     22 CA         14.7500  -53.4265  -44.1080 C.3       4 GLC5        0.0000 
     23 CA         15.2795  -51.0555  -45.2550 C.3       4 GLC5        0.0000 
     24 CA         16.7310  -51.0870  -43.6650 C.3      12 GLL5        0.0000 
     25 CA         13.8280  -51.0240  -46.8450 C.3       8 GLP5        0.0000 
     26 CA         19.3885  -52.7045  -43.3205 C.3       4 GLC5        0.0000 
     27 CA         17.6420  -52.1450  -43.7700 C.3      12 GLL5        0.0000 
     28 CA         21.1350  -53.2640  -42.8710 C.3       8 GLP5        0.0000 
     29 CA         15.8045  -54.4425  -46.2580 C.3       4 GLC5        0.0000 
     30 CA         17.6660  -53.8910  -47.1690 C.3      12 GLL5        0.0000 
     31 CA         19.4965  -53.0570  -48.7755 C.3       4 GLC5        0.0000 
     32 CA         17.6860  -53.7190  -48.6060 C.3      12 GLL5        0.0000 
     33 CA         21.3070  -52.3950  -48.9450 C.3       8 GLP5        0.0000 
     34 CA         17.5160  -55.4780  -49.8230 C.3       4 GLC5        0.0000 
     35 CA         17.3460  -57.2370  -51.0400 C.3       8 GLP5        0.0000 
     36 CA         16.7185  -53.0600  -50.4950 C.3       4 GLC5        0.0000 
     37 CA         15.7510  -52.4010  -52.3840 C.3       8 GLP5        0.0000 
     38 CA         15.7805  -54.8420  -48.4840 C.3       4 GLC5        0.0000 
     39 CA         13.8750  -55.9650  -48.3620 C.3       8 GLP5        0.0000 
     40 O          18.8085  -54.4510  -50.6565 O.2       1 ALC1        0.0000 
     41 O          17.6850  -54.7130  -49.4480 O.2       9 ALL1        0.0000 
     42 O          19.9320  -54.1890  -51.8650 O.2       5 ALP1        0.0000 
     43 CA         19.5035  -51.8685  -48.5770 C.3       4 GLC5        0.0000 
     44 CA         17.7000  -51.3420  -48.2090 C.3      12 GLL5        0.0000 
     45 CA         16.6505  -51.1580  -50.0385 C.3       4 GLC5        0.0000 
     46 CA         15.6010  -50.9740  -51.8680 C.3       8 GLP5        0.0000 
     47 CA         15.7640  -51.1830  -47.5270 C.3       4 GLC5        0.0000 
     48 CA         15.7470  -51.8600  -46.6425 C.3       4 GLC5        0.0000 
     49 CA         17.6660  -52.6960  -46.4400 C.3      12 GLL5        0.0000 
     50 CA         19.6115  -53.3063  -46.7283 C.3       4 GLC5        0.0000 
     51 CA         21.5570  -53.3190  -46.6520 C.3       8 GLP5        0.0000 
@<TRIPOS>BOND
@<TRIPOS>SUBSTRUCTURE
     1 ALC1       40 GROUP        1 X    ALC  0     ROOT ALC X 1
     2 SEC2        1 GROUP        1 X    SEC  0     **** SEC X 2
     3 LYC4       10 GROUP        1 X    LYC  0     **** LYC X 4
     4 GLC5       16 GROUP        1 X    GLC  0     **** GLC X 6
     5 ALP1       42 GROUP        1 Y    ALP  0     ROOT ALP Y 8
     6 SEP2        3 GROUP        1 Y    SEP  0     **** SEP Y 9
     7 LYP4       12 GROUP        1 Y    LYP  0     **** LYP Y 11
     8 GLP5       18 GROUP        1 Y    GLP  0     **** GLP Y 13
     9 ALL1       41 GROUP        1 Z    ALL  0     ROOT ALL Z 15
    10 SEL2        2 GROUP        1 Z    SEL  0     **** SEL Z 16
    11 LYL4       11 GROUP        1 Z    LYL  0     **** LYL Z 18
    12 GLL5       17 GROUP        1 Z    GLL  0     **** GLL Z 20
@<TRIPOS>SET

