#    Name: 1pjk_ANP_1_ligand
#    Modification time : Mon Mar 24 21:40:30 2014

@<TRIPOS>MOLECULE
1pjk_ANP_1_ligand
   43    45     1     0     0
SMALL
NO_CHARGES


@<TRIPOS>ATOM
      1 PG         15.8140  -56.1170  -36.9070 P.3       1 ANP340      0.0000 
      2 O1G        14.6630  -56.0850  -37.6800 O.co2     1 ANP340      0.0000 
      3 O2G        16.3790  -54.7900  -37.0500 O.co2     1 ANP340      0.0000 
      4 O3G        15.7530  -56.8980  -35.7130 O.co2     1 ANP340      0.0000 
      5 PB         16.5050  -58.2490  -38.9010 P.3       1 ANP340      0.0000 
      6 O1B        17.6140  -59.3610  -38.4900 O.co2     1 ANP340      0.0000 
      7 O2B        15.1230  -58.5710  -38.9890 O.co2     1 ANP340      0.0000 
      8 N3B        16.8090  -57.0560  -38.0050 N.4       1 ANP340      0.0000 
      9 PA         16.1590  -56.9170  -41.5600 P.3       1 ANP340      0.0000 
     10 O1A        16.7590  -57.3510  -42.7640 O.co2     1 ANP340      0.0000 
     11 O2A        14.6530  -56.8160  -41.2970 O.co2     1 ANP340      0.0000 
     12 O3A        16.9710  -57.4650  -40.3850 O.3       1 ANP340      0.0000 
     13 O5'        16.5410  -55.2130  -41.3960 O.3       1 ANP340      0.0000 
     14 C5'        15.5790  -54.2560  -41.8630 C.3       1 ANP340      0.0000 
     15 C4'        16.2010  -52.9520  -41.9840 C.3       1 ANP340      0.0000 
     16 O4'        17.6070  -53.2290  -42.6470 O.3       1 ANP340      0.0000 
     17 C3'        15.5570  -51.8590  -42.8690 C.3       1 ANP340      0.0000 
     18 O3'        14.8190  -50.9150  -42.1630 O.3       1 ANP340      0.0000 
     19 C2'        16.7310  -51.0870  -43.6650 C.3       1 ANP340      0.0000 
     20 O2'        17.2390  -50.0550  -42.9130 O.3       1 ANP340      0.0000 
     21 C1'        17.6420  -52.1450  -43.7700 C.3       1 ANP340      0.0000 
     22 N9         17.6450  -53.1020  -45.1250 N.pl3     1 ANP340      0.0000 
     23 C8         17.6350  -54.5110  -45.1220 C.2       1 ANP340      0.0000 
     24 N7         17.6460  -54.9930  -46.3610 N.2       1 ANP340      0.0000 
     25 C5         17.6660  -53.8910  -47.1690 C.ar      1 ANP340      0.0000 
     26 C6         17.6860  -53.7190  -48.6060 C.ar      1 ANP340      0.0000 
     27 N6         17.6850  -54.7130  -49.4480 N.pl3     1 ANP340      0.0000 
     28 N1         17.7000  -52.4260  -49.0520 N.ar      1 ANP340      0.0000 
     29 C2         17.7000  -51.3420  -48.2090 C.ar      1 ANP340      0.0000 
     30 N3         17.6840  -51.4310  -46.9000 N.ar      1 ANP340      0.0000 
     31 C4         17.6660  -52.6960  -46.4400 C.ar      1 ANP340      0.0000 
     32 H          14.7252  -54.1986  -41.1658 H         1 ANP340      0.0000 
     33 H          15.1717  -54.5670  -42.8406 H         1 ANP340      0.0000 
     34 H          16.4445  -52.5232  -41.0197 H         1 ANP340      0.0000 
     35 H          14.9809  -52.3535  -43.6467 H         1 ANP340      0.0000 
     36 H          16.3107  -50.8384  -44.5924 H         1 ANP340      0.0000 
     37 H          18.7254  -51.7999  -43.7488 H         1 ANP340      0.0000 
     38 H          17.6217  -55.0272  -44.2934 H         1 ANP340      0.0000 
     39 H          17.6847  -54.4683  -50.4176 H         1 ANP340      0.0000 
     40 H          17.6847  -55.6292  -49.0472 H         1 ANP340      0.0000 
     41 H          17.7141  -50.3758  -48.6726 H         1 ANP340      0.0000 
     42 H          15.4744  -50.1973  -41.9280 H         1 ANP340      0.0000 
     43 H          17.1930  -49.2535  -43.5092 H         1 ANP340      0.0000 
@<TRIPOS>BOND
     1    2    1 ar   
     2    3    1 ar   
     3    4    1 ar   
     4    8    1 1    
     5    6    5 ar   
     6    7    5 ar   
     7    8    5 1    
     8   12    5 1    
     9   10    9 ar   
    10   11    9 ar   
    11   12    9 1    
    12   13    9 1    
    13   14   13 1    
    14   15   14 1    
    15   32   14 1    
    16   33   14 1    
    17   16   15 1    
    18   17   15 1    
    19   34   15 1    
    20   21   16 1    
    21   18   17 1    
    22   19   17 1    
    23   35   17 1    
    24   42   18 1    
    25   20   19 1    
    26   21   19 1    
    27   36   19 1    
    28   43   20 1    
    29   22   21 1    
    30   37   21 1    
    31   23   22 1    
    32   31   22 1    
    33   24   23 2    
    34   38   23 1    
    35   25   24 1    
    36   26   25 ar   
    37   31   25 ar   
    38   27   26 1    
    39   28   26 ar   
    40   39   27 1    
    41   40   27 1    
    42   29   28 ar   
    43   30   29 ar   
    44   41   29 1    
    45   31   30 ar   
@<TRIPOS>SUBSTRUCTURE
     1 ANP340      1 GROUP   
@<TRIPOS>SET

