#    Name: 1ztf_XYA_1_INTS_M
#    Modification time : Mon Mar 24 17:49:46 2014

@<TRIPOS>MOLECULE
1ztf_XYA_1_INTS_M
   36     0     9     0     0
SMALL
NO_CHARGES


@<TRIPOS>ATOM
      1 CA         35.7920   20.8165    6.1425 C.3       3 GLC5        0.0000 
      2 CA         34.3420   20.6400    7.0670 C.3       9 GLL5        0.0000 
      3 CA         37.2420   20.9930    5.2180 C.3       6 GLP5        0.0000 
      4 CA         34.1585   22.5155   11.6455 C.3       3 GLC5        0.0000 
      5 CA         35.1930   23.1760    9.7630 C.3       9 GLL5        0.0000 
      6 CA         33.1240   21.8550   13.5280 C.3       6 GLP5        0.0000 
      7 CA         35.1290   24.6425   12.5195 C.3       3 GLC5        0.0000 
      8 CA         36.1450   23.7670   10.7620 C.3       9 GLL5        0.0000 
      9 CA         34.1130   25.5180   14.2770 C.3       6 GLP5        0.0000 
     10 CA         36.6240   23.4865   12.7710 C.3       3 GLC5        0.0000 
     11 CA         37.1030   23.2060   14.7800 C.3       6 GLP5        0.0000 
     12 N          38.3445   23.2975   11.7905 N.am      2 SEC2        0.0000 
     13 N          37.3650   23.2490   10.8320 N.am      8 SEL2        0.0000 
     14 N          39.3240   23.3460   12.7490 N.am      5 SEP2        0.0000 
     15 CA         38.9880   23.7875   10.8635 C.3       3 GLC5        0.0000 
     16 CA         37.6990   22.2250   10.0350 C.3       9 GLL5        0.0000 
     17 CA         40.2770   25.3500   11.6920 C.3       6 GLP5        0.0000 
     18 CA         38.4885   22.2610   11.9230 C.3       3 GLC5        0.0000 
     19 CA         39.2780   22.2970   13.8110 C.3       6 GLP5        0.0000 
     20 CA         38.5355   20.4360    9.3085 C.3       3 GLC5        0.0000 
     21 CA         39.3720   18.6470    8.5820 C.3       6 GLP5        0.0000 
     22 CA         36.4320   21.5230    7.0825 C.3       3 GLC5        0.0000 
     23 CA         35.6220   22.0530    8.9470 C.3       9 GLL5        0.0000 
     24 O          36.8390   25.6715   12.0760 O.2       1 ALC1        0.0000 
     25 O          35.8030   24.7750   11.4980 O.2       7 ALL1        0.0000 
     26 O          37.8750   26.5680   12.6540 O.2       4 ALP1        0.0000 
     27 CA         31.5127   20.7355    8.8102 C.3       3 GLC5        0.0000 
     28 CA         31.3920   21.5560    7.3950 C.3       9 GLL5        0.0000 
     29 CA         31.2880   20.3430   10.7350 C.3       6 GLP5        0.0000 
     30 CA         36.5770   24.9123    9.2568 C.3       3 GLC5        0.0000 
     31 CA         37.4850   26.3530    8.2510 C.3       6 GLP5        0.0000 
     32 CA         32.1295   19.8058    8.9087 C.3       3 GLC5        0.0000 
     33 CA         33.6690   19.2600    7.3930 C.3       9 GLL5        0.0000 
     34 CA         33.3014   20.2046    4.9990 C.3       3 GLC5        0.0000 
     35 CA         32.0830   20.7000    6.3760 C.3       9 GLL5        0.0000 
     36 CA         33.5110   20.4400    3.0960 C.3       6 GLP5        0.0000 
@<TRIPOS>BOND
@<TRIPOS>SUBSTRUCTURE
     1 ALC1       24 GROUP        1 X    ALC  0     ROOT ALC X 1
     2 SEC2       12 GROUP        1 X    SEC  0     **** SEC X 2
     3 GLC5        1 GROUP        1 X    GLC  0     **** GLC X 6
     4 ALP1       26 GROUP        1 Y    ALP  0     ROOT ALP Y 8
     5 SEP2       14 GROUP        1 Y    SEP  0     **** SEP Y 9
     6 GLP5        3 GROUP        1 Y    GLP  0     **** GLP Y 13
     7 ALL1       25 GROUP        1 Z    ALL  0     ROOT ALL Z 15
     8 SEL2       13 GROUP        1 Z    SEL  0     **** SEL Z 16
     9 GLL5        2 GROUP        1 Z    GLL  0     **** GLL Z 20
@<TRIPOS>SET

