#    Name: 1ztf_XYA_1_ligand
#    Modification time : Mon Mar 24 17:49:46 2014

@<TRIPOS>MOLECULE
1ztf_XYA_1_ligand
   32    34     1     0     0
SMALL
NO_CHARGES


@<TRIPOS>ATOM
      1 O5'        30.0700   21.0400    7.6700 O.3       1 XYA300      0.0000 
      2 C5'        31.3920   21.5560    7.3950 C.3       1 XYA300      0.0000 
      3 C4'        32.0830   20.7000    6.3760 C.3       1 XYA300      0.0000 
      4 O4'        33.3890   21.1960    6.1540 O.3       1 XYA300      0.0000 
      5 C1'        34.3420   20.6400    7.0670 C.3       1 XYA300      0.0000 
      6 N9         34.5680   21.7110    8.1670 N.pl3     1 XYA300      0.0000 
      7 C8         33.6010   22.5920    8.4590 C.2       1 XYA300      0.0000 
      8 N7         33.9690   23.4660    9.3870 N.2       1 XYA300      0.0000 
      9 C5         35.1930   23.1760    9.7630 C.ar      1 XYA300      0.0000 
     10 C6         36.1450   23.7670   10.7620 C.ar      1 XYA300      0.0000 
     11 N1         37.3650   23.2490   10.8320 N.ar      1 XYA300      0.0000 
     12 C2         37.6990   22.2250   10.0350 C.ar      1 XYA300      0.0000 
     13 N3         36.8770   21.6380    9.1560 N.ar      1 XYA300      0.0000 
     14 C4         35.6220   22.0530    8.9470 C.ar      1 XYA300      0.0000 
     15 N6         35.8030   24.7750   11.4980 N.pl3     1 XYA300      0.0000 
     16 C2'        33.6690   19.2600    7.3930 C.3       1 XYA300      0.0000 
     17 O2'        34.3260   18.0760    6.8350 O.3       1 XYA300      0.0000 
     18 C3'        32.2730   19.2770    6.7720 C.3       1 XYA300      0.0000 
     19 O3'        31.2400   18.8150    7.6520 O.3       1 XYA300      0.0000 
     20 H          32.0018   21.5762    8.3091 H         1 XYA300      0.0000 
     21 H          31.3383   22.5848    7.0120 H         1 XYA300      0.0000 
     22 H          31.5242   20.7274    5.4445 H         1 XYA300      0.0000 
     23 H          35.2535   20.4529    6.5329 H         1 XYA300      0.0000 
     24 H          32.7031   22.5853    8.0214 H         1 XYA300      0.0000 
     25 H          38.7063   21.8451   10.1072 H         1 XYA300      0.0000 
     26 H          36.5086   25.1326   12.1097 H         1 XYA300      0.0000 
     27 H          34.8648   25.1028   11.3868 H         1 XYA300      0.0000 
     28 H          33.5430   19.1801    8.4528 H         1 XYA300      0.0000 
     29 H          32.3290   18.6888    5.8597 H         1 XYA300      0.0000 
     30 H          30.1816   20.0468    7.7028 H         1 XYA300      0.0000 
     31 H          33.7887   17.3010    7.1678 H         1 XYA300      0.0000 
     32 H          31.1205   17.8483    7.4256 H         1 XYA300      0.0000 
@<TRIPOS>BOND
     1    2    1 1    
     2   30    1 1    
     3    3    2 1    
     4   20    2 1    
     5   21    2 1    
     6    4    3 1    
     7   18    3 1    
     8   22    3 1    
     9    5    4 1    
    10    6    5 1    
    11   16    5 1    
    12   23    5 1    
    13    7    6 1    
    14   14    6 1    
    15    8    7 2    
    16   24    7 1    
    17    9    8 1    
    18   10    9 ar   
    19   14    9 ar   
    20   11   10 ar   
    21   15   10 1    
    22   12   11 ar   
    23   13   12 ar   
    24   25   12 1    
    25   14   13 ar   
    26   26   15 1    
    27   27   15 1    
    28   17   16 1    
    29   18   16 1    
    30   28   16 1    
    31   31   17 1    
    32   19   18 1    
    33   29   18 1    
    34   32   19 1    
@<TRIPOS>SUBSTRUCTURE
     1 XYA300      1 GROUP   
@<TRIPOS>SET

