#    Name: 2fv5_541_2_INTS_M
#    Modification time : Tue Mar 25 13:08:34 2014

@<TRIPOS>MOLECULE
2fv5_541_2_INTS_M
   79     0    12     0     0
SMALL
NO_CHARGES


@<TRIPOS>ATOM
      1 CA         54.1250   30.4075   48.2630 C.3       4 GLC5        0.0000 
      2 CA         53.0370   28.8590   47.4450 C.3      12 GLL5        0.0000 
      3 CA         55.2130   31.9560   49.0810 C.3       8 GLP5        0.0000 
      4 CA         50.0200   28.2290   49.6555 C.3       4 GLC5        0.0000 
      5 CA         51.0220   27.5120   48.0160 C.3      12 GLL5        0.0000 
      6 CA         49.0180   28.9460   51.2950 C.3       8 GLP5        0.0000 
      7 CA         45.7360   28.3020   48.6705 C.3       4 GLC5        0.0000 
      8 CA         47.3560   28.2570   47.7290 C.3      12 GLL5        0.0000 
      9 CA         44.1160   28.3470   49.6120 C.3       8 GLP5        0.0000 
     10 CA         47.6130   30.9550   46.6820 C.3       4 GLC5        0.0000 
     11 CA         49.3490   29.6490   47.1410 C.3      12 GLL5        0.0000 
     12 CA         45.8770   32.2610   46.2230 C.3       8 GLP5        0.0000 
     13 CA         51.4425   33.0055   46.3195 C.3       4 GLC5        0.0000 
     14 CA         51.4310   31.1220   46.5080 C.3      12 GLL5        0.0000 
     15 CA         51.4540   34.8890   46.1310 C.3       8 GLP5        0.0000 
     16 CA         52.3695   32.2970   48.1055 C.3       4 GLC5        0.0000 
     17 CA         53.3080   33.4720   49.7030 C.3       8 GLP5        0.0000 
     18 CA         46.7590   31.9755   42.6170 C.3       4 GLC5        0.0000 
     19 CA         48.8140   32.1450   42.4810 C.3      12 GLL5        0.0000 
     20 CA         44.7040   31.8060   42.7530 C.3       8 GLP5        0.0000 
     21 CA         51.6555   28.6040   42.0035 C.3       4 GLC5        0.0000 
     22 CA         50.3220   30.1970   42.4990 C.3      12 GLL5        0.0000 
     23 CA         52.9890   27.0110   41.5080 C.3       8 GLP5        0.0000 
     24 CA         46.3615   30.3285   39.2520 C.3       4 GLC5        0.0000 
     25 CA         47.8410   29.7210   40.3720 C.3      12 GLL5        0.0000 
     26 CA         44.8820   30.9360   38.1320 C.3       8 GLP5        0.0000 
     27 CA         46.1050   30.0160   41.5740 C.3       4 GLC5        0.0000 
     28 CA         44.3690   30.3110   42.7760 C.3       8 GLP5        0.0000 
     29 N          46.1220   32.2465   40.0715 N.am      2 SEC2        0.0000 
     30 N          47.4520   32.5230   39.8210 N.am     10 SEL2        0.0000 
     31 N          44.7920   31.9700   40.3220 N.am      6 SEP2        0.0000 
     32 N          46.4145   33.5490   40.4825 N.am      2 SEC2        0.0000 
     33 N          45.3770   34.5750   41.1440 N.am      6 SEP2        0.0000 
     34 CA         47.5250   33.5080   37.8765 C.3       4 GLC5        0.0000 
     35 CA         49.6120   33.7160   38.3160 C.3      12 GLL5        0.0000 
     36 CA         45.4380   33.3000   37.4370 C.3       8 GLP5        0.0000 
     37 O          48.6540   35.6515   39.6955 O.2       1 ALC1        0.0000 
     38 O          50.0830   35.5090   39.8360 O.2       9 ALL1        0.0000 
     39 O          47.2250   35.7940   39.5550 O.2       5 ALP1        0.0000 
     40 Zn         51.8850   35.7090   40.7025 Zn        3 ZIC7        0.0000 
     41 Zn         50.9050   36.2560   40.6690 Zn       11 ZIL7        0.0000 
     42 Zn         52.8650   35.1620   40.7360 Zn        7 ZIP7        0.0000 
     43 O          50.1870   37.0900   41.3600 O.2       1 ALC1        0.0000 
     44 O          50.9050   36.2560   40.6690 O.2       9 ALL1        0.0000 
     45 O          49.4690   37.9240   42.0510 O.2       5 ALP1        0.0000 
     46 Zn         52.3260   34.6330   39.9870 Zn        3 ZIC7        0.0000 
     47 Zn         51.7870   34.1040   39.2380 Zn       11 ZIL7        0.0000 
     48 CA         53.2672   24.9153   47.6497 C.3       4 GLC5        0.0000 
     49 CA         51.8600   26.4430   48.4470 C.3      12 GLL5        0.0000 
     50 CA         53.9660   23.3170   46.8850 C.3       8 GLP5        0.0000 
     51 CA         55.6080   26.5227   47.8840 C.3       4 GLC5        0.0000 
     52 CA         53.2770   26.5840   48.3820 C.3      12 GLL5        0.0000 
     53 CA         57.6460   25.8620   47.6350 C.3       8 GLP5        0.0000 
     54 CA         54.9755   28.3555   46.3548 C.3       4 GLC5        0.0000 
     55 CA         53.8630   27.7830   47.8840 C.3      12 GLL5        0.0000 
     56 CA         56.5010   28.3900   45.0450 C.3       8 GLP5        0.0000 
     57 CA         53.2229   27.2681   50.1761 C.3       4 GLC5        0.0000 
     58 CA         53.2300   27.3880   52.2030 C.3       8 GLP5        0.0000 
     59 CA         51.0913   27.1491   46.1459 C.3       4 GLC5        0.0000 
     60 CA         50.6540   26.4360   44.4280 C.3       8 GLP5        0.0000 
     61 CA         48.5505   28.6442   49.4928 C.3       4 GLC5        0.0000 
     62 CA         48.8100   28.4280   47.6520 C.3      12 GLL5        0.0000 
     63 CA         48.6580   27.6668   46.0877 C.3       4 GLC5        0.0000 
     64 CA         49.2330   26.9910   44.4850 C.3       8 GLP5        0.0000 
     65 CA         49.4885   30.4838   48.6838 C.3       4 GLC5        0.0000 
     66 CA         48.9130   31.2320   50.2650 C.3       8 GLP5        0.0000 
     67 CA         49.6485   28.3633   45.7938 C.3       4 GLC5        0.0000 
     68 CA         48.5572   33.0433   45.6478 C.3       4 GLC5        0.0000 
     69 CA         50.1570   31.6560   44.5020 C.3      12 GLL5        0.0000 
     70 CA         47.4310   34.0260   47.1390 C.3       8 GLP5        0.0000 
     71 CA         51.2845   32.8377   44.4977 C.3       4 GLC5        0.0000 
     72 CA         52.1310   34.5890   44.8310 C.3       8 GLP5        0.0000 
     73 CA         50.4550   33.6785   43.3625 C.3       4 GLC5        0.0000 
     74 CA         49.2100   32.4650   43.8110 C.3      12 GLL5        0.0000 
     75 CA         51.8980   35.0520   43.5790 C.3       8 GLP5        0.0000 
     76 CA         49.8768   28.6740   43.8240 C.3       4 GLC5        0.0000 
     77 CA         50.7190   30.5170   43.8270 C.3      12 GLL5        0.0000 
     78 CA         49.2725   35.5973   37.1022 C.3       4 GLC5        0.0000 
     79 CA         48.7140   37.4970   36.6240 C.3       8 GLP5        0.0000 
@<TRIPOS>BOND
@<TRIPOS>SUBSTRUCTURE
     1 ALC1       37 GROUP        1 X    ALC  0     ROOT ALC X 1
     2 SEC2       29 GROUP        1 X    SEC  0     **** SEC X 2
     3 ZIC7       40 GROUP        1 X    ZIC  0     **** ZIC X 5
     4 GLC5        1 GROUP        1 X    GLC  0     **** GLC X 6
     5 ALP1       39 GROUP        1 Y    ALP  0     ROOT ALP Y 8
     6 SEP2       31 GROUP        1 Y    SEP  0     **** SEP Y 9
     7 ZIP7       42 GROUP        1 Y    ZIP  0     **** ZIP Y 12
     8 GLP5        3 GROUP        1 Y    GLP  0     **** GLP Y 13
     9 ALL1       38 GROUP        1 Z    ALL  0     ROOT ALL Z 15
    10 SEL2       30 GROUP        1 Z    SEL  0     **** SEL Z 16
    11 ZIL7       41 GROUP        1 Z    ZIL  0     **** ZIL Z 19
    12 GLL5        2 GROUP        1 Z    GLL  0     **** GLL Z 20
@<TRIPOS>SET

