#    Name: 2fv5_541_2_ligand
#    Modification time : Tue Mar 25 13:08:34 2014

@<TRIPOS>MOLECULE
2fv5_541_2_ligand
   59    62     1     0     0
SMALL
NO_CHARGES


@<TRIPOS>ATOM
      1 C20        51.8600   26.4430   48.4470 C.ar      1 5412        0.0000 
      2 C1         53.2770   26.5840   48.3820 C.ar      1 5412        0.0000 
      3 C2         53.8630   27.7830   47.8840 C.ar      1 5412        0.0000 
      4 C3         53.0370   28.8590   47.4450 C.ar      1 5412        0.0000 
      5 C21        51.6160   28.7470   47.4960 C.ar      1 5412        0.0000 
      6 C22        51.0220   27.5120   48.0160 C.ar      1 5412        0.0000 
      7 N1         49.6340   27.4120   48.0600 N.ar      1 5412        0.0000 
      8 C4         47.3560   28.2570   47.7290 C.3       1 5412        0.0000 
      9 C5         48.8100   28.4280   47.6520 C.ar      1 5412        0.0000 
     10 C6         49.3490   29.6490   47.1410 C.ar      1 5412        0.0000 
     11 C7         50.7790   29.8220   47.0640 C.ar      1 5412        0.0000 
     12 C8         51.4310   31.1220   46.5080 C.3       1 5412        0.0000 
     13 C9         50.1570   31.6560   44.5020 C.ar      1 5412        0.0000 
     14 O2         50.4990   31.9980   45.8330 O.3       1 5412        0.0000 
     15 C10        49.2100   32.4650   43.8110 C.ar      1 5412        0.0000 
     16 C11        48.8140   32.1450   42.4810 C.ar      1 5412        0.0000 
     17 C12        49.3770   31.0120   41.8150 C.ar      1 5412        0.0000 
     18 C13        50.3220   30.1970   42.4990 C.ar      1 5412        0.0000 
     19 C14        50.7190   30.5170   43.8270 C.ar      1 5412        0.0000 
     20 C15        50.2330   30.2280   39.5520 C.3       1 5412        0.0000 
     21 C16        48.9930   30.6900   40.3880 C.3       1 5412        0.0000 
     22 C17        47.8410   29.7210   40.3720 C.3       1 5412        0.0000 
     23 C18        48.5270   31.9750   39.6740 C.2       1 5412        0.0000 
     24 O3         47.4520   32.5230   39.8210 O.2       1 5412        0.0000 
     25 C19        50.5360   31.3720   38.5540 C.3       1 5412        0.0000 
     26 C23        49.6120   33.7160   38.3160 C.3       1 5412        0.0000 
     27 C24        50.6110   34.4730   39.1670 C.2       1 5412        0.0000 
     28 N2         50.0830   35.5090   39.8360 N.am      1 5412        0.0000 
     29 O1         50.9050   36.2560   40.6690 O.3       1 5412        0.0000 
     30 O4         51.7870   34.1040   39.2380 O.2       1 5412        0.0000 
     31 C25        50.0500   33.6790   36.8450 C.3       1 5412        0.0000 
     32 N3         49.5090   32.3590   38.8280 N.am      1 5412        0.0000 
     33 H          51.4495   25.5840   48.7991 H         1 5412        0.0000 
     34 H          53.8762   25.8193   48.6950 H         1 5412        0.0000 
     35 H          54.8771   27.8727   47.8411 H         1 5412        0.0000 
     36 H          53.4649   29.7147   47.0921 H         1 5412        0.0000 
     37 H          48.7358   30.3917   46.8334 H         1 5412        0.0000 
     38 H          52.2507   30.8082   45.8318 H         1 5412        0.0000 
     39 H          51.9151   31.6320   47.3643 H         1 5412        0.0000 
     40 H          48.8106   33.2836   44.2745 H         1 5412        0.0000 
     41 H          48.1279   32.7234   42.0007 H         1 5412        0.0000 
     42 H          50.7166   29.3792   42.0344 H         1 5412        0.0000 
     43 H          51.4057   29.9397   44.3092 H         1 5412        0.0000 
     44 H          49.9812   29.3430   39.0180 H         1 5412        0.0000 
     45 H          51.0613   30.0931   40.2057 H         1 5412        0.0000 
     46 H          50.4597   30.9772   37.5640 H         1 5412        0.0000 
     47 H          51.5159   31.7434   38.7629 H         1 5412        0.0000 
     48 H          48.6587   34.2114   38.3762 H         1 5412        0.0000 
     49 H          49.0899   35.7629   39.7481 H         1 5412        0.0000 
     50 H          47.0436   27.4822   47.1795 H         1 5412        0.0000 
     51 H          47.0505   28.0932   48.6670 H         1 5412        0.0000 
     52 H          46.8690   29.0657   47.3991 H         1 5412        0.0000 
     53 H          47.5628   29.4902   39.4396 H         1 5412        0.0000 
     54 H          48.0714   28.8625   40.8301 H         1 5412        0.0000 
     55 H          47.0362   30.0932   40.8344 H         1 5412        0.0000 
     56 H          50.9372   33.2316   36.7328 H         1 5412        0.0000 
     57 H          49.3964   33.1808   36.2753 H         1 5412        0.0000 
     58 H          50.1342   34.5978   36.4594 H         1 5412        0.0000 
     59 H          50.4319   37.1296   40.7837 H         1 5412        0.0000 
@<TRIPOS>BOND
     1    2    1 ar   
     2    6    1 ar   
     3   33    1 1    
     4    3    2 ar   
     5   34    2 1    
     6    4    3 ar   
     7   35    3 1    
     8    5    4 ar   
     9   36    4 1    
    10    6    5 ar   
    11   11    5 ar   
    12    7    6 ar   
    13    9    7 ar   
    14    9    8 1    
    15   50    8 1    
    16   51    8 1    
    17   52    8 1    
    18   10    9 ar   
    19   11   10 ar   
    20   37   10 1    
    21   12   11 1    
    22   14   12 1    
    23   38   12 1    
    24   39   12 1    
    25   14   13 1    
    26   15   13 ar   
    27   19   13 ar   
    28   16   15 ar   
    29   40   15 1    
    30   17   16 ar   
    31   41   16 1    
    32   18   17 ar   
    33   21   17 1    
    34   19   18 ar   
    35   42   18 1    
    36   43   19 1    
    37   21   20 1    
    38   25   20 1    
    39   44   20 1    
    40   45   20 1    
    41   22   21 1    
    42   23   21 1    
    43   53   22 1    
    44   54   22 1    
    45   55   22 1    
    46   24   23 2    
    47   32   23 am   
    48   32   25 1    
    49   46   25 1    
    50   47   25 1    
    51   27   26 1    
    52   31   26 1    
    53   32   26 1    
    54   48   26 1    
    55   28   27 am   
    56   30   27 2    
    57   29   28 1    
    58   49   28 1    
    59   59   29 1    
    60   56   31 1    
    61   57   31 1    
    62   58   31 1    
@<TRIPOS>SUBSTRUCTURE
     1 5412        1 GROUP   
@<TRIPOS>SET

