#    Name: 3abi_NAD_1_INTS_M
#    Modification time : Tue Mar 25 11:41:01 2014

@<TRIPOS>MOLECULE
3abi_NAD_1_INTS_M
  108     0     9     0     0
SMALL
NO_CHARGES


@<TRIPOS>ATOM
      1 CA          1.9425   12.3375  126.6885 C.3       3 GLC5        0.0000 
      2 CA          1.7080   13.4880  128.1200 C.3       9 GLL5        0.0000 
      3 CA          2.1770   11.1870  125.2570 C.3       6 GLP5        0.0000 
      4 CA          3.0460   11.5755  130.8250 C.3       3 GLC5        0.0000 
      5 CA          2.7720   13.0770  129.3380 C.3       9 GLL5        0.0000 
      6 CA          3.3200   10.0740  132.3120 C.3       6 GLP5        0.0000 
      7 CA          2.3955   11.6365  127.8155 C.3       3 GLC5        0.0000 
      8 CA          2.0190   10.1960  126.2930 C.3       6 GLP5        0.0000 
      9 N           5.2875   15.7800  130.7955 N.am      2 SEC2        0.0000 
     10 N           4.7760   14.4330  130.3490 N.am      8 SEL2        0.0000 
     11 N           5.7990   17.1270  131.2420 N.am      5 SEP2        0.0000 
     12 O           5.3875   13.5410  131.0955 O.2       1 ALC1        0.0000 
     13 O           4.7760   14.4330  130.3490 O.2       7 ALL1        0.0000 
     14 O           5.9990   12.6490  131.8420 O.2       4 ALP1        0.0000 
     15 O           7.1810   13.0200  129.7285 O.2       1 ALC1        0.0000 
     16 O           6.4720   13.5500  128.5880 O.2       7 ALL1        0.0000 
     17 O           7.8900   12.4900  130.8690 O.2       4 ALP1        0.0000 
     18 O           6.2355   13.0995  130.2150 O.2       1 ALC1        0.0000 
     19 CA          4.0815   11.0370  130.6550 C.3       3 GLC5        0.0000 
     20 CA          4.8430   12.0000  128.9980 C.3       9 GLL5        0.0000 
     21 CA          4.2565    9.8395  128.9380 C.3       3 GLC5        0.0000 
     22 CA          3.6700    7.6790  128.8780 C.3       6 GLP5        0.0000 
     23 CA          3.4310   11.0980  127.6455 C.3       3 GLC5        0.0000 
     24 CA          8.5605   10.6430  127.2570 C.3       3 GLC5        0.0000 
     25 CA          6.7130    9.5670  126.7790 C.3       9 GLL5        0.0000 
     26 CA         10.4080   11.7190  127.7350 C.3       6 GLP5        0.0000 
     27 CA          9.1105    9.5285  127.7030 C.3       3 GLC5        0.0000 
     28 CA          7.6140    8.5280  126.8050 C.3       9 GLL5        0.0000 
     29 CA         10.6070   10.5290  128.6010 C.3       6 GLP5        0.0000 
     30 O           9.1435    6.7320  125.7740 O.2       1 ALC1        0.0000 
     31 O           8.1400    7.8530  125.6950 O.2       7 ALL1        0.0000 
     32 O          10.1470    5.6110  125.8530 O.2       4 ALP1        0.0000 
     33 N           8.2480    6.4180  128.0655 N.am      2 SEC2        0.0000 
     34 N           8.0810    7.9850  127.9950 N.am      8 SEL2        0.0000 
     35 N           8.4150    4.8510  128.1360 N.am      5 SEP2        0.0000 
     36 CA          7.9400    9.3030  130.9410 C.3       3 GLC5        0.0000 
     37 CA          7.7270    8.4840  129.3160 C.3       9 GLL5        0.0000 
     38 CA          8.1530   10.1220  132.5660 C.3       6 GLP5        0.0000 
     39 CA          9.1670    9.5065  128.9585 C.3       3 GLC5        0.0000 
     40 CA          9.1815    7.0545  128.9320 C.3       3 GLC5        0.0000 
     41 CA         10.6360    5.6250  128.5480 C.3       6 GLP5        0.0000 
     42 CA          6.8920    6.5010  128.7245 C.3       3 GLC5        0.0000 
     43 CA          6.0570    4.5180  128.1330 C.3       6 GLP5        0.0000 
     44 CA          5.6985    8.0815  129.0970 C.3       3 GLC5        0.0000 
     45 N           8.1835   10.1960  129.9490 N.am      2 SEC2        0.0000 
     46 N           6.8800    9.6580  129.1980 N.am      8 SEL2        0.0000 
     47 N           9.4870   10.7340  130.7000 N.am      5 SEP2        0.0000 
     48 CA          8.4955   10.3410  128.3040 C.3       3 GLC5        0.0000 
     49 CA          6.3840   10.1530  128.0070 C.3       9 GLL5        0.0000 
     50 N          -3.1410   16.4330  127.3690 N.am      2 SEC2        0.0000 
     51 N          -2.8710   15.7490  128.7380 N.am      8 SEL2        0.0000 
     52 N          -3.4110   17.1170  126.0000 N.am      5 SEP2        0.0000 
     53 N          -2.0865   15.0045  132.1060 N.am      2 SEC2        0.0000 
     54 N          -1.7000   14.5460  130.7570 N.am      8 SEL2        0.0000 
     55 N          -2.4730   15.4630  133.4550 N.am      5 SEP2        0.0000 
     56 CA         -0.8395   10.4230  128.5930 C.3       3 GLC5        0.0000 
     57 CA         -2.3450   12.0370  128.8550 C.3       9 GLL5        0.0000 
     58 CA          0.6660    8.8090  128.3310 C.3       6 GLP5        0.0000 
     59 CA         -4.6770   10.2710  129.5545 C.3       3 GLC5        0.0000 
     60 CA         -3.3030   10.9900  128.2520 C.3       9 GLL5        0.0000 
     61 CA         -6.0510    9.5520  130.8570 C.3       6 GLP5        0.0000 
     62 CA         -1.7095   10.9255  125.9560 C.3       3 GLC5        0.0000 
     63 CA         -3.4220   11.3870  126.8560 C.3       9 GLL5        0.0000 
     64 CA          0.0030   10.4640  125.0560 C.3       6 GLP5        0.0000 
     65 N          -4.7050    9.3395  125.7405 N.am      2 SEC2        0.0000 
     66 N          -3.6600   10.1280  126.1400 N.am      8 SEL2        0.0000 
     67 N          -5.7500    8.5510  125.3410 N.am      5 SEP2        0.0000 
     68 O          -2.4950    9.7285  126.6520 O.2       1 ALC1        0.0000 
     69 O          -3.6600   10.1280  126.1400 O.2       7 ALL1        0.0000 
     70 O          -1.3300    9.3290  127.1640 O.2       4 ALP1        0.0000 
     71 N          -5.4810   10.2295  125.3900 N.am      2 SEC2        0.0000 
     72 N          -5.2120   11.9080  125.4390 N.am      8 SEL2        0.0000 
     73 O          -4.3145   11.9245  124.3030 O.2       1 ALC1        0.0000 
     74 O          -5.2120   11.9080  125.4390 O.2       7 ALL1        0.0000 
     75 O          -3.4170   11.9410  123.1670 O.2       4 ALP1        0.0000 
     76 CA         -5.8275   10.4645  129.3005 C.3       3 GLC5        0.0000 
     77 CA         -5.6040   11.3770  127.7440 C.3       9 GLL5        0.0000 
     78 CA         -6.9800   10.6995  129.4665 C.3       3 GLC5        0.0000 
     79 CA         -7.9090   11.8470  128.0760 C.3       9 GLL5        0.0000 
     80 N         -12.6930   12.6900  129.1540 N.am      2 SEC2        0.0000 
     81 N         -11.1970   13.1010  128.9500 N.am      8 SEL2        0.0000 
     82 N         -14.1890   12.2790  129.3580 N.am      5 SEP2        0.0000 
     83 O         -11.9300   10.0285  128.9605 O.2       1 ALC1        0.0000 
     84 O         -10.7270   10.7790  128.4930 O.2       7 ALL1        0.0000 
     85 O         -13.1330    9.2780  129.4280 O.2       4 ALP1        0.0000 
     86 CA          2.5707   14.4728  130.7758 C.3       3 GLC5        0.0000 
     87 CA          1.7090   15.3420  132.3440 C.3       6 GLP5        0.0000 
     88 CA          5.1092    8.7695  128.1355 C.3       3 GLC5        0.0000 
     89 CA          5.8647    8.3697  125.6560 C.3       3 GLC5        0.0000 
     90 CA          4.5660    7.6920  124.5200 C.3       6 GLP5        0.0000 
     91 CA         -2.0955   10.1777  130.0263 C.3       3 GLC5        0.0000 
     92 CA         -1.3670    8.8420  131.4990 C.3       6 GLP5        0.0000 
     93 CA         -6.0230   10.8567  125.5180 C.3       3 GLC5        0.0000 
     94 CA         -6.8940    9.9640  123.7680 C.3       6 GLP5        0.0000 
     95 CA         -8.5095   12.4492  130.2978 C.3       3 GLC5        0.0000 
     96 CA         -8.5580   12.6700  132.3650 C.3       6 GLP5        0.0000 
     97 CA         -9.1137   15.8510  129.4158 C.3       3 GLC5        0.0000 
     98 CA         -8.8160   13.9350  128.8240 C.3       9 GLL5        0.0000 
     99 CA        -10.0320   17.4700  129.9930 C.3       6 GLP5        0.0000 
    100 CA         -8.3768   13.4510  130.6018 C.3       3 GLC5        0.0000 
    101 CA         -5.8690   14.2718  130.2953 C.3       3 GLC5        0.0000 
    102 CA         -7.5750   14.5290  128.8530 C.3       9 GLL5        0.0000 
    103 CA         -4.7280   14.4240  131.9110 C.3       6 GLP5        0.0000 
    104 CA         -6.4375   15.8517  128.2412 C.3       3 GLC5        0.0000 
    105 CA         -6.4450   13.7100  128.5060 C.3       9 GLL5        0.0000 
    106 CA         -5.8650   17.5840  127.8030 C.3       6 GLP5        0.0000 
    107 CA         -4.4861    9.5795  127.3570 C.3       3 GLC5        0.0000 
    108 CA         -4.7150    7.6900  127.3030 C.3       6 GLP5        0.0000 
@<TRIPOS>BOND
@<TRIPOS>SUBSTRUCTURE
     1 ALC1       12 GROUP        1 X    ALC  0     ROOT ALC X 1
     2 SEC2        9 GROUP        1 X    SEC  0     **** SEC X 2
     3 GLC5        1 GROUP        1 X    GLC  0     **** GLC X 6
     4 ALP1       14 GROUP        1 Y    ALP  0     ROOT ALP Y 8
     5 SEP2       11 GROUP        1 Y    SEP  0     **** SEP Y 9
     6 GLP5        3 GROUP        1 Y    GLP  0     **** GLP Y 13
     7 ALL1       13 GROUP        1 Z    ALL  0     ROOT ALL Z 15
     8 SEL2       10 GROUP        1 Z    SEL  0     **** SEL Z 16
     9 GLL5        2 GROUP        1 Z    GLL  0     **** GLL Z 20
@<TRIPOS>SET

