#    Name: 3abi_NAD_1_ligand
#    Modification time : Tue Mar 25 11:41:01 2014

@<TRIPOS>MOLECULE
3abi_NAD_1_ligand
   69    73     1     0     0
SMALL
NO_CHARGES


@<TRIPOS>ATOM
      1 PA          0.2690   15.3880  128.0090 P.3       1 NAD1001     0.0000 
      2 O1A        -0.1060   16.6100  128.8350 O.co2     1 NAD1001     0.0000 
      3 O2A         0.6200   15.2830  126.4800 O.co2     1 NAD1001     0.0000 
      4 O5B         1.5140   14.7890  128.6900 O.3       1 NAD1001     0.0000 
      5 C5B         1.7080   13.4880  128.1200 C.3       1 NAD1001     0.0000 
      6 C4B         2.7720   13.0770  129.3380 C.3       1 NAD1001     0.0000 
      7 O4B         3.3600   11.8010  128.8320 O.3       1 NAD1001     0.0000 
      8 C3B         4.0930   14.1300  129.0770 C.3       1 NAD1001     0.0000 
      9 O3B         4.7760   14.4330  130.3490 O.3       1 NAD1001     0.0000 
     10 C2B         5.0490   13.3400  128.2420 C.3       1 NAD1001     0.0000 
     11 O2B         6.4720   13.5500  128.5880 O.3       1 NAD1001     0.0000 
     12 C1B         4.8430   12.0000  128.9980 C.3       1 NAD1001     0.0000 
     13 N9A         5.5670   11.2370  127.8600 N.pl3     1 NAD1001     0.0000 
     14 C8A         5.4000   11.3250  126.3440 C.2       1 NAD1001     0.0000 
     15 N7A         6.1040   10.1590  125.7420 N.2       1 NAD1001     0.0000 
     16 C5A         6.7130    9.5670  126.7790 C.ar      1 NAD1001     0.0000 
     17 C6A         7.6140    8.5280  126.8050 C.ar      1 NAD1001     0.0000 
     18 N6A         8.1400    7.8530  125.6950 N.pl3     1 NAD1001     0.0000 
     19 N1A         8.0810    7.9850  127.9950 N.ar      1 NAD1001     0.0000 
     20 C2A         7.7270    8.4840  129.3160 C.ar      1 NAD1001     0.0000 
     21 N3A         6.8800    9.6580  129.1980 N.ar      1 NAD1001     0.0000 
     22 C4A         6.3840   10.1530  128.0070 C.ar      1 NAD1001     0.0000 
     23 O3         -1.0120   14.2810  128.2820 O.3       1 NAD1001     0.0000 
     24 PN         -2.0970   14.6740  129.2790 P.3       1 NAD1001     0.0000 
     25 O1N        -2.8710   15.7490  128.7380 O.co2     1 NAD1001     0.0000 
     26 O2N        -1.7000   14.5460  130.7570 O.co2     1 NAD1001     0.0000 
     27 O5D        -3.0830   13.1600  129.2010 O.3       1 NAD1001     0.0000 
     28 C5D        -2.3450   12.0370  128.8550 C.3       1 NAD1001     0.0000 
     29 C4D        -3.3030   10.9900  128.2520 C.3       1 NAD1001     0.0000 
     30 O4D        -4.6680   11.2890  128.8170 O.3       1 NAD1001     0.0000 
     31 C3D        -3.4220   11.3870  126.8560 C.3       1 NAD1001     0.0000 
     32 O3D        -3.6600   10.1280  126.1400 O.3       1 NAD1001     0.0000 
     33 C2D        -4.7000   12.1220  126.7920 C.3       1 NAD1001     0.0000 
     34 O2D        -5.2120   11.9080  125.4390 O.3       1 NAD1001     0.0000 
     35 C1D        -5.6040   11.3770  127.7440 C.3       1 NAD1001     0.0000 
     36 N1N        -6.6120   12.3680  128.1560 N.pl3     1 NAD1001     0.0000 
     37 C2N        -7.9090   11.8470  128.0760 C.ar      1 NAD1001     0.0000 
     38 C3N        -9.0130   12.6100  128.3850 C.ar      1 NAD1001     0.0000 
     39 C7N       -10.4240   12.0470  128.5430 C.2       1 NAD1001     0.0000 
     40 O7N       -11.1970   13.1010  128.9500 O.2       1 NAD1001     0.0000 
     41 N7N       -10.7270   10.7790  128.4930 N.am      1 NAD1001     0.0000 
     42 C4N        -8.8160   13.9350  128.8240 C.ar      1 NAD1001     0.0000 
     43 C5N        -7.5750   14.5290  128.8530 C.ar      1 NAD1001     0.0000 
     44 C6N        -6.4450   13.7100  128.5060 C.ar      1 NAD1001     0.0000 
     45 H           2.2689   13.4795  127.2721 H         1 NAD1001     0.0000 
     46 H           0.9213   12.8551  128.2386 H         1 NAD1001     0.0000 
     47 H           2.4363   13.1430  130.1806 H         1 NAD1001     0.0000 
     48 H           3.7193   14.9425  128.5787 H         1 NAD1001     0.0000 
     49 H           4.8182   13.2236  127.3108 H         1 NAD1001     0.0000 
     50 H           5.2505   11.9782  129.8174 H         1 NAD1001     0.0000 
     51 H           4.9522   11.9742  125.9127 H         1 NAD1001     0.0000 
     52 H           8.0062    8.1017  130.1247 H         1 NAD1001     0.0000 
     53 H          -1.8552   11.5632  129.7122 H         1 NAD1001     0.0000 
     54 H          -1.5803   12.2412  128.0983 H         1 NAD1001     0.0000 
     55 H          -3.0002   10.0617  128.4017 H         1 NAD1001     0.0000 
     56 H          -2.6407   11.9089  126.5117 H         1 NAD1001     0.0000 
     57 H          -4.6017   13.0978  127.0487 H         1 NAD1001     0.0000 
     58 H          -5.9252   10.5387  127.3786 H         1 NAD1001     0.0000 
     59 H          -8.0313   10.8590  127.7750 H         1 NAD1001     0.0000 
     60 H         -11.6830   10.5476  128.6733 H         1 NAD1001     0.0000 
     61 H          -9.9754   10.1551  128.2790 H         1 NAD1001     0.0000 
     62 H          -9.6545   14.4759  129.1370 H         1 NAD1001     0.0000 
     63 H          -7.4337   15.4910  129.1019 H         1 NAD1001     0.0000 
     64 H          -5.5108   14.1338  128.5211 H         1 NAD1001     0.0000 
     65 H           5.1488   13.5578  130.6573 H         1 NAD1001     0.0000 
     66 H           6.6220   13.0011  129.4103 H         1 NAD1001     0.0000 
     67 H           8.3424    6.9310  126.0250 H         1 NAD1001     0.0000 
     68 H          -2.8792    9.5475  126.3709 H         1 NAD1001     0.0000 
     69 H          -4.4109   11.9802  124.8448 H         1 NAD1001     0.0000 
@<TRIPOS>BOND
     1    2    1 ar   
     2    3    1 ar   
     3    4    1 1    
     4   23    1 1    
     5    5    4 1    
     6    6    5 1    
     7   45    5 1    
     8   46    5 1    
     9    7    6 1    
    10    8    6 1    
    11   47    6 1    
    12   12    7 1    
    13    9    8 1    
    14   10    8 1    
    15   48    8 1    
    16   65    9 1    
    17   11   10 1    
    18   12   10 1    
    19   49   10 1    
    20   66   11 1    
    21   13   12 1    
    22   50   12 1    
    23   14   13 1    
    24   22   13 1    
    25   15   14 2    
    26   51   14 1    
    27   16   15 1    
    28   17   16 ar   
    29   22   16 ar   
    30   18   17 1    
    31   19   17 ar   
    32   67   18 1    
    33   20   19 ar   
    34   21   20 ar   
    35   52   20 1    
    36   22   21 ar   
    37   24   23 1    
    38   25   24 ar   
    39   26   24 ar   
    40   27   24 1    
    41   28   27 1    
    42   29   28 1    
    43   53   28 1    
    44   54   28 1    
    45   30   29 1    
    46   31   29 1    
    47   55   29 1    
    48   35   30 1    
    49   32   31 1    
    50   33   31 1    
    51   56   31 1    
    52   68   32 1    
    53   34   33 1    
    54   35   33 1    
    55   57   33 1    
    56   69   34 1    
    57   36   35 1    
    58   58   35 1    
    59   37   36 ar   
    60   44   36 ar   
    61   38   37 ar   
    62   59   37 1    
    63   39   38 1    
    64   42   38 ar   
    65   40   39 2    
    66   41   39 am   
    67   60   41 1    
    68   61   41 1    
    69   43   42 ar   
    70   62   42 1    
    71   44   43 ar   
    72   63   43 1    
    73   64   44 1    
@<TRIPOS>SUBSTRUCTURE
     1 NAD1001     1 GROUP   
@<TRIPOS>SET

