#    Name: 2hs2_017_1_INTS_M
#    Modification time : Tue Mar 25 16:58:55 2014

@<TRIPOS>MOLECULE
2hs2_017_1_INTS_M
   79     0     9     0     0
SMALL
NO_CHARGES


@<TRIPOS>ATOM
      1 O          -0.1580    7.1055   29.5245 O.2       1 ALC1        0.0000 
      2 O          -1.1340    8.3150   29.9190 O.2       7 ALL1        0.0000 
      3 O           0.8180    5.8960   29.1300 O.2       4 ALP1        0.0000 
      4 CA          3.0360    7.9245   33.2200 C.3       3 GLC5        0.0000 
      5 CA          1.0190    8.3660   32.9120 C.3       9 GLL5        0.0000 
      6 CA          5.0530    7.4830   33.5280 C.3       6 GLP5        0.0000 
      7 CA         -1.0655   10.1545   40.6425 C.3       3 GLC5        0.0000 
      8 CA         -1.3470    8.7190   39.0730 C.3       9 GLL5        0.0000 
      9 CA         -0.7840   11.5900   42.2120 C.3       6 GLP5        0.0000 
     10 CA         -4.0395    5.4960   38.2205 C.3       3 GLC5        0.0000 
     11 CA         -3.1710    7.2880   38.0850 C.3       9 GLL5        0.0000 
     12 CA         -4.9080    3.7040   38.3560 C.3       6 GLP5        0.0000 
     13 CA         -4.6850    7.2785   38.8945 C.3       3 GLC5        0.0000 
     14 CA         -6.1990    7.2690   39.7040 C.3       6 GLP5        0.0000 
     15 CA         -3.5095    6.0595   39.5465 C.3       3 GLC5        0.0000 
     16 CA         -3.8480    4.8310   41.0080 C.3       6 GLP5        0.0000 
     17 CA          0.6485    5.6535   34.5175 C.3       3 GLC5        0.0000 
     18 CA          0.8050    6.6540   36.3730 C.3       9 GLL5        0.0000 
     19 CA          0.4920    4.6530   32.6620 C.3       6 GLP5        0.0000 
     20 N           1.3550    3.7350   38.1450 N.am      2 SEC2        0.0000 
     21 N           1.9230    4.9680   37.6790 N.am      8 SEL2        0.0000 
     22 N           0.7870    2.5020   38.6110 N.am      5 SEP2        0.0000 
     23 O           2.3670    4.6705   36.5935 O.2       1 ALC1        0.0000 
     24 O           1.9230    4.9680   37.6790 O.2       7 ALL1        0.0000 
     25 O           2.8110    4.3730   35.5080 O.2       4 ALP1        0.0000 
     26 O           4.0195    5.7505   39.5315 O.2       1 ALC1        0.0000 
     27 O           3.0860    7.0990   39.3960 O.2       7 ALL1        0.0000 
     28 O           4.9530    4.4020   39.6670 O.2       4 ALP1        0.0000 
     29 CA          2.5260    5.7100   43.2535 C.3       3 GLC5        0.0000 
     30 CA          2.9340    7.4970   43.9950 C.3       9 GLL5        0.0000 
     31 CA          2.1180    3.9230   42.5120 C.3       6 GLP5        0.0000 
     32 CA          3.3370    6.6170   45.9955 C.3       3 GLC5        0.0000 
     33 CA          3.7400    5.7370   47.9960 C.3       6 GLP5        0.0000 
     34 CA          1.3650    7.7760   45.3675 C.3       3 GLC5        0.0000 
     35 CA         -0.2040    8.0550   46.7400 C.3       6 GLP5        0.0000 
     36 CA          2.5160    9.1155   45.2395 C.3       3 GLC5        0.0000 
     37 CA          2.0980   10.7340   46.4840 C.3       6 GLP5        0.0000 
     38 N           4.1635    5.3715   45.2395 N.am      2 SEC2        0.0000 
     39 N           4.0870    6.6850   44.2790 N.am      8 SEL2        0.0000 
     40 N           4.2400    4.0580   46.2000 N.am      5 SEP2        0.0000 
     41 CA          6.2395    5.8515   44.5410 C.3       3 GLC5        0.0000 
     42 CA          5.2350    7.4880   43.9720 C.3       9 GLL5        0.0000 
     43 CA          7.2440    4.2150   45.1100 C.3       6 GLP5        0.0000 
     44 N           5.7060    5.2790   43.4500 N.am      2 SEC2        0.0000 
     45 N           6.1130    6.7090   43.2210 N.am      8 SEL2        0.0000 
     46 N           5.2990    3.8490   43.6790 N.am      5 SEP2        0.0000 
     47 CA          4.8875    5.5060   41.9735 C.3       3 GLC5        0.0000 
     48 CA          6.2500    7.2350   41.9090 C.3       9 GLL5        0.0000 
     49 CA          3.5250    3.7770   42.0380 C.3       6 GLP5        0.0000 
     50 CA          6.7590    5.5285   37.3720 C.3       3 GLC5        0.0000 
     51 CA          6.2560    7.2800   38.1610 C.3       9 GLL5        0.0000 
     52 CA          7.2620    3.7770   36.5830 C.3       6 GLP5        0.0000 
     53 CA          4.9795   11.8210   36.9515 C.3       3 GLC5        0.0000 
     54 CA          6.1250   10.0360   37.6900 C.3       9 GLL5        0.0000 
     55 CA          3.8340   13.6060   36.2130 C.3       6 GLP5        0.0000 
     56 CA          4.5175   10.5830   35.7590 C.3       3 GLC5        0.0000 
     57 CA          5.0670    9.2190   37.2970 C.3       9 GLL5        0.0000 
     58 CA          3.9680   11.9470   34.2210 C.3       6 GLP5        0.0000 
     59 CA          7.0160    7.6820   36.3565 C.3       3 GLC5        0.0000 
     60 CA          5.1290    7.8460   37.5300 C.3       9 GLL5        0.0000 
     61 CA          8.9030    7.5180   35.1830 C.3       6 GLP5        0.0000 
     62 CA          0.4845    6.5032   32.4110 C.3       3 GLC5        0.0000 
     63 CA          1.5875    8.8087   30.5765 C.3       3 GLC5        0.0000 
     64 CA          0.5620    8.1180   31.6170 C.3       9 GLL5        0.0000 
     65 CA          2.6980    9.2640   28.9930 C.3       6 GLP5        0.0000 
     66 CA          1.8644    9.9315   33.0901 C.3       3 GLC5        0.0000 
     67 CA          3.2290   11.2070   33.1470 C.3       6 GLP5        0.0000 
     68 CA          0.0780   10.3867   30.7268 C.3       3 GLC5        0.0000 
     69 CA          0.9470   11.9650   29.7040 C.3       6 GLP5        0.0000 
     70 CA          1.5215    9.1818   43.1517 C.3       3 GLC5        0.0000 
     71 CA          3.3320    8.3160   42.7500 C.3       9 GLL5        0.0000 
     72 CA         -0.0900   10.4570   42.9310 C.3       6 GLP5        0.0000 
     73 CA          7.6625   10.9145   37.1442 C.3       3 GLC5        0.0000 
     74 CA          8.6400   12.0770   36.2860 C.3       6 GLP5        0.0000 
     75 CA          7.9576    8.0493   36.7586 C.3       3 GLC5        0.0000 
     76 CA          7.2450    9.4680   38.3150 C.3       9 GLL5        0.0000 
     77 CA          5.2000   10.9527   38.6744 C.3       3 GLC5        0.0000 
     78 CA          4.5240   12.4200   39.6990 C.3       6 GLP5        0.0000 
     79 CA          4.9303    7.8974   35.4167 C.3       3 GLC5        0.0000 
@<TRIPOS>BOND
@<TRIPOS>SUBSTRUCTURE
     1 ALC1        1 GROUP        1 X    ALC  0     ROOT ALC X 1
     2 SEC2       20 GROUP        1 X    SEC  0     **** SEC X 2
     3 GLC5        4 GROUP        1 X    GLC  0     **** GLC X 6
     4 ALP1        3 GROUP        1 Y    ALP  0     ROOT ALP Y 8
     5 SEP2       22 GROUP        1 Y    SEP  0     **** SEP Y 9
     6 GLP5        6 GROUP        1 Y    GLP  0     **** GLP Y 13
     7 ALL1        2 GROUP        1 Z    ALL  0     ROOT ALL Z 15
     8 SEL2       21 GROUP        1 Z    SEL  0     **** SEL Z 16
     9 GLL5        5 GROUP        1 Z    GLL  0     **** GLL Z 20
@<TRIPOS>SET

