#    Name: 2hs2_017_1_ligand
#    Modification time : Tue Mar 25 16:58:55 2014

@<TRIPOS>MOLECULE
2hs2_017_1_ligand
   75    78     1     0     0
SMALL
NO_CHARGES


@<TRIPOS>ATOM
      1 N1         -1.1340    8.3150   29.9190 N.pl3     1 017201      0.0000 
      2 C2         -0.6920    8.5640   31.1990 C.ar      1 017201      0.0000 
      3 C3          0.5620    8.1180   31.6170 C.ar      1 017201      0.0000 
      4 C4          1.0190    8.3660   32.9120 C.ar      1 017201      0.0000 
      5 C5          0.2090    9.0700   33.8020 C.ar      1 017201      0.0000 
      6 C6         -1.0480    9.5190   33.3890 C.ar      1 017201      0.0000 
      7 C7         -1.5170    9.2760   32.0910 C.ar      1 017201      0.0000 
      8 S8          0.8330    9.2460   35.4870 S.o2      1 017201      0.0000 
      9 O9          2.2730    9.0540   35.3980 O.2       1 017201      0.0000 
     10 O10         0.3180   10.5000   36.0330 O.2       1 017201      0.0000 
     11 N11         0.1790    7.9900   36.4100 N.pl3     1 017201      0.0000 
     12 C12        -1.2770    7.9740   36.6370 C.3       1 017201      0.0000 
     13 C13        -1.6860    7.6240   38.0700 C.3       1 017201      0.0000 
     14 C14        -1.3470    8.7190   39.0730 C.3       1 017201      0.0000 
     15 C15        -3.1710    7.2880   38.0850 C.3       1 017201      0.0000 
     16 C16         0.8050    6.6540   36.3730 C.3       1 017201      0.0000 
     17 C17         1.5520    6.3500   37.6780 C.3       1 017201      0.0000 
     18 O18         1.9230    4.9680   37.6790 O.3       1 017201      0.0000 
     19 C19         2.7400    7.2720   37.9880 C.3       1 017201      0.0000 
     20 N20         3.0860    7.0990   39.3960 N.am      1 017201      0.0000 
     21 C21         2.9650    7.9710   40.4010 C.2       1 017201      0.0000 
     22 O22         2.5800    9.1220   40.2330 O.2       1 017201      0.0000 
     23 O23         3.3200    7.4150   41.6010 O.3       1 017201      0.0000 
     24 C24         3.3320    8.3160   42.7500 C.3       1 017201      0.0000 
     25 C25         2.9340    7.4970   43.9950 C.3       1 017201      0.0000 
     26 O26         4.0870    6.6850   44.2790 O.3       1 017201      0.0000 
     27 C27         5.2350    7.4880   43.9720 C.3       1 017201      0.0000 
     28 O28         6.1130    6.7090   43.2210 O.3       1 017201      0.0000 
     29 C29         6.2500    7.2350   41.9090 C.3       1 017201      0.0000 
     30 C30         5.8000    8.6640   41.9280 C.3       1 017201      0.0000 
     31 C31         4.7770    8.6940   43.1060 C.3       1 017201      0.0000 
     32 C32         3.9670    6.9630   37.0980 C.3       1 017201      0.0000 
     33 C33         6.2560    7.2800   38.1610 C.ar      1 017201      0.0000 
     34 C34         7.3030    8.1060   38.5460 C.ar      1 017201      0.0000 
     35 C35         7.2450    9.4680   38.3150 C.ar      1 017201      0.0000 
     36 C36         6.1250   10.0360   37.6900 C.ar      1 017201      0.0000 
     37 C37         5.0670    9.2190   37.2970 C.ar      1 017201      0.0000 
     38 C38         5.1290    7.8460   37.5300 C.ar      1 017201      0.0000 
     39 H          -1.7680    8.9857   29.5342 H         1 017201      0.0000 
     40 H          -0.7825    7.4851   29.4857 H         1 017201      0.0000 
     41 H           1.1625    7.5954   30.9570 H         1 017201      0.0000 
     42 H           1.9410    8.0337   33.2054 H         1 017201      0.0000 
     43 H          -1.6453   10.0410   34.0528 H         1 017201      0.0000 
     44 H          -2.4298    9.6043   31.7975 H         1 017201      0.0000 
     45 H          -1.7627    7.2456   35.9556 H         1 017201      0.0000 
     46 H          -1.7140    8.9631   36.3890 H         1 017201      0.0000 
     47 H          -1.1428    6.7125   38.3534 H         1 017201      0.0000 
     48 H           1.5205    6.5871   35.5449 H         1 017201      0.0000 
     49 H           0.0457    5.8773   36.2238 H         1 017201      0.0000 
     50 H           0.8024    6.5051   38.5005 H         1 017201      0.0000 
     51 H           2.4335    8.2903   37.8058 H         1 017201      0.0000 
     52 H           3.4942    6.1112   39.6112 H         1 017201      0.0000 
     53 H           2.7490    9.1417   42.6753 H         1 017201      0.0000 
     54 H           2.0740    6.9073   43.7427 H         1 017201      0.0000 
     55 H           2.7164    8.1852   44.7887 H         1 017201      0.0000 
     56 H           5.6816    7.8774   44.8541 H         1 017201      0.0000 
     57 H           5.6361    6.6874   41.1881 H         1 017201      0.0000 
     58 H           7.2886    7.2028   41.5672 H         1 017201      0.0000 
     59 H           5.2927    8.9153   41.0352 H         1 017201      0.0000 
     60 H           6.6015    9.3125   42.1617 H         1 017201      0.0000 
     61 H           4.8492    9.5412   43.6627 H         1 017201      0.0000 
     62 H           3.7126    7.1685   36.0689 H         1 017201      0.0000 
     63 H           4.2321    5.9230   37.2174 H         1 017201      0.0000 
     64 H           6.2917    6.2745   38.3280 H         1 017201      0.0000 
     65 H           8.1320    7.6972   39.0091 H         1 017201      0.0000 
     66 H           8.0255   10.0777   38.6007 H         1 017201      0.0000 
     67 H           6.0892   11.0453   37.5255 H         1 017201      0.0000 
     68 H           4.2452    9.6261   36.8378 H         1 017201      0.0000 
     69 H          -0.3656    8.9093   39.0976 H         1 017201      0.0000 
     70 H          -1.8069    9.5793   38.8532 H         1 017201      0.0000 
     71 H          -1.6205    8.4694   40.0019 H         1 017201      0.0000 
     72 H          -3.3819    6.5105   37.4925 H         1 017201      0.0000 
     73 H          -3.4890    7.0515   39.0031 H         1 017201      0.0000 
     74 H          -3.7288    8.0561   37.7704 H         1 017201      0.0000 
     75 H           2.6745    4.9014   37.0226 H         1 017201      0.0000 
@<TRIPOS>BOND
     1    2    1 1    
     2   39    1 1    
     3   40    1 1    
     4    3    2 ar   
     5    7    2 ar   
     6    4    3 ar   
     7   41    3 1    
     8    5    4 ar   
     9   42    4 1    
    10    6    5 ar   
    11    8    5 1    
    12    7    6 ar   
    13   43    6 1    
    14   44    7 1    
    15    9    8 2    
    16   10    8 2    
    17   11    8 1    
    18   12   11 1    
    19   16   11 1    
    20   13   12 1    
    21   45   12 1    
    22   46   12 1    
    23   14   13 1    
    24   15   13 1    
    25   47   13 1    
    26   69   14 1    
    27   70   14 1    
    28   71   14 1    
    29   72   15 1    
    30   73   15 1    
    31   74   15 1    
    32   17   16 1    
    33   48   16 1    
    34   49   16 1    
    35   18   17 1    
    36   19   17 1    
    37   50   17 1    
    38   75   18 1    
    39   20   19 1    
    40   32   19 1    
    41   51   19 1    
    42   21   20 am   
    43   52   20 1    
    44   22   21 2    
    45   23   21 1    
    46   24   23 1    
    47   25   24 1    
    48   31   24 1    
    49   53   24 1    
    50   26   25 1    
    51   54   25 1    
    52   55   25 1    
    53   27   26 1    
    54   28   27 1    
    55   31   27 1    
    56   56   27 1    
    57   29   28 1    
    58   30   29 1    
    59   57   29 1    
    60   58   29 1    
    61   31   30 1    
    62   59   30 1    
    63   60   30 1    
    64   61   31 1    
    65   38   32 1    
    66   62   32 1    
    67   63   32 1    
    68   34   33 ar   
    69   38   33 ar   
    70   64   33 1    
    71   35   34 ar   
    72   65   34 1    
    73   36   35 ar   
    74   66   35 1    
    75   37   36 ar   
    76   67   36 1    
    77   38   37 ar   
    78   68   37 1    
@<TRIPOS>SUBSTRUCTURE
     1 017201      1 GROUP   
@<TRIPOS>SET

