#    Name: 1eii_RTL_1_INTS_M
#    Modification time : Mon Mar 24 23:58:01 2014

@<TRIPOS>MOLECULE
1eii_RTL_1_INTS_M
   67     0     6     0     0
SMALL
NO_CHARGES


@<TRIPOS>ATOM
      1 CA         46.5050   50.9640   55.7035 C.3       2 GLC5        0.0000 
      2 CA         47.4340   51.0630   57.2570 C.3       6 GLL5        0.0000 
      3 CA         45.5760   50.8650   54.1500 C.3       4 GLP5        0.0000 
      4 CA         46.0475   48.3710   57.6020 C.3       2 GLC5        0.0000 
      5 CA         47.4600   49.8650   58.1990 C.3       6 GLL5        0.0000 
      6 CA         44.6350   46.8770   57.0050 C.3       4 GLP5        0.0000 
      7 CA         48.4685   48.4545   60.7860 C.3       2 GLC5        0.0000 
      8 CA         48.2270   50.0970   59.5090 C.3       6 GLL5        0.0000 
      9 CA         48.7100   46.8120   62.0630 C.3       4 GLP5        0.0000 
     10 CA         46.2230   49.7600   59.9055 C.3       2 GLC5        0.0000 
     11 CA         44.2190   49.4230   60.3020 C.3       4 GLP5        0.0000 
     12 CA         51.8830   52.2925   59.4805 C.3       2 GLC5        0.0000 
     13 CA         50.2780   53.0770   58.3810 C.3       6 GLL5        0.0000 
     14 CA         53.4880   51.5080   60.5800 C.3       4 GLP5        0.0000 
     15 CA         50.3095   58.4450   59.5635 C.3       2 GLC5        0.0000 
     16 CA         51.7400   58.8320   57.9930 C.3       6 GLL5        0.0000 
     17 CA         48.8790   58.0580   61.1340 C.3       4 GLP5        0.0000 
     18 CA         53.7405   61.1070   59.3145 C.3       2 GLC5        0.0000 
     19 CA         52.8040   59.8540   57.8600 C.3       6 GLL5        0.0000 
     20 CA         54.6770   62.3600   60.7690 C.3       4 GLP5        0.0000 
     21 CA         53.6480   62.1020   58.4310 C.3       2 GLC5        0.0000 
     22 CA         52.6190   60.9630   57.1060 C.3       6 GLL5        0.0000 
     23 CA         54.6770   63.2410   59.7560 C.3       4 GLP5        0.0000 
     24 CA         54.6470   62.6575   57.8820 C.3       2 GLC5        0.0000 
     25 CA         53.6760   62.0150   56.9700 C.3       6 GLL5        0.0000 
     26 CA         55.6180   63.3000   58.7940 C.3       4 GLP5        0.0000 
     27 N          53.7495   61.2680   54.7480 N.am      1 SEC2        0.0000 
     28 N          53.6780   62.4780   55.6470 N.am      5 SEL2        0.0000 
     29 N          53.8210   60.0580   53.8490 N.am      3 SEP2        0.0000 
     30 CA         47.7965   54.8020   56.0475 C.3       2 GLC5        0.0000 
     31 CA         47.9800   53.5620   57.0090 C.3       6 GLL5        0.0000 
     32 CA         47.6130   56.0420   55.0860 C.3       4 GLP5        0.0000 
     33 CA         45.5215   51.8740   59.2195 C.3       2 GLC5        0.0000 
     34 CA         46.9500   52.9730   58.8440 C.3       6 GLL5        0.0000 
     35 CA         44.0930   50.7750   59.5950 C.3       4 GLP5        0.0000 
     36 CA         46.8300   53.1700   60.5615 C.3       2 GLC5        0.0000 
     37 CA         46.7100   53.3670   62.2790 C.3       4 GLP5        0.0000 
     38 CA         52.8580   53.8815   60.3460 C.3       2 GLC5        0.0000 
     39 CA         52.4010   55.1930   59.2360 C.3       6 GLL5        0.0000 
     40 CA         53.3150   52.5700   61.4560 C.3       4 GLP5        0.0000 
     41 CA         54.5645   54.9380   59.4290 C.3       2 GLC5        0.0000 
     42 CA         56.7280   54.6830   59.6220 C.3       4 GLP5        0.0000 
     43 CA         54.8765   60.5140   59.7250 C.3       2 GLC5        0.0000 
     44 CA         54.0550   59.5350   58.6470 C.3       6 GLL5        0.0000 
     45 CA         55.6980   61.4930   60.8030 C.3       4 GLP5        0.0000 
     46 CA         45.7700   50.6195   58.6615 C.3       2 GLC5        0.0000 
     47 CA         47.8575   50.7585   61.3063 C.3       2 GLC5        0.0000 
     48 CA         46.9320   50.9750   63.1650 C.3       4 GLP5        0.0000 
     49 CA         51.7103   51.1375   60.1773 C.3       2 GLC5        0.0000 
     50 CA         49.3390   50.9870   59.3860 C.3       6 GLL5        0.0000 
     51 CA         49.8610   55.4657   56.7007 C.3       2 GLC5        0.0000 
     52 CA         50.1030   54.3580   58.7320 C.3       6 GLL5        0.0000 
     53 CA         49.1230   56.0330   54.7740 C.3       4 GLP5        0.0000 
     54 CA         50.2282   56.5382   56.2375 C.3       2 GLC5        0.0000 
     55 CA         50.8160   56.5320   57.7680 C.3       6 GLL5        0.0000 
     56 CA         49.4203   56.5536   59.1894 C.3       2 GLC5        0.0000 
     57 CA         48.1330   57.3920   60.1810 C.3       4 GLP5        0.0000 
     58 CA         51.5953   58.8687   55.7248 C.3       2 GLC5        0.0000 
     59 CA         51.8510   57.5550   57.6340 C.3       6 GLL5        0.0000 
     60 CA         51.3950   59.5440   53.6360 C.3       4 GLP5        0.0000 
     61 CA         51.4895   60.1890   59.6258 C.3       2 GLC5        0.0000 
     62 CA         50.7070   61.0350   61.3250 C.3       4 GLP5        0.0000 
     63 CA         52.0533   59.9763   55.5595 C.3       2 GLC5        0.0000 
     64 CA         51.6058   62.5015   56.6510 C.3       2 GLC5        0.0000 
     65 CA         50.0640   63.5140   56.2640 C.3       4 GLP5        0.0000 
     66 CA         46.8177   54.4720   58.8814 C.3       2 GLC5        0.0000 
     67 CA         46.1720   55.9800   59.6110 C.3       4 GLP5        0.0000 
@<TRIPOS>BOND
@<TRIPOS>SUBSTRUCTURE
     1 SEC2       27 GROUP        1 X    SEC  0     ROOT SEC X 2
     2 GLC5        1 GROUP        1 X    GLC  0     **** GLC X 6
     3 SEP2       29 GROUP        1 Y    SEP  0     ROOT SEP Y 9
     4 GLP5        3 GROUP        1 Y    GLP  0     **** GLP Y 13
     5 SEL2       28 GROUP        1 Z    SEL  0     ROOT SEL Z 16
     6 GLL5        2 GROUP        1 Z    GLL  0     **** GLL Z 20
@<TRIPOS>SET

