#    Name: 1eii_RTL_1_ligand
#    Modification time : Mon Mar 24 23:58:01 2014

@<TRIPOS>MOLECULE
1eii_RTL_1_ligand
   51    51     1     0     0
SMALL
NO_CHARGES


@<TRIPOS>ATOM
      1 C1         47.9740   52.3480   57.9100 C.3       1 RTL135      0.0000 
      2 C2         47.4340   51.0630   57.2570 C.3       1 RTL135      0.0000 
      3 C3         47.4600   49.8650   58.1990 C.3       1 RTL135      0.0000 
      4 C4         48.2270   50.0970   59.5090 C.3       1 RTL135      0.0000 
      5 C5         49.3390   50.9870   59.3860 C.2       1 RTL135      0.0000 
      6 C6         49.2070   52.0770   58.6210 C.2       1 RTL135      0.0000 
      7 C7         50.2780   53.0770   58.3810 C.2       1 RTL135      0.0000 
      8 C8         50.1030   54.3580   58.7320 C.2       1 RTL135      0.0000 
      9 C9         51.0950   55.4390   58.5230 C.2       1 RTL135      0.0000 
     10 C10        50.8160   56.5320   57.7680 C.2       1 RTL135      0.0000 
     11 C11        51.8510   57.5550   57.6340 C.2       1 RTL135      0.0000 
     12 C12        51.7400   58.8320   57.9930 C.2       1 RTL135      0.0000 
     13 C13        52.8040   59.8540   57.8600 C.2       1 RTL135      0.0000 
     14 C14        52.6190   60.9630   57.1060 C.2       1 RTL135      0.0000 
     15 C15        53.6760   62.0150   56.9700 C.3       1 RTL135      0.0000 
     16 O1         53.6780   62.4780   55.6470 O.3       1 RTL135      0.0000 
     17 C16        47.9800   53.5620   57.0090 C.3       1 RTL135      0.0000 
     18 C17        46.9500   52.9730   58.8440 C.3       1 RTL135      0.0000 
     19 C18        50.5260   50.5470   60.1630 C.3       1 RTL135      0.0000 
     20 C19        52.4010   55.1930   59.2360 C.3       1 RTL135      0.0000 
     21 C20        54.0550   59.5350   58.6470 C.3       1 RTL135      0.0000 
     22 H          48.0370   50.8393   56.3689 H         1 RTL135      0.0000 
     23 H          46.4040   51.2422   56.9264 H         1 RTL135      0.0000 
     24 H          47.9111   49.0035   57.6744 H         1 RTL135      0.0000 
     25 H          46.4220   49.5769   58.4447 H         1 RTL135      0.0000 
     26 H          48.5480   49.0977   59.8822 H         1 RTL135      0.0000 
     27 H          47.4914   50.4698   60.2578 H         1 RTL135      0.0000 
     28 H          51.1340   52.7213   57.9399 H         1 RTL135      0.0000 
     29 H          49.2074   54.6788   59.1975 H         1 RTL135      0.0000 
     30 H          49.9372   56.6787   57.2949 H         1 RTL135      0.0000 
     31 H          52.7624   57.1950   57.2027 H         1 RTL135      0.0000 
     32 H          50.8388   59.2061   58.4149 H         1 RTL135      0.0000 
     33 H          51.7454   61.1449   56.5860 H         1 RTL135      0.0000 
     34 H          54.6394   61.5712   57.2531 H         1 RTL135      0.0000 
     35 H          53.4558   62.8165   57.6872 H         1 RTL135      0.0000 
     36 H          48.3345   54.3709   57.4781 H         1 RTL135      0.0000 
     37 H          48.5487   53.4203   56.1987 H         1 RTL135      0.0000 
     38 H          47.0613   53.7895   56.6862 H         1 RTL135      0.0000 
     39 H          47.2957   53.8105   59.2672 H         1 RTL135      0.0000 
     40 H          46.1070   53.2140   58.3631 H         1 RTL135      0.0000 
     41 H          46.6968   52.3525   59.5862 H         1 RTL135      0.0000 
     42 H          50.8507   49.6483   59.8681 H         1 RTL135      0.0000 
     43 H          51.2916   51.1825   60.0632 H         1 RTL135      0.0000 
     44 H          50.3261   50.4801   61.1405 H         1 RTL135      0.0000 
     45 H          52.8375   54.3469   58.9301 H         1 RTL135      0.0000 
     46 H          53.0548   55.9333   59.0794 H         1 RTL135      0.0000 
     47 H          52.2755   55.1171   60.2252 H         1 RTL135      0.0000 
     48 H          54.4659   58.6707   58.3570 H         1 RTL135      0.0000 
     49 H          54.7531   60.2426   58.5377 H         1 RTL135      0.0000 
     50 H          53.8679   59.4567   59.6262 H         1 RTL135      0.0000 
     51 H          52.7124   62.5690   55.4033 H         1 RTL135      0.0000 
@<TRIPOS>BOND
     1    2    1 1    
     2    6    1 1    
     3   17    1 1    
     4   18    1 1    
     5    3    2 1    
     6   22    2 1    
     7   23    2 1    
     8    4    3 1    
     9   24    3 1    
    10   25    3 1    
    11    5    4 1    
    12   26    4 1    
    13   27    4 1    
    14    6    5 2    
    15   19    5 1    
    16    7    6 1    
    17    8    7 2    
    18   28    7 1    
    19    9    8 1    
    20   29    8 1    
    21   10    9 2    
    22   20    9 1    
    23   11   10 1    
    24   30   10 1    
    25   12   11 2    
    26   31   11 1    
    27   13   12 1    
    28   32   12 1    
    29   14   13 2    
    30   21   13 1    
    31   15   14 1    
    32   33   14 1    
    33   16   15 1    
    34   34   15 1    
    35   35   15 1    
    36   51   16 1    
    37   36   17 1    
    38   37   17 1    
    39   38   17 1    
    40   39   18 1    
    41   40   18 1    
    42   41   18 1    
    43   42   19 1    
    44   43   19 1    
    45   44   19 1    
    46   45   20 1    
    47   46   20 1    
    48   47   20 1    
    49   48   21 1    
    50   49   21 1    
    51   50   21 1    
@<TRIPOS>SUBSTRUCTURE
     1 RTL135      1 GROUP   
@<TRIPOS>SET

