#    Name: 2AOT_3_CAVITY_N1_6.mol2
#    Modification time : Tue Mar 11 02:16:12 2014

@<TRIPOS>MOLECULE
2AOT_3_CAVITY_N1_6.mol2
   88     0     6     0     0
SMALL
NO_CHARGES


@<TRIPOS>ATOM
      1 N          43.3506  -38.3644   -0.7293 N.2       2 ALA2        0.0000 
      2 NZ         41.2699  -38.7104   -0.5036 N.2       3 LYS4        0.0000 
      3 CA         42.2328  -38.7479   -1.6531 C.3       5 GLY6        0.0000 
      4 NZ         40.1521  -39.0939   -1.4275 N.2       3 LYS4        0.0000 
      5 CZ         44.1976  -36.5313   -0.0796 C.ar      4 PHE5        0.0000 
      6 CZ         42.1169  -36.8773    0.1461 C.ar      4 PHE5        0.0000 
      7 DU         43.0798  -36.9148   -1.0034 H         6 CUB7        0.0000 
      8 CZ         44.0427  -36.9522   -2.1529 C.ar      4 PHE5        0.0000 
      9 NZ         40.0362  -37.2233    0.3718 N.2       3 LYS4        0.0000 
     10 NZ         40.9991  -37.2608   -0.7777 N.2       3 LYS4        0.0000 
     11 DU         41.9620  -37.2982   -1.9273 H         6 CUB7        0.0000 
     12 CZ         42.9249  -37.3357   -3.0768 C.ar      4 PHE5        0.0000 
     13 CA         38.9184  -37.6068   -0.5521 C.3       5 GLY6        0.0000 
     14 NZ         39.8813  -37.6442   -1.7016 N.2       3 LYS4        0.0000 
     15 CZ         40.8442  -37.6817   -2.8511 C.ar      4 PHE5        0.0000 
     16 CZ         41.8071  -37.7192   -4.0006 C.ar      4 PHE5        0.0000 
     17 CZ         38.7635  -38.0277   -2.6254 C.ar      4 PHE5        0.0000 
     18 CZ         42.9639  -35.0441    0.7958 C.ar      4 PHE5        0.0000 
     19 CZ         43.9268  -35.0816   -0.3537 C.ar      4 PHE5        0.0000 
     20 OG         41.8461  -35.4276   -0.1280 O.2       1 SER1        0.0000 
     21 DU         42.8090  -35.4651   -1.2775 H         6 CUB7        0.0000 
     22 CZ         43.7719  -35.5026   -2.4270 C.ar      4 PHE5        0.0000 
     23 CA         39.7654  -35.7736    0.0977 C.3       5 GLY6        0.0000 
     24 OG         40.7283  -35.8111   -1.0519 O.2       1 SER1        0.0000 
     25 DU         41.6912  -35.8486   -2.2014 H         6 CUB7        0.0000 
     26 DU         42.6541  -35.8861   -3.3509 H         6 CUB7        0.0000 
     27 CZ         43.6171  -35.9235   -4.5004 C.ar      4 PHE5        0.0000 
     28 CZ         39.6105  -36.1946   -1.9757 C.ar      4 PHE5        0.0000 
     29 CZ         40.5734  -36.2321   -3.1252 C.ar      4 PHE5        0.0000 
     30 CZ         41.5363  -36.2696   -4.2747 C.ar      4 PHE5        0.0000 
     31 CZ         42.4993  -36.3070   -5.4242 C.ar      4 PHE5        0.0000 
     32 CZ         38.4927  -36.5781   -2.8995 C.ar      4 PHE5        0.0000 
     33 CZ         40.9221  -33.0985    4.8941 C.ar      4 PHE5        0.0000 
     34 OG         43.6560  -33.6319   -0.6278 O.2       1 SER1        0.0000 
     35 CZ         44.6189  -33.6694   -1.7773 C.ar      4 PHE5        0.0000 
     36 OG         42.5382  -34.0154   -1.5516 O.2       1 SER1        0.0000 
     37 CZ         43.5011  -34.0529   -2.7011 C.ar      4 PHE5        0.0000 
     38 CZ         44.4641  -34.0904   -3.8507 C.ar      4 PHE5        0.0000 
     39 OG         40.4575  -34.3614   -1.3260 O.2       1 SER1        0.0000 
     40 OG         41.4204  -34.3989   -2.4755 O.2       1 SER1        0.0000 
     41 DU         42.3833  -34.4364   -3.6250 H         6 CUB7        0.0000 
     42 CZ         43.3463  -34.4739   -4.7745 C.ar      4 PHE5        0.0000 
     43 CZ         44.3092  -34.5114   -5.9240 C.ar      4 PHE5        0.0000 
     44 CZ         39.3397  -34.7449   -2.2498 C.ar      4 PHE5        0.0000 
     45 CZ         40.3026  -34.7824   -3.3993 C.ar      4 PHE5        0.0000 
     46 CZ         41.2656  -34.8199   -4.5488 C.ar      4 PHE5        0.0000 
     47 CZ         42.2285  -34.8574   -5.6983 C.ar      4 PHE5        0.0000 
     48 OG         42.7320  -31.3028    4.3943 O.2       1 SER1        0.0000 
     49 OG         41.6142  -31.6863    3.4705 O.2       1 SER1        0.0000 
     50 OG         43.3852  -32.1823   -0.9019 O.2       1 SER1        0.0000 
     51 CZ         44.3481  -32.2198   -2.0514 C.ar      4 PHE5        0.0000 
     52 CZ         45.3110  -32.2572   -3.2009 C.ar      4 PHE5        0.0000 
     53 OG         42.2674  -32.5658   -1.8257 O.2       1 SER1        0.0000 
     54 DU         43.2303  -32.6032   -2.9753 H         6 CUB7        0.0000 
     55 CZ         44.1933  -32.6407   -4.1248 C.ar      4 PHE5        0.0000 
     56 OG         40.1867  -32.9118   -1.6001 O.2       1 SER1        0.0000 
     57 CZ         41.1496  -32.9492   -2.7496 C.ar      4 PHE5        0.0000 
     58 CZ         42.1125  -32.9867   -3.8991 C.ar      4 PHE5        0.0000 
     59 DU         43.0755  -33.0242   -5.0486 H         6 CUB7        0.0000 
     60 N          44.0384  -33.0617   -6.1981 N.2       2 ALA2        0.0000 
     61 CZ         40.0318  -33.3327   -3.6734 C.ar      4 PHE5        0.0000 
     62 OG         40.9948  -33.3702   -4.8229 O.2       1 SER1        0.0000 
     63 CA         41.9577  -33.4077   -5.9725 C.3       5 GLY6        0.0000 
     64 OG         43.4241  -29.8907    2.9707 O.2       1 SER1        0.0000 
     65 OG         44.3871  -29.9281    1.8212 O.2       1 SER1        0.0000 
     66 OG         42.3063  -30.2741    2.0468 O.2       1 SER1        0.0000 
     67 OG         43.2693  -30.3116    0.8973 O.2       1 SER1        0.0000 
     68 CZ         44.2322  -30.3491   -0.2522 C.ar      4 PHE5        0.0000 
     69 OG         42.1515  -30.6951   -0.0265 O.2       1 SER1        0.0000 
     70 OG         43.1144  -30.7326   -1.1760 O.2       1 SER1        0.0000 
     71 CZ         44.0773  -30.7701   -2.3255 C.ar      4 PHE5        0.0000 
     72 CZ         45.0403  -30.8076   -3.4750 C.ar      4 PHE5        0.0000 
     73 N          41.9966  -31.1161   -2.0999 N.2       2 ALA2        0.0000 
     74 O          42.9595  -31.1536   -3.2494 O.2       2 ALA2        0.0000 
     75 NZ         43.9225  -31.1911   -4.3989 N.2       3 LYS4        0.0000 
     76 O          41.8418  -31.5371   -4.1732 O.2       2 ALA2        0.0000 
     77 O          42.8047  -31.5746   -5.3227 O.2       2 ALA2        0.0000 
     78 N          42.9985  -28.8620    0.6232 N.2       2 ALA2        0.0000 
     79 CZ         43.9614  -28.8995   -0.5263 C.ar      4 PHE5        0.0000 
     80 CZ         44.9243  -28.9369   -1.6758 C.ar      4 PHE5        0.0000 
     81 CZ         45.8872  -28.9744   -2.8253 C.ar      4 PHE5        0.0000 
     82 N          42.8436  -29.2829   -1.4501 N.2       2 ALA2        0.0000 
     83 CA         43.8065  -29.3204   -2.5996 C.3       5 GLY6        0.0000 
     84 N          41.7258  -29.6664   -2.3740 N.2       2 ALA2        0.0000 
     85 CA         42.6887  -29.7039   -3.5235 C.3       5 GLY6        0.0000 
     86 CA         44.6535  -27.4873   -1.9499 C.3       5 GLY6        0.0000 
     87 NZ         45.6164  -27.5248   -3.0994 N.2       3 LYS4        0.0000 
     88 CA         43.5357  -27.8708   -2.8738 C.3       5 GLY6        0.0000 
@<TRIPOS>BOND
@<TRIPOS>SUBSTRUCTURE
     1 SER1       20 GROUP   
     2 ALA2        1 GROUP   
     3 LYS4        2 GROUP   
     4 PHE5        5 GROUP   
     5 GLY6        3 GROUP   
     6 CUB7        7 GROUP   
@<TRIPOS>SET

