#    Name: 2aot_2PM_3_INTS_M
#    Modification time : Mon Mar 24 19:31:47 2014

@<TRIPOS>MOLECULE
2aot_2PM_3_INTS_M
   48     0     6     0     0
SMALL
NO_CHARGES


@<TRIPOS>ATOM
      1 CA         42.9665  -39.5065   -0.6680 C.3       2 GLC5        0.0000 
      2 CA         43.4900  -37.4400   -1.3070 C.3       6 GLL5        0.0000 
      3 CA         42.4430  -41.5730   -0.0290 C.3       4 GLP5        0.0000 
      4 CA         40.4610  -36.9605   -4.1090 C.3       2 GLC5        0.0000 
      5 CA         41.5750  -36.3610   -2.6430 C.3       6 GLL5        0.0000 
      6 CA         39.3470  -37.5600   -5.5750 C.3       4 GLP5        0.0000 
      7 CA         35.4280  -37.5045   -0.8860 C.3       2 GLC5        0.0000 
      8 CA         37.5920  -37.5900   -1.4190 C.3       6 GLL5        0.0000 
      9 CA         33.2640  -37.4190   -0.3530 C.3       4 GLP5        0.0000 
     10 CA         40.8795  -39.5170   -0.1970 C.3       2 GLC5        0.0000 
     11 CA         39.9790  -38.0560   -1.5970 C.3       6 GLL5        0.0000 
     12 CA         41.7800  -40.9780    1.2030 C.3       4 GLP5        0.0000 
     13 CA         43.7930  -36.6450   -5.3925 C.3       2 GLC5        0.0000 
     14 CA         42.7360  -35.5350   -4.5760 C.3       6 GLL5        0.0000 
     15 CA         44.8500  -37.7550   -6.2090 C.3       4 GLP5        0.0000 
     16 CA         41.0415  -36.5475   -5.0755 C.3       2 GLC5        0.0000 
     17 CA         44.8255  -35.7870   -4.1090 C.3       2 GLC5        0.0000 
     18 CA         46.9150  -36.0390   -3.6420 C.3       4 GLP5        0.0000 
     19 CA         41.8530  -33.5430   -6.8610 C.3       2 GLC5        0.0000 
     20 CA         42.8440  -34.2080   -5.3130 C.3       6 GLL5        0.0000 
     21 CA         40.8620  -32.8780   -8.4090 C.3       4 GLP5        0.0000 
     22 CA         43.3795  -35.3575   -6.6515 C.3       2 GLC5        0.0000 
     23 CA         43.9150  -36.5070   -7.9900 C.3       4 GLP5        0.0000 
     24 O          43.4625  -32.3890   -5.9475 O.2       1 ALC1        0.0000 
     25 O          43.1330  -32.9630   -4.6380 O.2       5 ALL1        0.0000 
     26 O          43.7920  -31.8150   -7.2570 O.2       3 ALP1        0.0000 
     27 CA         45.5255  -32.1775   -2.0995 C.3       2 GLC5        0.0000 
     28 CA         44.1940  -32.9250   -3.6630 C.3       6 GLL5        0.0000 
     29 CA         46.8570  -31.4300   -0.5360 C.3       4 GLP5        0.0000 
     30 CA         45.8750  -32.5055   -4.1540 C.3       2 GLC5        0.0000 
     31 CA         47.5560  -32.0860   -4.6450 C.3       4 GLP5        0.0000 
     32 CA         45.4670  -34.1050   -3.0745 C.3       2 GLC5        0.0000 
     33 CA         46.7400  -35.2850   -2.4860 C.3       4 GLP5        0.0000 
     34 CA         40.3190  -31.7905   -3.7640 C.3       2 GLC5        0.0000 
     35 CA         41.9610  -32.3720   -4.0480 C.3       6 GLL5        0.0000 
     36 CA         38.6770  -31.2090   -3.4800 C.3       4 GLP5        0.0000 
     37 CA         45.6960  -38.1515    1.2352 C.3       2 GLC5        0.0000 
     38 CA         44.3570  -36.3460    0.6950 C.3       6 GLL5        0.0000 
     39 CA         47.0220  -39.4200    2.2340 C.3       4 GLP5        0.0000 
     40 CA         37.4483  -34.6045   -1.6255 C.3       2 GLC5        0.0000 
     41 CA         39.0770  -35.9370   -2.4240 C.3       6 GLL5        0.0000 
     42 CA         36.4640  -33.0730   -1.0240 C.3       4 GLP5        0.0000 
     43 CA         37.8588  -36.0225   -0.4940 C.3       2 GLC5        0.0000 
     44 CA         37.7880  -36.3350   -2.0300 C.3       6 GLL5        0.0000 
     45 CA         37.2850  -35.9090    1.2390 C.3       4 GLP5        0.0000 
     46 CA         36.0950  -37.3893   -2.8232 C.3       2 GLC5        0.0000 
     47 CA         34.5000  -37.8160   -3.9220 C.3       4 GLP5        0.0000 
     48 CA         38.1724  -36.9734   -0.1074 C.3       2 GLC5        0.0000 
@<TRIPOS>BOND
@<TRIPOS>SUBSTRUCTURE
     1 ALC1       24 GROUP        1 X    ALC  0     ROOT ALC X 1
     2 GLC5        1 GROUP        1 X    GLC  0     **** GLC X 6
     3 ALP1       26 GROUP        1 Y    ALP  0     ROOT ALP Y 8
     4 GLP5        3 GROUP        1 Y    GLP  0     **** GLP Y 13
     5 ALL1       25 GROUP        1 Z    ALL  0     ROOT ALL Z 15
     6 GLL5        2 GROUP        1 Z    GLL  0     **** GLL Z 20
@<TRIPOS>SET

