#    Name: 2aot_2PM_3_ligand
#    Modification time : Mon Mar 24 19:31:47 2014

@<TRIPOS>MOLECULE
2aot_2PM_3_ligand
   41    42     1     0     0
SMALL
NO_CHARGES


@<TRIPOS>ATOM
      1 C1         43.4360  -35.2860    0.5270 C.ar      1 2PM401      0.0000 
      2 C2         44.3570  -36.3460    0.6950 C.ar      1 2PM401      0.0000 
      3 C3         44.3830  -37.4200   -0.2220 C.ar      1 2PM401      0.0000 
      4 C4         43.4900  -37.4400   -1.3070 C.ar      1 2PM401      0.0000 
      5 C5         42.5440  -36.3580   -1.4820 C.ar      1 2PM401      0.0000 
      6 C6         42.5350  -35.2940   -0.5560 C.ar      1 2PM401      0.0000 
      7 C7         41.5750  -36.3610   -2.6430 C.3       1 2PM401      0.0000 
      8 C8         40.1850  -36.7920   -2.2120 C.ar      1 2PM401      0.0000 
      9 C9         39.0770  -35.9370   -2.4240 C.ar      1 2PM401      0.0000 
     10 C10        37.7880  -36.3350   -2.0300 C.ar      1 2PM401      0.0000 
     11 C11        37.5920  -37.5900   -1.4190 C.ar      1 2PM401      0.0000 
     12 C12        38.6890  -38.4490   -1.2020 C.ar      1 2PM401      0.0000 
     13 C13        39.9790  -38.0560   -1.5970 C.ar      1 2PM401      0.0000 
     14 O1         41.6350  -35.4560   -3.7160 O.3       1 2PM401      0.0000 
     15 C14        42.7360  -35.5350   -4.5760 C.3       1 2PM401      0.0000 
     16 C15        42.8440  -34.2080   -5.3130 C.3       1 2PM401      0.0000 
     17 N1         43.1330  -32.9630   -4.6380 N.4       1 2PM401      0.0000 
     18 C16        44.1940  -32.9250   -3.6630 C.3       1 2PM401      0.0000 
     19 C17        41.9610  -32.3720   -4.0480 C.3       1 2PM401      0.0000 
     20 H          43.4259  -34.5118    1.1955 H         1 2PM401      0.0000 
     21 H          45.0072  -36.3341    1.4847 H         1 2PM401      0.0000 
     22 H          45.0528  -38.1816   -0.0937 H         1 2PM401      0.0000 
     23 H          43.4933  -38.2030   -1.9770 H         1 2PM401      0.0000 
     24 H          41.8699  -34.5239   -0.6722 H         1 2PM401      0.0000 
     25 H          41.9205  -37.4459   -3.1858 H         1 2PM401      0.0000 
     26 H          39.2199  -35.0249   -2.8669 H         1 2PM401      0.0000 
     27 H          36.9897  -35.7143   -2.1861 H         1 2PM401      0.0000 
     28 H          36.6538  -37.8780   -1.1328 H         1 2PM401      0.0000 
     29 H          38.5434  -39.3582   -0.7567 H         1 2PM401      0.0000 
     30 H          40.7768  -38.6772   -1.4442 H         1 2PM401      0.0000 
     31 H          42.6277  -36.3219   -5.3258 H         1 2PM401      0.0000 
     32 H          43.6755  -35.6942   -4.0420 H         1 2PM401      0.0000 
     33 H          41.8730  -34.0941   -5.9230 H         1 2PM401      0.0000 
     34 H          43.6075  -34.3676   -6.1612 H         1 2PM401      0.0000 
     35 H          43.4439  -32.2079   -5.4627 H         1 2PM401      0.0000 
     36 H          45.0762  -33.1712   -4.0644 H         1 2PM401      0.0000 
     37 H          44.2980  -32.0146   -3.2626 H         1 2PM401      0.0000 
     38 H          44.0279  -33.5598   -2.9084 H         1 2PM401      0.0000 
     39 H          42.1718  -31.5101   -3.5868 H         1 2PM401      0.0000 
     40 H          41.2599  -32.1740   -4.7331 H         1 2PM401      0.0000 
     41 H          41.5439  -32.9743   -3.3674 H         1 2PM401      0.0000 
@<TRIPOS>BOND
     1    2    1 ar   
     2    6    1 ar   
     3   20    1 1    
     4    3    2 ar   
     5   21    2 1    
     6    4    3 ar   
     7   22    3 1    
     8    5    4 ar   
     9   23    4 1    
    10    6    5 ar   
    11    7    5 1    
    12   24    6 1    
    13    8    7 1    
    14   14    7 1    
    15   25    7 1    
    16    9    8 ar   
    17   13    8 ar   
    18   10    9 ar   
    19   26    9 1    
    20   11   10 ar   
    21   27   10 1    
    22   12   11 ar   
    23   28   11 1    
    24   13   12 ar   
    25   29   12 1    
    26   30   13 1    
    27   15   14 1    
    28   16   15 1    
    29   31   15 1    
    30   32   15 1    
    31   17   16 1    
    32   33   16 1    
    33   34   16 1    
    34   18   17 1    
    35   19   17 1    
    36   35   17 1    
    37   36   18 1    
    38   37   18 1    
    39   38   18 1    
    40   39   19 1    
    41   40   19 1    
    42   41   19 1    
@<TRIPOS>SUBSTRUCTURE
     1 2PM401      1 GROUP   
@<TRIPOS>SET

