#    Name: 3sw4_18K_1_INTS_M
#    Modification time : Mon Mar 24 18:39:06 2014

@<TRIPOS>MOLECULE
3sw4_18K_1_INTS_M
   60     0     9     0     0
SMALL
NO_CHARGES


@<TRIPOS>ATOM
      1 CA         13.1260    9.8925  -10.7630 C.3       3 GLC5        0.0000 
      2 CA         13.3310    7.6580  -10.7870 C.3       9 GLL5        0.0000 
      3 CA         12.9210   12.1270  -10.7390 C.3       6 GLP5        0.0000 
      4 CA         17.1685    7.9780  -14.9245 C.3       3 GLC5        0.0000 
      5 CA         15.9570    7.1430  -13.8380 C.3       9 GLL5        0.0000 
      6 CA         18.3800    8.8130  -16.0110 C.3       6 GLP5        0.0000 
      7 N          10.4585   11.0060  -15.6585 N.am      2 SEC2        0.0000 
      8 N          11.3310   10.2870  -14.7170 N.am      8 SEL2        0.0000 
      9 N           9.5860   11.7250  -16.6000 N.am      5 SEP2        0.0000 
     10 CA         12.3040    6.6600  -13.3740 C.3       3 GLC5        0.0000 
     11 CA         13.9110    7.8890  -12.4240 C.3       9 GLL5        0.0000 
     12 CA         10.6970    5.4310  -14.3240 C.3       6 GLP5        0.0000 
     13 O           9.1180   11.2800  -13.6165 O.2       1 ALC1        0.0000 
     14 O          10.1120   10.6080  -12.8170 O.2       7 ALL1        0.0000 
     15 O           8.1240   11.9520  -14.4160 O.2       4 ALP1        0.0000 
     16 CA         12.9930   10.4185  -12.0230 C.3       3 GLC5        0.0000 
     17 CA         13.0650    8.7100  -13.3070 C.3       9 GLL5        0.0000 
     18 CA         14.9705    9.4195  -16.0420 C.3       3 GLC5        0.0000 
     19 CA         13.3150    8.9100  -14.6590 C.3       9 GLL5        0.0000 
     20 CA         16.6260    9.9290  -17.4250 C.3       6 GLP5        0.0000 
     21 CA         11.9625   11.4375  -16.2405 C.3       3 GLC5        0.0000 
     22 CA         12.3980    9.7220  -15.3070 C.3       9 GLL5        0.0000 
     23 CA         11.5270   13.1530  -17.1740 C.3       6 GLP5        0.0000 
     24 CA         12.0530   11.0775  -12.0750 C.3       3 GLC5        0.0000 
     25 CA         11.1850   10.0280  -13.4110 C.3       9 GLL5        0.0000 
     26 CA         13.0890   10.9765  -13.8345 C.3       3 GLC5        0.0000 
     27 CA         14.9930   11.9250  -14.2580 C.3       6 GLP5        0.0000 
     28 CA         10.1895    8.5285  -13.2455 C.3       3 GLC5        0.0000 
     29 CA          9.1940    7.0290  -13.0800 C.3       6 GLP5        0.0000 
     30 CA          9.8225   12.5925   -9.1285 C.3       3 GLC5        0.0000 
     31 CA          8.0590   11.5340   -9.8970 C.3       9 GLL5        0.0000 
     32 CA         11.5860   13.6510   -8.3600 C.3       6 GLP5        0.0000 
     33 CA          4.7205    9.5005   -9.0590 C.3       3 GLC5        0.0000 
     34 CA          6.4220    9.9460   -7.7240 C.3       9 GLL5        0.0000 
     35 CA          3.0190    9.0550  -10.3940 C.3       6 GLP5        0.0000 
     36 CA          4.6715   10.0845   -7.2345 C.3       3 GLC5        0.0000 
     37 CA          2.9210   10.2230   -6.7450 C.3       6 GLP5        0.0000 
     38 CA         14.6898    5.6675  -14.3100 C.3       3 GLC5        0.0000 
     39 CA         15.1280    7.2090  -12.6000 C.3       9 GLL5        0.0000 
     40 CA         13.8370    4.1590  -15.4010 C.3       6 GLP5        0.0000 
     41 CA         15.4343    8.9371  -11.3684 C.3       3 GLC5        0.0000 
     42 CA         16.4940   10.3830  -10.6340 C.3       6 GLP5        0.0000 
     43 CA         13.2862    8.4115  -16.7920 C.3       3 GLC5        0.0000 
     44 CA         13.7160    7.5070  -18.6010 C.3       6 GLP5        0.0000 
     45 CA         13.8935   10.5955  -14.4515 C.3       3 GLC5        0.0000 
     46 CA         11.2690    7.9360  -14.5475 C.3       3 GLC5        0.0000 
     47 CA          9.7440    6.6060  -14.4500 C.3       6 GLP5        0.0000 
     48 CA          9.4772    8.5638  -12.0675 C.3       3 GLC5        0.0000 
     49 CA          9.5530   10.5680  -11.5240 C.3       9 GLL5        0.0000 
     50 CA          6.6717   10.6235  -11.2338 C.3       3 GLC5        0.0000 
     51 CA          8.5980   11.5200  -11.1720 C.3       9 GLL5        0.0000 
     52 CA          5.0150    9.7200  -11.9330 C.3       6 GLP5        0.0000 
     53 CA         10.6047   11.1890   -8.6745 C.3       3 GLC5        0.0000 
     54 CA          8.4640   10.5750   -8.9720 C.3       9 GLL5        0.0000 
     55 CA         12.2620   12.2780   -8.2080 C.3       6 GLP5        0.0000 
     56 CA          8.6017    7.7615  -10.0220 C.3       3 GLC5        0.0000 
     57 CA          9.4310    9.6250   -9.3100 C.3       9 GLL5        0.0000 
     58 CA          7.5040    5.8960  -10.0960 C.3       6 GLP5        0.0000 
     59 CA         11.2214   11.2317  -10.8530 C.3       3 GLC5        0.0000 
     60 CA          9.9680    9.6290  -10.5860 C.3       9 GLL5        0.0000 
@<TRIPOS>BOND
@<TRIPOS>SUBSTRUCTURE
     1 ALC1       13 GROUP        1 X    ALC  0     ROOT ALC X 1
     2 SEC2        7 GROUP        1 X    SEC  0     **** SEC X 2
     3 GLC5        1 GROUP        1 X    GLC  0     **** GLC X 6
     4 ALP1       15 GROUP        1 Y    ALP  0     ROOT ALP Y 8
     5 SEP2        9 GROUP        1 Y    SEP  0     **** SEP Y 9
     6 GLP5        3 GROUP        1 Y    GLP  0     **** GLP Y 13
     7 ALL1       14 GROUP        1 Z    ALL  0     ROOT ALL Z 15
     8 SEL2        8 GROUP        1 Z    SEL  0     **** SEL Z 16
     9 GLL5        2 GROUP        1 Z    GLL  0     **** GLL Z 20
@<TRIPOS>SET

