#    Name: 3sw4_18K_1_ligand
#    Modification time : Mon Mar 24 18:39:06 2014

@<TRIPOS>MOLECULE
3sw4_18K_1_ligand
   41    43     1     0     0
SMALL
NO_CHARGES


@<TRIPOS>ATOM
      1 S          13.3310    7.6580  -10.7870 S.3       1 18K299      0.0000 
      2 C1         15.9570    7.1430  -13.8380 C.3       1 18K299      0.0000 
      3 N1         15.5680    6.5490  -11.4680 N.2       1 18K299      0.0000 
      4 C2         15.1280    7.2090  -12.6000 C.2       1 18K299      0.0000 
      5 N2         14.9890    6.2370   -9.2200 N.pl3     1 18K299      0.0000 
      6 C3         14.7500    6.7050  -10.4530 C.2       1 18K299      0.0000 
      7 N3         11.3310   10.2870  -14.7170 N.ar      1 18K299      0.0000 
      8 C4         13.9110    7.8890  -12.4240 C.2       1 18K299      0.0000 
      9 N4         10.1120   10.6080  -12.8170 N.pl3     1 18K299      0.0000 
     10 C5         13.0650    8.7100  -13.3070 C.ar      1 18K299      0.0000 
     11 N5          7.7990   10.5220   -7.6470 N.pl3     1 18K299      0.0000 
     12 C6         13.3150    8.9100  -14.6590 C.ar      1 18K299      0.0000 
     13 N6         12.0220    9.2670  -12.6730 N.ar      1 18K299      0.0000 
     14 C7         12.3980    9.7220  -15.3070 C.ar      1 18K299      0.0000 
     15 C8         11.1850   10.0280  -13.4110 C.ar      1 18K299      0.0000 
     16 C9          9.5530   10.5680  -11.5240 C.ar      1 18K299      0.0000 
     17 C10         8.5980   11.5200  -11.1720 C.ar      1 18K299      0.0000 
     18 C11         8.0590   11.5340   -9.8970 C.ar      1 18K299      0.0000 
     19 C12         8.4640   10.5750   -8.9720 C.ar      1 18K299      0.0000 
     20 C13         6.4220    9.9460   -7.7240 C.3       1 18K299      0.0000 
     21 C14         8.6120    9.8470   -6.5930 C.3       1 18K299      0.0000 
     22 C15         9.4310    9.6250   -9.3100 C.ar      1 18K299      0.0000 
     23 C16         9.9680    9.6290  -10.5860 C.ar      1 18K299      0.0000 
     24 H          15.8110    5.6776   -9.1134 H         1 18K299      0.0000 
     25 H          14.3239    6.4892   -8.5171 H         1 18K299      0.0000 
     26 H           9.5160   11.2856  -13.5086 H         1 18K299      0.0000 
     27 H          14.0924    8.5012  -15.1240 H         1 18K299      0.0000 
     28 H          12.5656    9.9009  -16.3469 H         1 18K299      0.0000 
     29 H           8.2935   12.2171  -11.8691 H         1 18K299      0.0000 
     30 H           7.3673   12.2428   -9.6323 H         1 18K299      0.0000 
     31 H           9.7354    8.9357   -8.6175 H         1 18K299      0.0000 
     32 H          10.6828    8.9301  -10.8460 H         1 18K299      0.0000 
     33 H          16.8710    7.5220  -13.6935 H         1 18K299      0.0000 
     34 H          16.0766    6.2022  -14.1552 H         1 18K299      0.0000 
     35 H          15.5427    7.6555  -14.5901 H         1 18K299      0.0000 
     36 H           6.4295    9.0121   -8.0813 H         1 18K299      0.0000 
     37 H           5.9826    9.9128   -6.8263 H         1 18K299      0.0000 
     38 H           5.8274   10.4837   -8.3217 H         1 18K299      0.0000 
     39 H           8.8221    8.8999   -6.8357 H         1 18K299      0.0000 
     40 H           9.4847   10.3116   -6.4427 H         1 18K299      0.0000 
     41 H           8.1361    9.8256   -5.7137 H         1 18K299      0.0000 
@<TRIPOS>BOND
     1    6    1 1    
     2    8    1 1    
     3    4    2 1    
     4   33    2 1    
     5   34    2 1    
     6   35    2 1    
     7    4    3 1    
     8    6    3 2    
     9    8    4 2    
    10    6    5 1    
    11   24    5 1    
    12   25    5 1    
    13   14    7 ar   
    14   15    7 ar   
    15   10    8 1    
    16   15    9 1    
    17   16    9 1    
    18   26    9 1    
    19   12   10 ar   
    20   13   10 ar   
    21   19   11 1    
    22   20   11 1    
    23   21   11 1    
    24   14   12 ar   
    25   27   12 1    
    26   15   13 ar   
    27   28   14 1    
    28   17   16 ar   
    29   23   16 ar   
    30   18   17 ar   
    31   29   17 1    
    32   19   18 ar   
    33   30   18 1    
    34   22   19 ar   
    35   36   20 1    
    36   37   20 1    
    37   38   20 1    
    38   39   21 1    
    39   40   21 1    
    40   41   21 1    
    41   23   22 ar   
    42   31   22 1    
    43   32   23 1    
@<TRIPOS>SUBSTRUCTURE
     1 18K299      1 GROUP   
@<TRIPOS>SET

