#    Name: 3rj9_NAD_5_INTS_M
#    Modification time : Mon Apr  7 20:25:38 2014

@<TRIPOS>MOLECULE
3rj9_NAD_5_INTS_M
   96     0     9     0     0
SMALL
NO_CHARGES


@<TRIPOS>ATOM
      1 N          18.8485   22.4505   63.0815 N.am      2 SEC2        0.0000 
      2 N          17.8750   23.1380   62.4440 N.am      8 SEL2        0.0000 
      3 N          19.8220   21.7630   63.7190 N.am      5 SEP2        0.0000 
      4 N          21.0765   26.1885   56.8495 N.am      2 SEC2        0.0000 
      5 N          21.3430   26.3080   58.5010 N.am      8 SEL2        0.0000 
      6 N          20.8100   26.0690   55.1980 N.am      5 SEP2        0.0000 
      7 O          23.3875   27.6050   61.3940 O.2       1 ALC1        0.0000 
      8 O          22.6270   26.1200   61.3880 O.2       7 ALL1        0.0000 
      9 O          24.1480   29.0900   61.4000 O.2       4 ALP1        0.0000 
     10 O          23.6335   26.7885   62.0855 O.2       1 ALC1        0.0000 
     11 O          24.6400   27.4570   62.7830 O.2       4 ALP1        0.0000 
     12 O          22.8245   28.8880   61.3265 O.2       1 ALC1        0.0000 
     13 O          21.5010   28.6860   61.2530 O.2       7 ALL1        0.0000 
     14 CA         22.4965   26.8745   57.2030 C.3       3 GLC5        0.0000 
     15 CA         21.7550   27.5800   59.0080 C.3       9 GLL5        0.0000 
     16 CA         23.2380   26.1690   55.3980 C.3       6 GLP5        0.0000 
     17 CA         23.9200   33.1375   56.5830 C.3       3 GLC5        0.0000 
     18 CA         22.2810   31.6730   56.4290 C.3       9 GLL5        0.0000 
     19 CA         25.5590   34.6020   56.7370 C.3       6 GLP5        0.0000 
     20 CA         23.1090   31.4205   54.6955 C.3       3 GLC5        0.0000 
     21 CA         23.9370   31.1680   52.9620 C.3       6 GLP5        0.0000 
     22 O          22.4075   33.7790   55.4060 O.2       1 ALC1        0.0000 
     23 O          21.6220   32.5930   55.6830 O.2       7 ALL1        0.0000 
     24 O          23.1930   34.9650   55.1290 O.2       4 ALP1        0.0000 
     25 N          24.5900   32.4560   55.7285 N.am      2 SEC2        0.0000 
     26 N          23.6150   31.7940   56.6580 N.am      8 SEL2        0.0000 
     27 N          25.5650   33.1180   54.7990 N.am      5 SEP2        0.0000 
     28 CA         23.7880   32.1265   58.7260 C.3       3 GLC5        0.0000 
     29 CA         24.2810   30.8910   57.4020 C.3       9 GLL5        0.0000 
     30 CA         23.2950   33.3620   60.0500 C.3       6 GLP5        0.0000 
     31 CA         24.9200   32.7465   57.0695 C.3       3 GLC5        0.0000 
     32 CA         25.1020   30.5810   55.8060 C.3       3 GLC5        0.0000 
     33 CA         25.9230   30.2710   54.2100 C.3       6 GLP5        0.0000 
     34 CA         24.0260   29.2305   56.2220 C.3       3 GLC5        0.0000 
     35 CA         23.7710   27.5700   55.0420 C.3       6 GLP5        0.0000 
     36 CA         22.1580   31.1100   59.0060 C.3       3 GLC5        0.0000 
     37 CA         22.2890   29.6680   57.7360 C.3       9 GLL5        0.0000 
     38 CA         22.0270   32.5520   60.2760 C.3       6 GLP5        0.0000 
     39 N          16.2840   20.1060   60.3905 N.am      2 SEC2        0.0000 
     40 N          17.3650   20.2160   59.5170 N.am      8 SEL2        0.0000 
     41 N          15.2030   19.9960   61.2640 N.am      5 SEP2        0.0000 
     42 N          20.0060   20.1525   61.5910 N.am      2 SEC2        0.0000 
     43 N          19.4660   21.2220   60.7340 N.am      8 SEL2        0.0000 
     44 N          20.5460   19.0830   62.4480 N.am      5 SEP2        0.0000 
     45 CA         21.6570   19.9255   55.4565 C.3       3 GLC5        0.0000 
     46 CA         20.5520   21.1570   56.4720 C.3       9 GLL5        0.0000 
     47 CA         22.7620   18.6940   54.4410 C.3       6 GLP5        0.0000 
     48 CA         19.6525   23.9865   55.0700 C.3       3 GLC5        0.0000 
     49 CA         19.7470   22.1480   55.6380 C.3       9 GLL5        0.0000 
     50 CA         19.5580   25.8250   54.5020 C.3       6 GLP5        0.0000 
     51 N          20.3185   22.2140   53.0395 N.am      2 SEC2        0.0000 
     52 N          20.5590   22.5660   54.5280 N.am      8 SEL2        0.0000 
     53 N          20.0780   21.8620   51.5510 N.am      5 SEP2        0.0000 
     54 CA         16.8050   21.4475   55.9315 C.3       3 GLC5        0.0000 
     55 CA         18.5650   21.3350   55.1400 C.3       9 GLL5        0.0000 
     56 CA         15.0450   21.5600   56.7230 C.3       6 GLP5        0.0000 
     57 N          17.0105   21.2205   53.3855 N.am      2 SEC2        0.0000 
     58 N          18.0310   21.8380   53.9100 N.am      8 SEL2        0.0000 
     59 N          15.9900   20.6030   52.8610 N.am      5 SEP2        0.0000 
     60 N          19.0545   21.8500   52.7305 N.am      2 SEC2        0.0000 
     61 CA         19.4265   18.5995   56.7880 C.3       3 GLC5        0.0000 
     62 CA         19.1600   19.9280   55.0270 C.3       9 GLL5        0.0000 
     63 CA         19.6930   17.2710   58.5490 C.3       6 GLP5        0.0000 
     64 CA         20.9610   19.3110   54.7340 C.3       3 GLC5        0.0000 
     65 N          14.4130   15.5180   57.9850 N.am      2 SEC2        0.0000 
     66 N          14.5480   16.6700   57.2030 N.am      8 SEL2        0.0000 
     67 N          14.2780   14.3660   58.7670 N.am      5 SEP2        0.0000 
     68 O          14.9220   17.2040   59.5490 O.2       1 ALC1        0.0000 
     69 O          15.7690   17.9570   58.5330 O.2       7 ALL1        0.0000 
     70 O          14.0750   16.4510   60.5650 O.2       4 ALP1        0.0000 
     71 CA         19.4850   16.5410   53.9595 C.3       3 GLC5        0.0000 
     72 CA         18.2480   17.9020   54.1140 C.3       9 GLL5        0.0000 
     73 CA         20.7220   15.1800   53.8050 C.3       6 GLP5        0.0000 
     74 CA         21.2355   24.7717   61.9265 C.3       3 GLC5        0.0000 
     75 CA         21.0850   25.4380   59.6180 C.3       9 GLL5        0.0000 
     76 CA         21.2890   23.6910   63.6010 C.3       6 GLP5        0.0000 
     77 CA         21.4118   32.0918   58.0440 C.3       3 GLC5        0.0000 
     78 CA         21.5880   30.5920   56.9730 C.3       9 GLL5        0.0000 
     79 CA         20.8890   33.0510   59.3870 C.3       6 GLP5        0.0000 
     80 CA         22.8548   28.8500   56.1983 C.3       3 GLC5        0.0000 
     81 CA         21.2033   30.2188   54.9720 C.3       3 GLC5        0.0000 
     82 CA         20.4720   29.3050   53.2430 C.3       6 GLP5        0.0000 
     83 CA         20.0740   19.2492   57.8872 C.3       3 GLC5        0.0000 
     84 CA         18.7713   21.1828   53.0143 C.3       3 GLC5        0.0000 
     85 CA         18.6800   21.7340   50.9450 C.3       6 GLP5        0.0000 
     86 CA         18.3120   17.6872   57.3640 C.3       3 GLC5        0.0000 
     87 CA         17.3690   18.6460   56.1500 C.3       9 GLL5        0.0000 
     88 CA         15.9880   19.8317   56.4510 C.3       3 GLC5        0.0000 
     89 CA         18.2553   15.5035   55.1578 C.3       3 GLC5        0.0000 
     90 CA         16.5140   16.6300   55.1750 C.3       9 GLL5        0.0000 
     91 CA         19.5560   14.2910   55.6730 C.3       6 GLP5        0.0000 
     92 CA         17.7553   17.4370   52.1955 C.3       3 GLC5        0.0000 
     93 CA         17.3950   16.8020   54.1100 C.3       9 GLL5        0.0000 
     94 CA         17.6890   17.5220   50.2790 C.3       6 GLP5        0.0000 
     95 CA         23.0051   26.2699   59.2965 C.3       3 GLC5        0.0000 
     96 CA         24.7200   25.8020   58.6250 C.3       6 GLP5        0.0000 
@<TRIPOS>BOND
@<TRIPOS>SUBSTRUCTURE
     1 ALC1        7 GROUP        1 X    ALC  0     ROOT ALC X 1
     2 SEC2        1 GROUP        1 X    SEC  0     **** SEC X 2
     3 GLC5       14 GROUP        1 X    GLC  0     **** GLC X 6
     4 ALP1        9 GROUP        1 Y    ALP  0     ROOT ALP Y 8
     5 SEP2        3 GROUP        1 Y    SEP  0     **** SEP Y 9
     6 GLP5       16 GROUP        1 Y    GLP  0     **** GLP Y 13
     7 ALL1        8 GROUP        1 Z    ALL  0     ROOT ALL Z 15
     8 SEL2        2 GROUP        1 Z    SEL  0     **** SEL Z 16
     9 GLL5       15 GROUP        1 Z    GLL  0     **** GLL Z 20
@<TRIPOS>SET

