#    Name: 3rj9_NAD_5_ligand
#    Modification time : Mon Apr  7 20:25:38 2014

@<TRIPOS>MOLECULE
3rj9_NAD_5_ligand
   70    74     1     0     0
SMALL
NO_CHARGES


@<TRIPOS>ATOM
      1 PA         17.8470   23.7540   61.0520 P.3       1 NAD850      0.0000 
      2 O1A        16.9790   24.9610   60.8110 O.co2     1 NAD850      0.0000 
      3 O2A        17.8750   23.1380   62.4440 O.co2     1 NAD850      0.0000 
      4 O5B        19.3640   24.1340   60.6700 O.3       1 NAD850      0.0000 
      5 C5B        19.6580   24.9190   59.5170 C.3       1 NAD850      0.0000 
      6 C4B        21.0850   25.4380   59.6180 C.3       1 NAD850      0.0000 
      7 O4B        21.3430   26.3080   58.5010 O.3       1 NAD850      0.0000 
      8 C3B        21.2790   26.2670   60.8860 C.3       1 NAD850      0.0000 
      9 O3B        22.6270   26.1200   61.3880 O.3       1 NAD850      0.0000 
     10 C2B        21.0420   27.6660   60.3600 C.3       1 NAD850      0.0000 
     11 O2B        21.5010   28.6860   61.2530 O.3       1 NAD850      0.0000 
     12 C1B        21.7550   27.5800   59.0080 C.3       1 NAD850      0.0000 
     13 N9A        21.4100   28.7360   58.1400 N.pl3     1 NAD850      0.0000 
     14 C8A        20.1920   29.0550   57.6510 C.2       1 NAD850      0.0000 
     15 N7A        20.2890   30.2020   56.9400 N.2       1 NAD850      0.0000 
     16 C5A        21.5880   30.5920   56.9730 C.ar      1 NAD850      0.0000 
     17 C6A        22.2810   31.6730   56.4290 C.ar      1 NAD850      0.0000 
     18 N6A        21.6220   32.5930   55.6830 N.pl3     1 NAD850      0.0000 
     19 N1A        23.6150   31.7940   56.6580 N.ar      1 NAD850      0.0000 
     20 C2A        24.2810   30.8910   57.4020 C.ar      1 NAD850      0.0000 
     21 N3A        23.6360   29.8270   57.9300 N.ar      1 NAD850      0.0000 
     22 C4A        22.2890   29.6680   57.7360 C.ar      1 NAD850      0.0000 
     23 O3         17.5020   22.6520   59.9660 O.3       1 NAD850      0.0000 
     24 PN         18.3570   21.3250   59.7060 P.3       1 NAD850      0.0000 
     25 O1N        17.3650   20.2160   59.5170 O.co2     1 NAD850      0.0000 
     26 O2N        19.4660   21.2220   60.7340 O.co2     1 NAD850      0.0000 
     27 O5D        18.9950   21.5960   58.2620 O.3       1 NAD850      0.0000 
     28 C5D        20.3580   21.2980   57.9790 C.3       1 NAD850      0.0000 
     29 C4D        20.5520   21.1570   56.4720 C.3       1 NAD850      0.0000 
     30 O4D        20.1250   19.8480   56.0900 O.3       1 NAD850      0.0000 
     31 C3D        19.7470   22.1480   55.6380 C.3       1 NAD850      0.0000 
     32 O3D        20.5590   22.5660   54.5280 O.3       1 NAD850      0.0000 
     33 C2D        18.5650   21.3350   55.1400 C.3       1 NAD850      0.0000 
     34 O2D        18.0310   21.8380   53.9100 O.3       1 NAD850      0.0000 
     35 C1D        19.1600   19.9280   55.0270 C.3       1 NAD850      0.0000 
     36 N1N        18.2100   18.7990   55.1100 N.pl3     1 NAD850      0.0000 
     37 C2N        17.3690   18.6460   56.1500 C.ar      1 NAD850      0.0000 
     38 C3N        16.4930   17.5610   56.2080 C.ar      1 NAD850      0.0000 
     39 C7N        15.5330   17.3700   57.3610 C.2       1 NAD850      0.0000 
     40 O7N        14.5480   16.6700   57.2030 O.2       1 NAD850      0.0000 
     41 N7N        15.7690   17.9570   58.5330 N.am      1 NAD850      0.0000 
     42 C4N        16.5140   16.6300   55.1750 C.ar      1 NAD850      0.0000 
     43 C5N        17.3950   16.8020   54.1100 C.ar      1 NAD850      0.0000 
     44 C6N        18.2480   17.9020   54.1140 C.ar      1 NAD850      0.0000 
     45 H          18.9908   25.7824   59.4319 H         1 NAD850      0.0000 
     46 H          19.5767   24.3343   58.5953 H         1 NAD850      0.0000 
     47 H          21.7633   24.6186   59.6332 H         1 NAD850      0.0000 
     48 H          20.5295   26.0205   61.5680 H         1 NAD850      0.0000 
     49 H          19.9785   27.7315   60.1428 H         1 NAD850      0.0000 
     50 H          22.8165   27.5693   59.2257 H         1 NAD850      0.0000 
     51 H          19.3794   28.5457   57.7867 H         1 NAD850      0.0000 
     52 H          20.6410   32.4409   55.5626 H         1 NAD850      0.0000 
     53 H          22.1751   33.3424   55.3191 H         1 NAD850      0.0000 
     54 H          25.3053   31.0116   57.5741 H         1 NAD850      0.0000 
     55 H          20.6760   20.3580   58.4461 H         1 NAD850      0.0000 
     56 H          21.0305   22.0902   58.3297 H         1 NAD850      0.0000 
     57 H          21.5993   21.2839   56.2413 H         1 NAD850      0.0000 
     58 H          19.4178   22.9240   56.2447 H         1 NAD850      0.0000 
     59 H          17.8405   21.3076   55.9389 H         1 NAD850      0.0000 
     60 H          19.7036   19.8897   54.0729 H         1 NAD850      0.0000 
     61 H          17.3552   19.3335   56.9314 H         1 NAD850      0.0000 
     62 H          15.0879   17.8010   59.2483 H         1 NAD850      0.0000 
     63 H          16.6061   18.5009   58.5921 H         1 NAD850      0.0000 
     64 H          15.8845   15.8208   55.1965 H         1 NAD850      0.0000 
     65 H          17.4145   16.1331   53.3404 H         1 NAD850      0.0000 
     66 H          18.9173   18.0098   53.3218 H         1 NAD850      0.0000 
     67 H          22.8395   26.9969   61.8192 H         1 NAD850      0.0000 
     68 H          22.4988   28.6444   61.2022 H         1 NAD850      0.0000 
     69 H          21.3734   21.9873   54.5709 H         1 NAD850      0.0000 
     70 H          18.8149   22.2306   53.4289 H         1 NAD850      0.0000 
@<TRIPOS>BOND
     1    2    1 ar   
     2    3    1 ar   
     3    4    1 1    
     4   23    1 1    
     5    5    4 1    
     6    6    5 1    
     7   45    5 1    
     8   46    5 1    
     9    7    6 1    
    10    8    6 1    
    11   47    6 1    
    12   12    7 1    
    13    9    8 1    
    14   10    8 1    
    15   48    8 1    
    16   67    9 1    
    17   11   10 1    
    18   12   10 1    
    19   49   10 1    
    20   68   11 1    
    21   13   12 1    
    22   50   12 1    
    23   14   13 1    
    24   22   13 1    
    25   15   14 2    
    26   51   14 1    
    27   16   15 1    
    28   17   16 ar   
    29   22   16 ar   
    30   18   17 1    
    31   19   17 ar   
    32   52   18 1    
    33   53   18 1    
    34   20   19 ar   
    35   21   20 ar   
    36   54   20 1    
    37   22   21 ar   
    38   24   23 1    
    39   25   24 ar   
    40   26   24 ar   
    41   27   24 1    
    42   28   27 1    
    43   29   28 1    
    44   55   28 1    
    45   56   28 1    
    46   30   29 1    
    47   31   29 1    
    48   57   29 1    
    49   35   30 1    
    50   32   31 1    
    51   33   31 1    
    52   58   31 1    
    53   69   32 1    
    54   34   33 1    
    55   35   33 1    
    56   59   33 1    
    57   70   34 1    
    58   36   35 1    
    59   60   35 1    
    60   37   36 ar   
    61   44   36 ar   
    62   38   37 ar   
    63   61   37 1    
    64   39   38 1    
    65   42   38 ar   
    66   40   39 2    
    67   41   39 am   
    68   62   41 1    
    69   63   41 1    
    70   43   42 ar   
    71   64   42 1    
    72   44   43 ar   
    73   65   43 1    
    74   66   44 1    
@<TRIPOS>SUBSTRUCTURE
     1 NAD850      1 GROUP   
@<TRIPOS>SET

