#    Name: 2yir_YIR_1_INTS_M
#    Modification time : Tue Mar 25 09:21:26 2014

@<TRIPOS>MOLECULE
2yir_YIR_1_INTS_M
   77     0    12     0     0
SMALL
NO_CHARGES


@<TRIPOS>ATOM
      1 O          47.2965   10.2390    1.2225 O.2       1 ALC1        0.0000 
      2 O          47.2880   11.6590    1.0070 O.2       9 ALL1        0.0000 
      3 O          47.3050    8.8190    1.4380 O.2       5 ALP1        0.0000 
      4 O          47.3440   10.4460    3.4285 O.2       1 ALC1        0.0000 
      5 O          46.9070   11.7760    3.2980 O.2       9 ALL1        0.0000 
      6 O          47.7810    9.1160    3.5590 O.2       5 ALP1        0.0000 
      7 CA         47.8030   17.3675   -6.4655 C.3       4 GLC5        0.0000 
      8 CA         46.5910   16.7740   -7.8700 C.3      12 GLL5        0.0000 
      9 CA         49.0150   17.9610   -5.0610 C.3       8 GLP5        0.0000 
     10 CA         49.1490   16.5995   -7.4490 C.3       4 GLC5        0.0000 
     11 CA         47.6240   15.6990   -8.0280 C.3      12 GLL5        0.0000 
     12 CA         50.6740   17.5000   -6.8700 C.3       8 GLP5        0.0000 
     13 CA         48.1405   15.9295   -4.9285 C.3       4 GLC5        0.0000 
     14 CA         47.2660   13.8980   -4.7960 C.3      12 GLL5        0.0000 
     15 CA         48.4245   14.9990   -3.3815 C.3       4 GLC5        0.0000 
     16 CA         49.5830   16.1000   -1.9670 C.3       8 GLP5        0.0000 
     17 CA         46.6215   12.9655   -6.6090 C.3       4 GLC5        0.0000 
     18 CA         45.9770   12.0330   -8.4220 C.3       8 GLP5        0.0000 
     19 CA         49.8725   13.7885   -3.7250 C.3       4 GLC5        0.0000 
     20 CA         48.2690   12.9260   -4.6450 C.3      12 GLL5        0.0000 
     21 CA         51.4760   14.6510   -2.8050 C.3       8 GLP5        0.0000 
     22 CA         49.2800   11.8800   -5.9745 C.3       4 GLC5        0.0000 
     23 CA         50.2910   10.8340   -7.3040 C.3       8 GLP5        0.0000 
     24 CA         45.8995   11.2075   -1.6560 C.3       4 GLC5        0.0000 
     25 CA         47.4810   12.4410   -2.4100 C.3      12 GLL5        0.0000 
     26 CA         44.3180    9.9740   -0.9020 C.3       8 GLP5        0.0000 
     27 CA         44.9765   12.3355   -1.6785 C.3       4 GLC5        0.0000 
     28 CA         46.4950   13.4320   -2.5540 C.3      12 GLL5        0.0000 
     29 CA         43.4580   11.2390   -0.8030 C.3       8 GLP5        0.0000 
     30 CA         50.4755   12.8895   -3.0675 C.3       4 GLC5        0.0000 
     31 CA         49.4750   11.1280   -3.3300 C.3      12 GLL5        0.0000 
     32 CA         49.8830   10.9810   -5.3170 C.3       4 GLC5        0.0000 
     33 CA         48.8310    7.9000   -2.0090 C.3       4 GLC5        0.0000 
     34 CA         49.0250    9.9330   -2.4800 C.3      12 GLL5        0.0000 
     35 CA         48.6370    5.8670   -1.5380 C.3       8 GLP5        0.0000 
     36 CA         48.4485    8.5630   -4.0720 C.3       4 GLC5        0.0000 
     37 CA         47.8720    7.1930   -5.6640 C.3       8 GLP5        0.0000 
     38 CA         50.5535    8.4750   -2.9880 C.3       4 GLC5        0.0000 
     39 CA         52.0820    7.0170   -3.4960 C.3       8 GLP5        0.0000 
     40 CA         50.3125   10.8265   -0.3820 C.3       4 GLC5        0.0000 
     41 CA         48.4020   10.3530   -1.1540 C.3      12 GLL5        0.0000 
     42 CA         52.2230   11.3000    0.3900 C.3       8 GLP5        0.0000 
     43 CA         46.3600   10.1635   -1.0280 C.3       4 GLC5        0.0000 
     44 OD1        47.3440   10.4460    3.4285 O.co2     3 ASC3        0.0000 
     45 OD1        46.8260   12.3010    2.0790 O.co2    11 ASL3        0.0000 
     46 OD1        47.7810    9.1160    3.5590 O.co2     7 ASP3        0.0000 
     47 OD1        47.0655   10.5600    1.7585 O.co2     3 ASC3        0.0000 
     48 OD1        47.3050    8.8190    1.4380 O.co2     7 ASP3        0.0000 
     49 OD1        45.3815   11.7465    1.8290 O.co2     3 ASC3        0.0000 
     50 OD1        43.9370   11.1920    1.5790 O.co2     7 ASP3        0.0000 
     51 N          49.6630   14.4800  -12.3000 N.am      2 SEC2        0.0000 
     52 N          49.7960   15.5800  -11.4230 N.am     10 SEL2        0.0000 
     53 N          49.5300   13.3800  -13.1770 N.am      6 SEP2        0.0000 
     54 CA         45.2600   17.6073  -11.0003 C.3       4 GLC5        0.0000 
     55 CA         46.2120   18.6470   -9.6950 C.3      12 GLL5        0.0000 
     56 CA         44.0050   17.1370  -12.5690 C.3       8 GLP5        0.0000 
     57 CA         48.9967   17.3370   -8.1952 C.3       4 GLC5        0.0000 
     58 CA         46.8180   17.5080   -9.1680 C.3      12 GLL5        0.0000 
     59 CA         48.9668   19.4110  -10.6906 C.3       4 GLC5        0.0000 
     60 CA         48.1760   17.3420  -11.1270 C.3      12 GLL5        0.0000 
     61 CA         50.3280   20.7250  -10.1400 C.3       8 GLP5        0.0000 
     62 CA         45.8053   17.6170  -11.9051 C.3       4 GLC5        0.0000 
     63 CA         47.5190   18.5610  -11.7640 C.3      12 GLL5        0.0000 
     64 CA         45.7396   15.1765   -8.4243 C.3       4 GLC5        0.0000 
     65 CA         44.3150   13.9330   -8.5750 C.3       8 GLP5        0.0000 
     66 CA         45.4410   12.7067   -4.6080 C.3       4 GLC5        0.0000 
     67 CA         44.0550   11.3870   -4.9480 C.3       8 GLP5        0.0000 
     68 CA         46.6107   11.3332   -4.5935 C.3       4 GLC5        0.0000 
     69 CA         44.9010   10.1060   -5.1380 C.3       8 GLP5        0.0000 
     70 CA         49.1917   13.6075   -2.3102 C.3       4 GLC5        0.0000 
     71 CA         48.3720   12.1950   -3.4530 C.3      12 GLL5        0.0000 
     72 CA         50.4570   14.8970   -1.6890 C.3       8 GLP5        0.0000 
     73 CA         45.5215   12.1618   -3.7150 C.3       4 GLC5        0.0000 
     74 CA         47.4487   15.0018   -2.0440 C.3       4 GLC5        0.0000 
     75 CA         48.4560   16.2100   -0.9410 C.3       8 GLP5        0.0000 
     76 CA         51.3645   10.3208   -2.5955 C.3       4 GLC5        0.0000 
     77 CA         53.4790   10.1110   -2.2860 C.3       8 GLP5        0.0000 
@<TRIPOS>BOND
@<TRIPOS>SUBSTRUCTURE
     1 ALC1        1 GROUP        1 X    ALC  0     ROOT ALC X 1
     2 SEC2       51 GROUP        1 X    SEC  0     **** SEC X 2
     3 ASC3       44 GROUP        1 X    ASC  0     **** ASC X 3
     4 GLC5        7 GROUP        1 X    GLC  0     **** GLC X 6
     5 ALP1        3 GROUP        1 Y    ALP  0     ROOT ALP Y 8
     6 SEP2       53 GROUP        1 Y    SEP  0     **** SEP Y 9
     7 ASP3       46 GROUP        1 Y    ASP  0     **** ASP Y 10
     8 GLP5        9 GROUP        1 Y    GLP  0     **** GLP Y 13
     9 ALL1        2 GROUP        1 Z    ALL  0     ROOT ALL Z 15
    10 SEL2       52 GROUP        1 Z    SEL  0     **** SEL Z 16
    11 ASL3       45 GROUP        1 Z    ASL  0     **** ASL Z 17
    12 GLL5        8 GROUP        1 Z    GLL  0     **** GLL Z 20
@<TRIPOS>SET

