#    Name: 2yir_YIR_1_ligand
#    Modification time : Tue Mar 25 09:21:26 2014

@<TRIPOS>MOLECULE
2yir_YIR_1_ligand
   50    53     1     0     0
SMALL
NO_CHARGES


@<TRIPOS>ATOM
      1 NAA        49.1170   16.7440  -11.8510 N.pl3     1 YIR600      0.0000 
      2 NAB        48.2680   15.7750   -9.1980 N.pl3     1 YIR600      0.0000 
      3 NAC        47.1390   14.6600   -5.8880 N.am      1 YIR600      0.0000 
      4 NAD        47.1910   12.2110   -0.1030 N.2       1 YIR600      0.0000 
      5 NAE        47.2880   11.6590    1.0070 N.pl3     1 YIR600      0.0000 
      6 NAF        46.2540   13.4850    1.9420 N.pl3     1 YIR600      0.0000 
      7 NAG        46.9070   11.7760    3.2980 N.pl3     1 YIR600      0.0000 
      8 CAH        47.5190   18.5610  -11.7640 C.ar      1 YIR600      0.0000 
      9 CAI        46.5510   19.1430  -10.9470 C.ar      1 YIR600      0.0000 
     10 CAJ        46.2120   18.6470   -9.6950 C.ar      1 YIR600      0.0000 
     11 CAK        46.8180   17.5080   -9.1680 C.ar      1 YIR600      0.0000 
     12 CAL        47.8210   16.8400   -9.8730 C.ar      1 YIR600      0.0000 
     13 CAM        48.1760   17.3420  -11.1270 C.ar      1 YIR600      0.0000 
     14 CAN        46.5910   16.7740   -7.8700 C.2       1 YIR600      0.0000 
     15 CAO        47.6240   15.6990   -8.0280 C.2       1 YIR600      0.0000 
     16 CAP        47.9270   14.6500   -6.9710 C.2       1 YIR600      0.0000 
     17 CAQ        47.2660   13.8980   -4.7960 C.ar      1 YIR600      0.0000 
     18 CAR        48.2690   12.9260   -4.6450 C.ar      1 YIR600      0.0000 
     19 CAS        48.3720   12.1950   -3.4530 C.ar      1 YIR600      0.0000 
     20 CAT        47.4810   12.4410   -2.4100 C.ar      1 YIR600      0.0000 
     21 CAU        46.4950   13.4320   -2.5540 C.ar      1 YIR600      0.0000 
     22 CAV        46.3880   14.1550   -3.7400 C.ar      1 YIR600      0.0000 
     23 CAW        49.4750   11.1280   -3.3300 C.3       1 YIR600      0.0000 
     24 CAX        49.0250    9.9330   -2.4800 C.3       1 YIR600      0.0000 
     25 CAY        48.4020   10.3530   -1.1540 C.3       1 YIR600      0.0000 
     26 CAZ        47.6420   11.6910   -1.2400 C.2       1 YIR600      0.0000 
     27 CBA        46.8260   12.3010    2.0790 C.cat     1 YIR600      0.0000 
     28 OBB        49.7960   15.5800  -11.4230 O.2       1 YIR600      0.0000 
     29 OBC        49.4440   17.2530  -13.1210 O.2       1 YIR600      0.0000 
     30 OBD        48.8920   13.7480   -7.2290 O.2       1 YIR600      0.0000 
     31 H          48.9520   15.1550   -9.5084 H         1 YIR600      0.0000 
     32 H          46.3045   15.3653   -5.8982 H         1 YIR600      0.0000 
     33 H          47.7185   10.7067    1.1411 H         1 YIR600      0.0000 
     34 H          46.1779   13.8314    1.0070 H         1 YIR600      0.0000 
     35 H          45.9494   13.9268    2.7858 H         1 YIR600      0.0000 
     36 H          47.3635   10.8889    3.3656 H         1 YIR600      0.0000 
     37 H          46.5041   12.3157    4.0372 H         1 YIR600      0.0000 
     38 H          47.7893   18.8437  -12.6360 H         1 YIR600      0.0000 
     39 H          46.0540   20.0002  -11.2982 H         1 YIR600      0.0000 
     40 H          45.4861   19.1375   -9.1334 H         1 YIR600      0.0000 
     41 H          46.0470   16.9267   -7.2485 H         1 YIR600      0.0000 
     42 H          48.9287   12.7511   -5.4113 H         1 YIR600      0.0000 
     43 H          45.8502   13.6208   -1.7750 H         1 YIR600      0.0000 
     44 H          45.6648   14.8768   -3.8398 H         1 YIR600      0.0000 
     45 H          50.3574   11.5808   -2.8738 H         1 YIR600      0.0000 
     46 H          49.7425   10.7775   -4.3286 H         1 YIR600      0.0000 
     47 H          49.8923    9.2905   -2.2845 H         1 YIR600      0.0000 
     48 H          48.2961    9.3457   -3.0519 H         1 YIR600      0.0000 
     49 H          49.1899   10.4451   -0.3956 H         1 YIR600      0.0000 
     50 H          47.7052    9.5747   -0.8174 H         1 YIR600      0.0000 
@<TRIPOS>BOND
     1   13    1 1    
     2   28    1 2    
     3   29    1 2    
     4   12    2 1    
     5   15    2 1    
     6   31    2 1    
     7   16    3 am   
     8   17    3 1    
     9   32    3 1    
    10    5    4 1    
    11   26    4 2    
    12   27    5 ar   
    13   33    5 1    
    14   27    6 ar   
    15   34    6 1    
    16   35    6 1    
    17   27    7 ar   
    18   36    7 1    
    19   37    7 1    
    20    9    8 ar   
    21   13    8 ar   
    22   38    8 1    
    23   10    9 ar   
    24   39    9 1    
    25   11   10 ar   
    26   40   10 1    
    27   12   11 ar   
    28   14   11 1    
    29   13   12 ar   
    30   15   14 2    
    31   41   14 1    
    32   16   15 1    
    33   30   16 2    
    34   18   17 ar   
    35   22   17 ar   
    36   19   18 ar   
    37   42   18 1    
    38   20   19 ar   
    39   23   19 1    
    40   21   20 ar   
    41   26   20 1    
    42   22   21 ar   
    43   43   21 1    
    44   44   22 1    
    45   24   23 1    
    46   45   23 1    
    47   46   23 1    
    48   25   24 1    
    49   47   24 1    
    50   48   24 1    
    51   26   25 1    
    52   49   25 1    
    53   50   25 1    
@<TRIPOS>SUBSTRUCTURE
     1 YIR600      1 GROUP   
@<TRIPOS>SET

