#    Name: 2bfm_TOP_2_INTS_M
#    Modification time : Mon Mar 24 20:51:58 2014

@<TRIPOS>MOLECULE
2bfm_TOP_2_INTS_M
   31     0     6     0     0
SMALL
NO_CHARGES


@<TRIPOS>ATOM
      1 CA         26.4835   30.6110   73.7500 C.3       2 GLC5        0.0000 
      2 CA         26.6790   32.7840   74.2980 C.3       6 GLL5        0.0000 
      3 CA         26.2880   28.4380   73.2020 C.3       4 GLP5        0.0000 
      4 O          24.3925   32.4645   74.2260 O.2       1 ALC1        0.0000 
      5 O          25.7460   31.9050   74.7520 O.2       5 ALL1        0.0000 
      6 O          23.0390   33.0240   73.7000 O.2       3 ALP1        0.0000 
      7 CA         30.3225   31.0850   70.9690 C.3       2 GLC5        0.0000 
      8 CA         31.9230   31.1580   70.1590 C.3       6 GLL5        0.0000 
      9 CA         28.7220   31.0120   71.7790 C.3       4 GLP5        0.0000 
     10 CA         30.4075   30.7155   68.7085 C.3       2 GLC5        0.0000 
     11 CA         28.8920   30.2730   67.2580 C.3       4 GLP5        0.0000 
     12 CA         35.7465   33.5605   69.6095 C.3       2 GLC5        0.0000 
     13 CA         34.2110   34.3260   68.5430 C.3       6 GLL5        0.0000 
     14 CA         37.2820   32.7950   70.6760 C.3       4 GLP5        0.0000 
     15 CA         34.2730   36.4410   68.4585 C.3       2 GLC5        0.0000 
     16 CA         34.3350   38.5560   68.3740 C.3       4 GLP5        0.0000 
     17 CA         32.8920   37.0845   68.9985 C.3       2 GLC5        0.0000 
     18 CA         31.4490   35.6130   69.6230 C.3       6 GLL5        0.0000 
     19 CA         29.9520   36.9975   67.7695 C.3       2 GLC5        0.0000 
     20 CA         31.1600   37.7850   68.7200 C.3       6 GLL5        0.0000 
     21 CA         28.7440   36.2100   66.8190 C.3       4 GLP5        0.0000 
     22 CA         32.7475   38.1705   68.5470 C.3       2 GLC5        0.0000 
     23 CA         29.3263   34.8558   69.7395 C.3       2 GLC5        0.0000 
     24 CA         30.4620   35.0870   71.7730 C.3       6 GLL5        0.0000 
     25 CA         28.1020   34.1870   68.2390 C.3       4 GLP5        0.0000 
     26 CA         29.9345   34.5872   68.9310 C.3       2 GLC5        0.0000 
     27 CA         30.3747   37.2541   72.3824 C.3       2 GLC5        0.0000 
     28 CA         30.6390   35.9620   70.7070 C.3       6 GLL5        0.0000 
     29 CA         30.4170   38.8700   73.2390 C.3       4 GLP5        0.0000 
     30 CA         31.9839   35.9468   72.6699 C.3       2 GLC5        0.0000 
     31 CA         33.3670   36.6220   73.9550 C.3       4 GLP5        0.0000 
@<TRIPOS>BOND
@<TRIPOS>SUBSTRUCTURE
     1 ALC1        4 GROUP        1 X    ALC  0     ROOT ALC X 1
     2 GLC5        1 GROUP        1 X    GLC  0     **** GLC X 6
     3 ALP1        6 GROUP        1 Y    ALP  0     ROOT ALP Y 8
     4 GLP5        3 GROUP        1 Y    GLP  0     **** GLP Y 13
     5 ALL1        5 GROUP        1 Z    ALL  0     ROOT ALL Z 15
     6 GLL5        2 GROUP        1 Z    GLL  0     **** GLL Z 20
@<TRIPOS>SET

