#    Name: 2bfm_TOP_2_ligand
#    Modification time : Mon Mar 24 20:51:58 2014

@<TRIPOS>MOLECULE
2bfm_TOP_2_ligand
   39    40     1     0     0
SMALL
NO_CHARGES


@<TRIPOS>ATOM
      1 C1         27.2630   34.5930   72.8890 C.ar      1 TOP1290     0.0000 
      2 N2         26.3580   33.7080   73.3450 N.ar      1 TOP1290     0.0000 
      3 C3         26.6790   32.7840   74.2980 C.ar      1 TOP1290     0.0000 
      4 N4         25.7460   31.9050   74.7520 N.pl3     1 TOP1290     0.0000 
      5 N5         27.9380   32.7390   74.8050 N.ar      1 TOP1290     0.0000 
      6 C6         28.8810   33.6100   74.3690 C.ar      1 TOP1290     0.0000 
      7 N7         30.1360   33.5540   74.8850 N.pl3     1 TOP1290     0.0000 
      8 C8         28.5590   34.5490   73.3960 C.ar      1 TOP1290     0.0000 
      9 C9         29.5900   35.5420   72.9160 C.3       1 TOP1290     0.0000 
     10 C10        30.4620   35.0870   71.7730 C.ar      1 TOP1290     0.0000 
     11 C11        31.0990   33.8480   71.7810 C.ar      1 TOP1290     0.0000 
     12 C12        31.9000   33.4720   70.7020 C.ar      1 TOP1290     0.0000 
     13 O13        32.4670   32.3440   70.7440 O.3       1 TOP1290     0.0000 
     14 C14        31.9230   31.1580   70.1590 C.3       1 TOP1290     0.0000 
     15 C15        32.0850   34.3620   69.6230 C.ar      1 TOP1290     0.0000 
     16 O16        32.8070   34.0320   68.6340 O.3       1 TOP1290     0.0000 
     17 C17        34.2110   34.3260   68.5430 C.3       1 TOP1290     0.0000 
     18 C18        31.4490   35.6130   69.6230 C.ar      1 TOP1290     0.0000 
     19 O19        31.6030   36.4190   68.6610 O.3       1 TOP1290     0.0000 
     20 C20        31.1600   37.7850   68.7200 C.3       1 TOP1290     0.0000 
     21 C21        30.6390   35.9620   70.7070 C.ar      1 TOP1290     0.0000 
     22 H          27.0235   35.2970   72.1798 H         1 TOP1290     0.0000 
     23 H          24.7937   32.2044   74.6926 H         1 TOP1290     0.0000 
     24 H          26.0945   31.0368   75.1052 H         1 TOP1290     0.0000 
     25 H          30.3005   32.8400   75.5656 H         1 TOP1290     0.0000 
     26 H          30.7847   34.2317   74.5388 H         1 TOP1290     0.0000 
     27 H          30.2420   35.8257   73.7753 H         1 TOP1290     0.0000 
     28 H          29.0705   36.4834   72.6198 H         1 TOP1290     0.0000 
     29 H          30.9801   33.2128   72.5778 H         1 TOP1290     0.0000 
     30 H          30.1680   36.8807   70.7134 H         1 TOP1290     0.0000 
     31 H          31.7903   31.2575   69.1729 H         1 TOP1290     0.0000 
     32 H          32.5210   30.3683   70.2961 H         1 TOP1290     0.0000 
     33 H          31.0338   30.9241   70.5523 H         1 TOP1290     0.0000 
     34 H          34.7270   33.9091   69.2913 H         1 TOP1290     0.0000 
     35 H          34.6069   33.9871   67.6895 H         1 TOP1290     0.0000 
     36 H          34.3875   35.3097   68.5776 H         1 TOP1290     0.0000 
     37 H          31.6009   38.2866   69.4643 H         1 TOP1290     0.0000 
     38 H          31.3626   38.2780   67.8739 H         1 TOP1290     0.0000 
     39 H          30.1730   37.8493   68.8675 H         1 TOP1290     0.0000 
@<TRIPOS>BOND
     1    2    1 ar   
     2    8    1 ar   
     3   22    1 1    
     4    3    2 ar   
     5    4    3 1    
     6    5    3 ar   
     7   23    4 1    
     8   24    4 1    
     9    6    5 ar   
    10    7    6 1    
    11    8    6 ar   
    12   25    7 1    
    13   26    7 1    
    14    9    8 1    
    15   10    9 1    
    16   27    9 1    
    17   28    9 1    
    18   11   10 ar   
    19   21   10 ar   
    20   12   11 ar   
    21   29   11 1    
    22   13   12 1    
    23   15   12 ar   
    24   14   13 1    
    25   31   14 1    
    26   32   14 1    
    27   33   14 1    
    28   16   15 1    
    29   18   15 ar   
    30   17   16 1    
    31   34   17 1    
    32   35   17 1    
    33   36   17 1    
    34   19   18 1    
    35   21   18 ar   
    36   20   19 1    
    37   37   20 1    
    38   38   20 1    
    39   39   20 1    
    40   30   21 1    
@<TRIPOS>SUBSTRUCTURE
     1 TOP1290     1 GROUP   
@<TRIPOS>SET

