#    Name: 3ohh_3HH_2_INTS_M
#    Modification time : Tue Mar 25 04:38:18 2014

@<TRIPOS>MOLECULE
3ohh_3HH_2_INTS_M
   97     0    12     0     0
SMALL
NO_CHARGES


@<TRIPOS>ATOM
      1 CA         56.5210   17.1830    1.1090 C.3       4 GLC5        0.0000 
      2 CA         56.0150   18.9310    0.5690 C.3      12 GLL5        0.0000 
      3 CA         57.0270   15.4350    1.6490 C.3       8 GLP5        0.0000 
      4 CA         54.5060   18.1850    0.1295 C.3       4 GLC5        0.0000 
      5 CA         52.9970   17.4390   -0.3100 C.3       8 GLP5        0.0000 
      6 CA         57.2300   18.5035   -0.4000 C.3       4 GLC5        0.0000 
      7 CA         58.4450   18.0760   -1.3690 C.3       8 GLP5        0.0000 
      8 CA         56.2450   22.7440    6.6110 C.3       4 GLC5        0.0000 
      9 CA         55.3720   21.9820    5.0450 C.3      12 GLL5        0.0000 
     10 CA         57.1180   23.5060    8.1770 C.3       8 GLP5        0.0000 
     11 CA         58.1200   24.1385    0.5870 C.3       4 GLC5        0.0000 
     12 CA         58.6900   22.6550    1.4910 C.3      12 GLL5        0.0000 
     13 CA         57.5500   25.6220   -0.3170 C.3       8 GLP5        0.0000 
     14 CA         59.8000   23.1665    0.4110 C.3       4 GLC5        0.0000 
     15 CA         60.9100   23.6780   -0.6690 C.3       8 GLP5        0.0000 
     16 CA         49.9170   18.4480    7.0795 C.3       4 GLC5        0.0000 
     17 CA         50.1430   20.2670    7.1660 C.3      12 GLL5        0.0000 
     18 CA         49.6910   16.6290    6.9930 C.3       8 GLP5        0.0000 
     19 CA         61.3380   24.6995    3.9685 C.3       4 GLC5        0.0000 
     20 CA         59.5250   25.1760    4.8840 C.3      12 GLL5        0.0000 
     21 CA         63.1510   24.2230    3.0530 C.3       8 GLP5        0.0000 
     22 CA         60.0000   23.6080    5.9935 C.3       4 GLC5        0.0000 
     23 CA         60.4750   22.0400    7.1030 C.3       8 GLP5        0.0000 
     24 CA         56.4405   24.7350    1.0400 C.3       4 GLC5        0.0000 
     25 CA         55.3310   23.8480    2.3970 C.3      12 GLL5        0.0000 
     26 CA         58.2955   27.5060    2.5505 C.3       4 GLC5        0.0000 
     27 CA         57.5090   25.8990    3.5040 C.3      12 GLL5        0.0000 
     28 CA         59.0820   29.1130    1.5970 C.3       8 GLP5        0.0000 
     29 CA         57.1300   26.3750    6.7055 C.3       4 GLC5        0.0000 
     30 CA         58.0420   25.5380    4.8960 C.3      12 GLL5        0.0000 
     31 CA         56.2180   27.2120    8.5150 C.3       8 GLP5        0.0000 
     32 N          55.3815   25.4085    6.8770 N.am      2 SEC2        0.0000 
     33 N          54.4610   25.0170    5.6470 N.am     10 SEL2        0.0000 
     34 N          56.3020   25.8000    8.1070 N.am      6 SEP2        0.0000 
     35 O          57.5570   20.8225    5.9160 O.2       1 ALC1        0.0000 
     36 O          56.8010   19.5870    5.7610 O.2       9 ALL1        0.0000 
     37 O          58.3130   22.0580    6.0710 O.2       5 ALP1        0.0000 
     38 CA         59.7475   17.5380    8.5675 C.3       4 GLC5        0.0000 
     39 CA         58.3090   17.9790    6.9270 C.3      12 GLL5        0.0000 
     40 CA         61.1860   17.0970   10.2080 C.3       8 GLP5        0.0000 
     41 OD1        58.6335   18.4330    9.4060 O.co2     3 ASC3        0.0000 
     42 OD1        57.5950   16.7760    9.0180 O.co2    11 ASL3        0.0000 
     43 OD1        59.6720   20.0900    9.7940 O.co2     7 ASP3        0.0000 
     44 OD1        57.7525   17.8935    9.7605 O.co2     3 ASC3        0.0000 
     45 OD1        57.9100   19.0110   10.5030 O.co2     7 ASP3        0.0000 
     46 CA         57.4265   14.3290   10.6195 C.3       4 GLC5        0.0000 
     47 CA         56.6940   15.6940    9.5330 C.3      12 GLL5        0.0000 
     48 CA         58.1590   12.9640   11.7060 C.3       8 GLP5        0.0000 
     49 CA         57.1750   16.2810   11.5020 C.3       4 GLC5        0.0000 
     50 CA         57.6560   16.8680   13.4710 C.3       8 GLP5        0.0000 
     51 CA         59.6815   20.4770    5.8545 C.3       4 GLC5        0.0000 
     52 CA         58.8880   18.9140    4.6060 C.3      12 GLL5        0.0000 
     53 CA         56.3415   17.2600    2.9935 C.3       4 GLC5        0.0000 
     54 CA         57.3920   18.9110    2.5100 C.3      12 GLL5        0.0000 
     55 CA         55.2910   15.6090    3.4770 C.3       8 GLP5        0.0000 
     56 O          60.5105   18.0515    7.1425 O.2       1 ALC1        0.0000 
     57 O          59.2590   16.9360    6.6680 O.2       9 ALL1        0.0000 
     58 O          61.7620   19.1670    7.6170 O.2       5 ALP1        0.0000 
     59 O          60.4520   17.3465    6.3125 O.2       1 ALC1        0.0000 
     60 O          61.6450   17.7570    5.9570 O.2       5 ALP1        0.0000 
     61 CA         59.4985   14.1740    7.2085 C.3       4 GLC5        0.0000 
     62 CA         57.4810   13.8660    8.0050 C.3      12 GLL5        0.0000 
     63 CA         61.5160   14.4820    6.4120 C.3       8 GLP5        0.0000 
     64 CA         60.0085   13.1735    5.8560 C.3       4 GLC5        0.0000 
     65 CA         58.5010   11.8650    5.3000 C.3      12 GLL5        0.0000 
     66 CA         58.6060   11.7120    3.5435 C.3       4 GLC5        0.0000 
     67 CA         58.7110   11.5590    1.7870 C.3       8 GLP5        0.0000 
     68 CA         58.1305   13.5240    4.6050 C.3       4 GLC5        0.0000 
     69 CA         57.7600   15.1830    3.9100 C.3       8 GLP5        0.0000 
     70 CA         51.4790   18.7058    6.4987 C.3       4 GLC5        0.0000 
     71 CA         52.4290   20.4140    6.3860 C.3      12 GLL5        0.0000 
     72 CA         51.1410   16.6770    6.4910 C.3       8 GLP5        0.0000 
     73 CA         54.3386   21.8205    7.3230 C.3       4 GLC5        0.0000 
     74 CA         54.8020   20.8180    5.5140 C.3      12 GLL5        0.0000 
     75 CA         54.7970   22.8380    8.8280 C.3       8 GLP5        0.0000 
     76 CA         53.7245   22.8385    7.2745 C.3       4 GLC5        0.0000 
     77 CA         53.2630   22.5240    5.5940 C.3      12 GLL5        0.0000 
     78 CA         49.7295   20.1435    5.1662 C.3       4 GLC5        0.0000 
     79 CA         51.2050   21.0550    6.6270 C.3      12 GLL5        0.0000 
     80 CA         48.7850   19.6260    3.4360 C.3       8 GLP5        0.0000 
     81 CA         60.3197   26.3730    4.2290 C.3       4 GLC5        0.0000 
     82 CA         61.8560   27.3890    3.5680 C.3       8 GLP5        0.0000 
     83 CA         57.9507   24.4315    6.5335 C.3       4 GLC5        0.0000 
     84 CA         57.1455   25.7795    1.5897 C.3       4 GLC5        0.0000 
     85 CA         58.1115   16.8785    4.6695 C.3       4 GLC5        0.0000 
     86 CA         57.7670   18.4890    5.5770 C.3      12 GLL5        0.0000 
     87 CA         60.3536   21.7170    2.4609 C.3       4 GLC5        0.0000 
     88 CA         58.7760   20.8160    3.0020 C.3      12 GLL5        0.0000 
     89 CA         62.0760   22.0040    2.5870 C.3       8 GLP5        0.0000 
     90 CA         60.3494   19.1376    3.0187 C.3       4 GLC5        0.0000 
     91 CA         62.0060   18.2540    2.5500 C.3       8 GLP5        0.0000 
     92 CA         56.7000   19.9315   -0.9427 C.3       4 GLC5        0.0000 
     93 CA         56.9110   19.5340    1.3600 C.3      12 GLL5        0.0000 
     94 CA         56.2690   19.6940   -3.0730 C.3       8 GLP5        0.0000 
     95 CA         54.9155   13.6223    5.3295 C.3       4 GLC5        0.0000 
     96 CA         55.9010   12.5660    6.7100 C.3      12 GLL5        0.0000 
     97 CA         54.4780   14.3260    3.6900 C.3       8 GLP5        0.0000 
@<TRIPOS>BOND
@<TRIPOS>SUBSTRUCTURE
     1 ALC1       35 GROUP        1 X    ALC  0     ROOT ALC X 1
     2 SEC2       32 GROUP        1 X    SEC  0     **** SEC X 2
     3 ASC3       41 GROUP        1 X    ASC  0     **** ASC X 3
     4 GLC5        1 GROUP        1 X    GLC  0     **** GLC X 6
     5 ALP1       37 GROUP        1 Y    ALP  0     ROOT ALP Y 8
     6 SEP2       34 GROUP        1 Y    SEP  0     **** SEP Y 9
     7 ASP3       43 GROUP        1 Y    ASP  0     **** ASP Y 10
     8 GLP5        3 GROUP        1 Y    GLP  0     **** GLP Y 13
     9 ALL1       36 GROUP        1 Z    ALL  0     ROOT ALL Z 15
    10 SEL2       33 GROUP        1 Z    SEL  0     **** SEL Z 16
    11 ASL3       42 GROUP        1 Z    ASL  0     **** ASL Z 17
    12 GLL5        2 GROUP        1 Z    GLL  0     **** GLL Z 20
@<TRIPOS>SET

