#    Name: 3ohh_3HH_2_ligand
#    Modification time : Tue Mar 25 04:38:18 2014

@<TRIPOS>MOLECULE
3ohh_3HH_2_ligand
   81    84     1     0     0
SMALL
NO_CHARGES


@<TRIPOS>ATOM
      1 C1         52.4290   20.4140    6.3860 C.ar      1 3HH394      0.0000 
      2 F1         56.0150   18.9310    0.5690 F         1 3HH394      0.0000 
      3 N1         54.4470   22.9600    5.0930 N.am      1 3HH394      0.0000 
      4 C2         55.3720   21.9820    5.0450 C.2       1 3HH394      0.0000 
      5 F2         58.6900   22.6550    1.4910 F         1 3HH394      0.0000 
      6 N2         49.3140   19.7500    7.7590 N.1       1 3HH394      0.0000 
      7 C3         54.8020   20.8180    5.5140 C.2       1 3HH394      0.0000 
      8 C4         53.4880   21.1620    5.8580 C.ar      1 3HH394      0.0000 
      9 C5         52.0410   23.1540    5.8480 C.ar      1 3HH394      0.0000 
     10 C6         53.2630   22.5240    5.5940 C.ar      1 3HH394      0.0000 
     11 C7         50.1430   20.2670    7.1660 C.1       1 3HH394      0.0000 
     12 C8         59.5250   25.1760    4.8840 C.3       1 3HH394      0.0000 
     13 C9         50.9960   22.4030    6.3730 C.ar      1 3HH394      0.0000 
     14 C10        51.2050   21.0550    6.6270 C.ar      1 3HH394      0.0000 
     15 C11        54.7280   24.2290    4.7430 C.2       1 3HH394      0.0000 
     16 N12        55.3090   24.6670    3.6140 N.am      1 3HH394      0.0000 
     17 C13        55.3310   23.8480    2.3970 C.3       1 3HH394      0.0000 
     18 C14        55.9730   25.9750    3.4890 C.3       1 3HH394      0.0000 
     19 C15        57.5090   25.8990    3.5040 C.3       1 3HH394      0.0000 
     20 C18        58.0420   25.5380    4.8960 C.3       1 3HH394      0.0000 
     21 O33        54.4610   25.0170    5.6470 O.2       1 3HH394      0.0000 
     22 C34        55.5180   19.5170    5.5930 C.2       1 3HH394      0.0000 
     23 N35        56.8010   19.5870    5.7610 N.am      1 3HH394      0.0000 
     24 C36        57.7670   18.4890    5.5770 C.3       1 3HH394      0.0000 
     25 C37        58.3090   17.9790    6.9270 C.3       1 3HH394      0.0000 
     26 C38        57.1470   17.4420    7.7680 C.3       1 3HH394      0.0000 
     27 N39        57.5950   16.7760    9.0180 N.4       1 3HH394      0.0000 
     28 C42        56.6940   15.6940    9.5330 C.3       1 3HH394      0.0000 
     29 C43        56.4110   14.5800    8.5370 C.ar      1 3HH394      0.0000 
     30 O46        54.8230   18.3950    5.4840 O.2       1 3HH394      0.0000 
     31 C48        58.8880   18.9140    4.6060 C.3       1 3HH394      0.0000 
     32 C50        58.3310   19.5390    3.3400 C.ar      1 3HH394      0.0000 
     33 C53        58.7760   20.8160    3.0020 C.ar      1 3HH394      0.0000 
     34 C54        58.2830   21.4330    1.8440 C.ar      1 3HH394      0.0000 
     35 C55        57.3510   20.8040    1.0150 C.ar      1 3HH394      0.0000 
     36 C56        56.9110   19.5340    1.3600 C.ar      1 3HH394      0.0000 
     37 C57        57.3920   18.9110    2.5100 C.ar      1 3HH394      0.0000 
     38 O63        59.2590   16.9360    6.6680 O.3       1 3HH394      0.0000 
     39 C67        57.4810   13.8660    8.0050 C.ar      1 3HH394      0.0000 
     40 C68        57.2160   12.8530    7.0810 C.ar      1 3HH394      0.0000 
     41 C69        55.9010   12.5660    6.7100 C.ar      1 3HH394      0.0000 
     42 C70        54.8050   13.2710    7.2280 C.ar      1 3HH394      0.0000 
     43 C71        55.0950   14.2840    8.1510 C.ar      1 3HH394      0.0000 
     44 O76        58.3500   12.2800    6.6780 O.3       1 3HH394      0.0000 
     45 C77        58.5010   11.8650    5.3000 C.3       1 3HH394      0.0000 
     46 H          52.5436   19.4257    6.5911 H         1 3HH394      0.0000 
     47 H          56.2794   22.0635    4.7390 H         1 3HH394      0.0000 
     48 H          51.9224   24.1466    5.6504 H         1 3HH394      0.0000 
     49 H          50.0929   22.8356    6.5676 H         1 3HH394      0.0000 
     50 H          55.6596   26.6468    4.3118 H         1 3HH394      0.0000 
     51 H          55.6683   26.4739    2.5483 H         1 3HH394      0.0000 
     52 H          57.9158   26.8647    3.2035 H         1 3HH394      0.0000 
     53 H          57.8347   25.1440    2.7883 H         1 3HH394      0.0000 
     54 H          57.8844   26.3895    5.5685 H         1 3HH394      0.0000 
     55 H          57.4673   24.6903    5.2876 H         1 3HH394      0.0000 
     56 H          57.2736   20.5070    6.0642 H         1 3HH394      0.0000 
     57 H          57.2401   17.6387    5.0992 H         1 3HH394      0.0000 
     58 H          58.7542   18.8047    7.4389 H         1 3HH394      0.0000 
     59 H          56.5699   16.7358    7.1487 H         1 3HH394      0.0000 
     60 H          56.4759   18.2833    8.0069 H         1 3HH394      0.0000 
     61 H          55.7284   16.1382    9.8489 H         1 3HH394      0.0000 
     62 H          57.1393   15.2470   10.4448 H         1 3HH394      0.0000 
     63 H          59.4812   18.0329    4.3502 H         1 3HH394      0.0000 
     64 H          59.5373   19.6307    5.1143 H         1 3HH394      0.0000 
     65 H          59.4557   21.3011    3.5910 H         1 3HH394      0.0000 
     66 H          57.0058   21.2694    0.1795 H         1 3HH394      0.0000 
     67 H          57.0514   17.9659    2.7593 H         1 3HH394      0.0000 
     68 H          58.4371   14.0762    8.2823 H         1 3HH394      0.0000 
     69 H          55.7250   11.8016    6.0243 H         1 3HH394      0.0000 
     70 H          53.8671   13.0613    6.9528 H         1 3HH394      0.0000 
     71 H          54.3149   14.8317    8.5615 H         1 3HH394      0.0000 
     72 H          60.0886   25.9300    4.5465 H         1 3HH394      0.0000 
     73 H          59.8588   24.9470    5.7984 H         1 3HH394      0.0000 
     74 H          59.7099   24.3869    4.2983 H         1 3HH394      0.0000 
     75 H          55.7979   24.3130    1.6448 H         1 3HH394      0.0000 
     76 H          55.8036   22.9789    2.5427 H         1 3HH394      0.0000 
     77 H          54.4082   23.6301    2.0792 H         1 3HH394      0.0000 
     78 H          59.3976   11.4553    5.1316 H         1 3HH394      0.0000 
     79 H          57.8148   11.1859    5.0393 H         1 3HH394      0.0000 
     80 H          58.4069   12.6343    4.6680 H         1 3HH394      0.0000 
     81 H          60.1049   17.4110    6.4253 H         1 3HH394      0.0000 
@<TRIPOS>BOND
     1    8    1 ar   
     2   14    1 ar   
     3   46    1 1    
     4   36    2 1    
     5    4    3 1    
     6   10    3 1    
     7   15    3 am   
     8    7    4 2    
     9   47    4 1    
    10   34    5 1    
    11   11    6 3    
    12    8    7 1    
    13   22    7 1    
    14   10    8 ar   
    15   10    9 ar   
    16   13    9 ar   
    17   48    9 1    
    18   14   11 1    
    19   20   12 1    
    20   72   12 1    
    21   73   12 1    
    22   74   12 1    
    23   14   13 ar   
    24   49   13 1    
    25   16   15 am   
    26   21   15 2    
    27   17   16 1    
    28   18   16 1    
    29   75   17 1    
    30   76   17 1    
    31   77   17 1    
    32   19   18 1    
    33   50   18 1    
    34   51   18 1    
    35   20   19 1    
    36   52   19 1    
    37   53   19 1    
    38   54   20 1    
    39   55   20 1    
    40   23   22 am   
    41   30   22 2    
    42   24   23 1    
    43   56   23 1    
    44   25   24 1    
    45   31   24 1    
    46   57   24 1    
    47   26   25 1    
    48   38   25 1    
    49   58   25 1    
    50   27   26 1    
    51   59   26 1    
    52   60   26 1    
    53   28   27 1    
    54   29   28 1    
    55   61   28 1    
    56   62   28 1    
    57   39   29 ar   
    58   43   29 ar   
    59   32   31 1    
    60   63   31 1    
    61   64   31 1    
    62   33   32 ar   
    63   37   32 ar   
    64   34   33 ar   
    65   65   33 1    
    66   35   34 ar   
    67   36   35 ar   
    68   66   35 1    
    69   37   36 ar   
    70   67   37 1    
    71   81   38 1    
    72   40   39 ar   
    73   68   39 1    
    74   41   40 ar   
    75   44   40 1    
    76   42   41 ar   
    77   69   41 1    
    78   43   42 ar   
    79   70   42 1    
    80   71   43 1    
    81   45   44 1    
    82   78   45 1    
    83   79   45 1    
    84   80   45 1    
@<TRIPOS>SUBSTRUCTURE
     1 3HH394      1 GROUP   
@<TRIPOS>SET

