#    Name: 4an2_EUI_1_INTS_M
#    Modification time : Tue Mar 25 05:48:00 2014

@<TRIPOS>MOLECULE
4an2_EUI_1_INTS_M
   82     0    12     0     0
SMALL
NO_CHARGES


@<TRIPOS>ATOM
      1 N         -31.3305   13.8840   -7.1960 N.am      2 SEC2        0.0000 
      2 N         -31.1580   12.8710   -6.2920 N.am     10 SEL2        0.0000 
      3 N         -31.5030   14.8970   -8.1000 N.am      6 SEP2        0.0000 
      4 CA        -28.9205   10.3730   -4.7885 C.3       4 GLC5        0.0000 
      5 CA        -30.2890   11.0380   -3.3310 C.3      12 GLL5        0.0000 
      6 CA        -27.5520    9.7080   -6.2460 C.3       8 GLP5        0.0000 
      7 CA        -29.8495    9.2170   -0.6690 C.3       4 GLC5        0.0000 
      8 CA        -30.7470   10.0440   -2.4520 C.3      12 GLL5        0.0000 
      9 CA        -28.9520    8.3900    1.1140 C.3       8 GLP5        0.0000 
     10 CA        -34.4130    7.9665   -2.9250 C.3       4 GLC5        0.0000 
     11 CA        -32.7780    8.8720   -1.7900 C.3      12 GLL5        0.0000 
     12 CA        -36.0480    7.0610   -4.0600 C.3       8 GLP5        0.0000 
     13 CA        -33.1070    7.1000   -1.5075 C.3       4 GLC5        0.0000 
     14 CA        -33.4360    5.3280   -1.2250 C.3       8 GLP5        0.0000 
     15 CA        -35.1450    8.5500   -3.6995 C.3       4 GLC5        0.0000 
     16 CA        -34.2420   10.0390   -3.3390 C.3      12 GLL5        0.0000 
     17 CA        -34.8460   11.0330   -6.0565 C.3       4 GLC5        0.0000 
     18 CA        -34.8100   12.4390   -4.7530 C.3      12 GLL5        0.0000 
     19 CA        -34.8820    9.6270   -7.3600 C.3       8 GLP5        0.0000 
     20 CA        -33.5475   13.3350   -7.8430 C.3       4 GLC5        0.0000 
     21 CA        -35.1060   13.0620   -7.0100 C.3      12 GLL5        0.0000 
     22 CA        -31.9890   13.6080   -8.6760 C.3       8 GLP5        0.0000 
     23 CA        -34.9940   11.3445   -7.1850 C.3       4 GLC5        0.0000 
     24 CA        -35.9880   14.1990   -8.2000 C.3       4 GLC5        0.0000 
     25 CA        -36.8700   15.3360   -9.3900 C.3       8 GLP5        0.0000 
     26 CA        -30.5275   14.0735   -7.2020 C.3       4 GLC5        0.0000 
     27 CA        -29.0660   14.5390   -5.7280 C.3      12 GLL5        0.0000 
     28 N         -29.1625   17.4445   -3.2535 N.am      2 SEC2        0.0000 
     29 N         -28.5980   16.1420   -4.0240 N.am     10 SEL2        0.0000 
     30 N         -29.7270   18.7470   -2.4830 N.am      6 SEP2        0.0000 
     31 O         -27.7015   16.9495   -3.0815 O.2       1 ALC1        0.0000 
     32 O         -28.5980   16.1420   -4.0240 O.2       9 ALL1        0.0000 
     33 O         -26.8050   17.7570   -2.1390 O.2       5 ALP1        0.0000 
     34 CA        -26.8705   11.5045   -5.5155 C.3       4 GLC5        0.0000 
     35 CA        -26.1890   13.3010   -4.7850 C.3      12 GLL5        0.0000 
     36 CA        -25.2530   11.2410   -5.2645 C.3       4 GLC5        0.0000 
     37 CA        -24.6570   13.3010   -4.6250 C.3      12 GLL5        0.0000 
     38 CA        -25.8490    9.1810   -5.9040 C.3       8 GLP5        0.0000 
     39 CA        -22.7125   12.6060   -5.0885 C.3       4 GLC5        0.0000 
     40 CA        -20.7680   11.9110   -5.5520 C.3       8 GLP5        0.0000 
     41 OD1       -26.5260   16.5800   -2.7655 O.co2     3 ASC3        0.0000 
     42 OD1       -26.2470   15.4030   -3.3920 O.co2    11 ASL3        0.0000 
     43 OD1       -26.8050   17.7570   -2.1390 O.co2     7 ASP3        0.0000 
     44 OD1       -26.2080   16.3810   -4.6175 O.co2     3 ASC3        0.0000 
     45 OD1       -26.1690   17.3590   -5.8430 O.co2     7 ASP3        0.0000 
     46 CA        -32.6870   13.4507   -3.7593 C.3       4 GLC5        0.0000 
     47 CA        -31.1960   11.7010   -4.2240 C.3      12 GLL5        0.0000 
     48 CA        -33.4970   15.3850   -3.2750 C.3       8 GLP5        0.0000 
     49 CA        -32.1932   10.1394   -0.2761 C.3       4 GLC5        0.0000 
     50 CA        -32.2810   10.8970    1.5840 C.3       8 GLP5        0.0000 
     51 CA        -31.9348    8.4204   -3.5401 C.3       4 GLC5        0.0000 
     52 CA        -31.7640    7.4590   -4.9440 C.3       8 GLP5        0.0000 
     53 CA        -32.6870    8.8280   -4.1545 C.3       4 GLC5        0.0000 
     54 CA        -33.9830   10.1958   -5.5870 C.3       4 GLC5        0.0000 
     55 CA        -32.9780   10.3550   -3.3910 C.3      12 GLL5        0.0000 
     56 CA        -31.7071    9.4049   -4.4821 C.3       4 GLC5        0.0000 
     57 CA        -32.5580   11.3320   -4.2630 C.3      12 GLL5        0.0000 
     58 CA        -34.2840   13.9080   -3.6845 C.3       4 GLC5        0.0000 
     59 CA        -36.0493   10.9415   -2.0468 C.3       4 GLC5        0.0000 
     60 CA        -36.6090   12.9830   -3.1520 C.3      12 GLL5        0.0000 
     61 CA        -36.1280    9.1800   -0.8000 C.3       8 GLP5        0.0000 
     62 CA        -35.2375   14.3325   -3.4700 C.3       4 GLC5        0.0000 
     63 CA        -37.7779   11.5150   -3.6169 C.3       4 GLC5        0.0000 
     64 CA        -35.3320   12.4230   -3.4350 C.3      12 GLL5        0.0000 
     65 CA        -38.8970    9.8900   -3.4980 C.3       8 GLP5        0.0000 
     66 CA        -36.9070   11.9772   -6.7020 C.3       4 GLC5        0.0000 
     67 CA        -36.8320   13.5950   -5.4590 C.3      12 GLL5        0.0000 
     68 CA        -37.6130   10.6390   -7.7970 C.3       8 GLP5        0.0000 
     69 CA        -37.0980   14.5693   -6.8450 C.3       4 GLC5        0.0000 
     70 CA        -35.5700   13.0360   -5.7550 C.3      12 GLL5        0.0000 
     71 CA        -37.9950   15.8230   -8.0830 C.3       8 GLP5        0.0000 
     72 CA        -34.8490   14.3502   -4.4410 C.3       4 GLC5        0.0000 
     73 CA        -30.5623   15.2417   -4.4199 C.3       4 GLC5        0.0000 
     74 CA        -28.9250   13.6760   -3.5900 C.3      12 GLL5        0.0000 
     75 CA        -32.3040   16.0890   -3.9700 C.3       8 GLP5        0.0000 
     76 CA        -24.6720   14.5519   -6.2026 C.3       4 GLC5        0.0000 
     77 CA        -23.7900   15.4380   -7.7390 C.3       8 GLP5        0.0000 
     78 CA        -22.6403   14.8895   -3.3380 C.3       4 GLC5        0.0000 
     79 CA        -24.2860   13.7990   -3.2030 C.3      12 GLL5        0.0000 
     80 CA        -20.7290   15.2570   -3.5490 C.3       8 GLP5        0.0000 
     81 CA        -34.5786    9.4656   -1.7791 C.3       4 GLC5        0.0000 
     82 CA        -32.1190    9.7390   -2.5130 C.3      12 GLL5        0.0000 
@<TRIPOS>BOND
@<TRIPOS>SUBSTRUCTURE
     1 ALC1       31 GROUP        1 X    ALC  0     ROOT ALC X 1
     2 SEC2        1 GROUP        1 X    SEC  0     **** SEC X 2
     3 ASC3       41 GROUP        1 X    ASC  0     **** ASC X 3
     4 GLC5        4 GROUP        1 X    GLC  0     **** GLC X 6
     5 ALP1       33 GROUP        1 Y    ALP  0     ROOT ALP Y 8
     6 SEP2        3 GROUP        1 Y    SEP  0     **** SEP Y 9
     7 ASP3       43 GROUP        1 Y    ASP  0     **** ASP Y 10
     8 GLP5        6 GROUP        1 Y    GLP  0     **** GLP Y 13
     9 ALL1       32 GROUP        1 Z    ALL  0     ROOT ALL Z 15
    10 SEL2        2 GROUP        1 Z    SEL  0     **** SEL Z 16
    11 ASL3       42 GROUP        1 Z    ASL  0     **** ASL Z 17
    12 GLL5        5 GROUP        1 Z    GLL  0     **** GLL Z 20
@<TRIPOS>SET

