#    Name: 4an2_EUI_1_ligand
#    Modification time : Tue Mar 25 05:48:00 2014

@<TRIPOS>MOLECULE
4an2_EUI_1_ligand
   50    53     1     0     0
SMALL
NO_CHARGES


@<TRIPOS>ATOM
      1 O20       -31.1580   12.8710   -6.2920 O.2       1 EUI1382     0.0000 
      2 C18       -30.6740   12.7290   -5.1760 C.2       1 EUI1382     0.0000 
      3 C15       -31.1960   11.7010   -4.2240 C.ar      1 EUI1382     0.0000 
      4 C14       -30.2890   11.0380   -3.3310 C.ar      1 EUI1382     0.0000 
      5 C13       -30.7470   10.0440   -2.4520 C.ar      1 EUI1382     0.0000 
      6 C12       -32.1190    9.7390   -2.5130 C.ar      1 EUI1382     0.0000 
      7 F17       -32.7780    8.8720   -1.7900 F         1 EUI1382     0.0000 
      8 C11       -32.9780   10.3550   -3.3910 C.ar      1 EUI1382     0.0000 
      9 F16       -34.2420   10.0390   -3.3390 F         1 EUI1382     0.0000 
     10 C10       -32.5580   11.3320   -4.2630 C.ar      1 EUI1382     0.0000 
     11 N9        -33.5470   11.8970   -5.0440 N.pl3     1 EUI1382     0.0000 
     12 C5        -34.8100   12.4390   -4.7530 C.ar      1 EUI1382     0.0000 
     13 C4        -35.3320   12.4230   -3.4350 C.ar      1 EUI1382     0.0000 
     14 C3        -36.6090   12.9830   -3.1520 C.ar      1 EUI1382     0.0000 
     15 C2        -37.3470   13.5770   -4.1780 C.ar      1 EUI1382     0.0000 
     16 C6        -35.5700   13.0360   -5.7550 C.ar      1 EUI1382     0.0000 
     17 F7        -35.1060   13.0620   -7.0100 F         1 EUI1382     0.0000 
     18 C1        -36.8320   13.5950   -5.4590 C.ar      1 EUI1382     0.0000 
     19 N19       -29.6500   13.5370   -4.8420 N.am      1 EUI1382     0.0000 
     20 C23       -28.9250   13.6760   -3.5900 C.3       1 EUI1382     0.0000 
     21 C22       -28.2250   14.8240   -4.4330 C.3       1 EUI1382     0.0000 
     22 C21       -29.0660   14.5390   -5.7280 C.3       1 EUI1382     0.0000 
     23 O24       -28.5980   16.1420   -4.0240 O.3       1 EUI1382     0.0000 
     24 C25       -26.7130   14.7600   -4.6300 C.3       1 EUI1382     0.0000 
     25 C30       -26.1890   13.3010   -4.7850 C.3       1 EUI1382     0.0000 
     26 C29       -24.6570   13.3010   -4.6250 C.3       1 EUI1382     0.0000 
     27 C28       -24.2860   13.7990   -3.2030 C.3       1 EUI1382     0.0000 
     28 C27       -24.8170   15.2450   -3.0510 C.3       1 EUI1382     0.0000 
     29 N26       -26.2470   15.4030   -3.3920 N.4       1 EUI1382     0.0000 
     30 H         -29.3001   11.3026   -3.3456 H         1 EUI1382     0.0000 
     31 H         -30.1336    9.5779   -1.8174 H         1 EUI1382     0.0000 
     32 H         -33.2973   11.9343   -6.1383 H         1 EUI1382     0.0000 
     33 H         -34.7859   12.0045   -2.6771 H         1 EUI1382     0.0000 
     34 H         -36.9735   12.9449   -2.2002 H         1 EUI1382     0.0000 
     35 H         -38.2607   13.9933   -3.9750 H         1 EUI1382     0.0000 
     36 H         -37.3746   14.0261   -6.2308 H         1 EUI1382     0.0000 
     37 H         -28.2523   12.9615   -3.4618 H         1 EUI1382     0.0000 
     38 H         -29.4638   14.1208   -2.8890 H         1 EUI1382     0.0000 
     39 H         -29.6709   15.3118   -5.8674 H         1 EUI1382     0.0000 
     40 H         -28.4563   14.1354   -6.3973 H         1 EUI1382     0.0000 
     41 H         -26.4564   15.3457   -5.4691 H         1 EUI1382     0.0000 
     42 H         -26.4499   12.9390   -5.7642 H         1 EUI1382     0.0000 
     43 H         -26.6321   12.6882   -4.0195 H         1 EUI1382     0.0000 
     44 H         -24.2192   13.9640   -5.3550 H         1 EUI1382     0.0000 
     45 H         -24.2818   12.2978   -4.7551 H         1 EUI1382     0.0000 
     46 H         -23.2197   13.7980   -3.0952 H         1 EUI1382     0.0000 
     47 H         -24.7554   13.1688   -2.4741 H         1 EUI1382     0.0000 
     48 H         -24.1942   15.8997   -3.6899 H         1 EUI1382     0.0000 
     49 H         -24.6329   15.5616   -2.0067 H         1 EUI1382     0.0000 
     50 H         -27.9318   16.3932   -3.3218 H         1 EUI1382     0.0000 
@<TRIPOS>BOND
     1    2    1 2    
     2    3    2 1    
     3   19    2 am   
     4    4    3 ar   
     5   10    3 ar   
     6    5    4 ar   
     7   30    4 1    
     8    6    5 ar   
     9   31    5 1    
    10    7    6 1    
    11    8    6 ar   
    12    9    8 1    
    13   10    8 ar   
    14   11   10 1    
    15   12   11 1    
    16   32   11 1    
    17   13   12 ar   
    18   16   12 ar   
    19   14   13 ar   
    20   33   13 1    
    21   15   14 ar   
    22   34   14 1    
    23   18   15 ar   
    24   35   15 1    
    25   17   16 1    
    26   18   16 ar   
    27   36   18 1    
    28   20   19 1    
    29   22   19 1    
    30   21   20 1    
    31   37   20 1    
    32   38   20 1    
    33   22   21 1    
    34   23   21 1    
    35   24   21 1    
    36   39   22 1    
    37   40   22 1    
    38   50   23 1    
    39   25   24 1    
    40   29   24 1    
    41   41   24 1    
    42   26   25 1    
    43   42   25 1    
    44   43   25 1    
    45   27   26 1    
    46   44   26 1    
    47   45   26 1    
    48   28   27 1    
    49   46   27 1    
    50   47   27 1    
    51   29   28 1    
    52   48   28 1    
    53   49   28 1    
@<TRIPOS>SUBSTRUCTURE
     1 EUI1382     1 GROUP   
@<TRIPOS>SET

