#    Name: 1iv4_C5P_2_INTS_M
#    Modification time : Tue Mar 25 07:49:32 2014

@<TRIPOS>MOLECULE
1iv4_C5P_2_INTS_M
   43     0    12     0     0
SMALL
NO_CHARGES


@<TRIPOS>ATOM
      1 N          -0.5885   85.7185   70.4350 N.am      2 SEC2        0.0000 
      2 N          -0.6400   87.0650   70.3590 N.am     10 SEL2        0.0000 
      3 N          -0.5370   84.3720   70.5110 N.am      6 SEP2        0.0000 
      4 N          -1.6385   86.5655   71.0140 N.am      2 SEC2        0.0000 
      5 N          -2.6370   86.0660   71.6690 N.am      6 SEP2        0.0000 
      6 Zn          0.2505   89.4465   68.7530 Zn        3 ZIC7        0.0000 
      7 Zn          0.5970   89.3450   69.8000 Zn       11 ZIL7        0.0000 
      8 Zn         -0.0960   89.5480   67.7060 Zn        7 ZIP7        0.0000 
      9 N           6.0805   89.0565   69.8670 N.am      2 SEC2        0.0000 
     10 N           5.0400   88.0640   69.8510 N.am     10 SEL2        0.0000 
     11 N           7.1210   90.0490   69.8830 N.am      6 SEP2        0.0000 
     12 O           4.7820   87.6220   68.7560 O.2       1 ALC1        0.0000 
     13 O           5.0400   88.0640   69.8510 O.2       9 ALL1        0.0000 
     14 O           4.5240   87.1800   67.6610 O.2       5 ALP1        0.0000 
     15 CA          5.2155   84.1475   70.9230 C.3       4 GLC5        0.0000 
     16 CA          5.2360   86.0650   71.4940 C.3      12 GLL5        0.0000 
     17 CA          5.1950   82.2300   70.3520 C.3       8 GLP5        0.0000 
     18 O           7.2875   87.0105   70.7945 O.2       1 ALC1        0.0000 
     19 O           6.3550   86.8200   71.8610 O.2       9 ALL1        0.0000 
     20 O           8.2200   87.2010   69.7280 O.2       5 ALP1        0.0000 
     21 O           7.0515   85.9570   70.6025 O.2       1 ALC1        0.0000 
     22 O           7.7480   85.0940   69.3440 O.2       5 ALP1        0.0000 
     23 N           4.6930   81.7590   74.9895 N.am      2 SEC2        0.0000 
     24 N           3.9390   82.5890   74.1590 N.am     10 SEL2        0.0000 
     25 N           5.4470   80.9290   75.8200 N.am      6 SEP2        0.0000 
     26 N           5.5935   82.4070   75.1010 N.am      2 SEC2        0.0000 
     27 N           5.7400   83.8850   74.3820 N.am     10 SEL2        0.0000 
     28 N           6.7930   83.0640   74.8975 N.am      2 SEC2        0.0000 
     29 N           7.8460   82.2430   75.4130 N.am      6 SEP2        0.0000 
     30 O           0.6025   81.1760   73.3700 O.2       1 ALC1        0.0000 
     31 O           1.9720   81.2130   73.8830 O.2       9 ALL1        0.0000 
     32 O          -0.7670   81.1390   72.8570 O.2       5 ALP1        0.0000 
     33 O           2.1585   80.4280   75.1770 O.2       1 ALC1        0.0000 
     34 O           2.3450   79.6430   76.4710 O.2       5 ALP1        0.0000 
     35 CA          5.8485   88.4772   71.4199 C.3       4 GLC5        0.0000 
     36 CA          3.7580   87.8590   72.1330 C.3      12 GLL5        0.0000 
     37 CA          7.0190   90.1470   71.3330 C.3       8 GLP5        0.0000 
     38 CA          3.7825   83.0925   71.5333 C.3       4 GLC5        0.0000 
     39 CA          2.7350   84.5390   72.6130 C.3      12 GLL5        0.0000 
     40 CA          1.8925   84.0460   70.8918 C.3       4 GLC5        0.0000 
     41 CA          1.4150   84.1370   69.0690 C.3       8 GLP5        0.0000 
     42 CA          0.6010   84.4855   72.9472 C.3       4 GLC5        0.0000 
     43 CA         -1.1680   85.0160   73.1800 C.3       8 GLP5        0.0000 
@<TRIPOS>BOND
@<TRIPOS>SUBSTRUCTURE
     1 ALC1       12 GROUP        1 X    ALC  0     ROOT ALC X 1
     2 SEC2        1 GROUP        1 X    SEC  0     **** SEC X 2
     3 ZIC7        6 GROUP        1 X    ZIC  0     **** ZIC X 5
     4 GLC5       15 GROUP        1 X    GLC  0     **** GLC X 6
     5 ALP1       14 GROUP        1 Y    ALP  0     ROOT ALP Y 8
     6 SEP2        3 GROUP        1 Y    SEP  0     **** SEP Y 9
     7 ZIP7        8 GROUP        1 Y    ZIP  0     **** ZIP Y 12
     8 GLP5       17 GROUP        1 Y    GLP  0     **** GLP Y 13
     9 ALL1       13 GROUP        1 Z    ALL  0     ROOT ALL Z 15
    10 SEL2        2 GROUP        1 Z    SEL  0     **** SEL Z 16
    11 ZIL7        7 GROUP        1 Z    ZIL  0     **** ZIL Z 19
    12 GLL5       16 GROUP        1 Z    GLL  0     **** GLL Z 20
@<TRIPOS>SET

