#    Name: 1iv4_C5P_2_ligand
#    Modification time : Tue Mar 25 07:49:32 2014

@<TRIPOS>MOLECULE
1iv4_C5P_2_ligand
   33    34     1     0     0
SMALL
NO_CHARGES


@<TRIPOS>ATOM
      1 O3P        -0.6400   87.0650   70.3590 O.co2     1 C5P1603     0.0000 
      2 P           0.1570   88.3150   70.8840 P.3       1 C5P1603     0.0000 
      3 O1P        -0.3900   88.8010   72.1650 O.co2     1 C5P1603     0.0000 
      4 O2P         0.5970   89.3450   69.8000 O.co2     1 C5P1603     0.0000 
      5 O5'         1.6290   87.7680   71.2910 O.3       1 C5P1603     0.0000 
      6 C5'         2.5620   88.6310   71.8680 C.3       1 C5P1603     0.0000 
      7 C4'         3.7580   87.8590   72.1330 C.3       1 C5P1603     0.0000 
      8 O4'         3.8480   86.8860   73.1740 O.3       1 C5P1603     0.0000 
      9 C3'         4.4820   87.2410   70.9060 C.3       1 C5P1603     0.0000 
     10 O3'         5.0400   88.0640   69.8510 O.3       1 C5P1603     0.0000 
     11 C2'         5.2360   86.0650   71.4940 C.3       1 C5P1603     0.0000 
     12 O2'         6.3550   86.8200   71.8610 O.3       1 C5P1603     0.0000 
     13 C1'         4.9460   86.0430   72.9470 C.3       1 C5P1603     0.0000 
     14 N1          4.0570   84.7980   73.1070 N.am      1 C5P1603     0.0000 
     15 C2          4.5940   83.7280   73.9100 C.2       1 C5P1603     0.0000 
     16 N3          3.9390   82.5890   74.1590 N.2       1 C5P1603     0.0000 
     17 C4          2.6370   82.3660   73.6270 C.2       1 C5P1603     0.0000 
     18 C5          2.0050   83.3710   72.8160 C.2       1 C5P1603     0.0000 
     19 C6          2.7350   84.5390   72.6130 C.2       1 C5P1603     0.0000 
     20 O2          5.7400   83.8850   74.3820 O.2       1 C5P1603     0.0000 
     21 N4          1.9720   81.2130   73.8830 N.pl3     1 C5P1603     0.0000 
     22 H           2.1882   89.0599   72.8079 H         1 C5P1603     0.0000 
     23 H           2.8074   89.4667   71.1983 H         1 C5P1603     0.0000 
     24 H           4.5942   88.6730   72.4516 H         1 C5P1603     0.0000 
     25 H           3.5394   86.6529   70.4056 H         1 C5P1603     0.0000 
     26 H           5.3443   85.3089   71.0518 H         1 C5P1603     0.0000 
     27 H           5.6608   86.0476   73.5664 H         1 C5P1603     0.0000 
     28 H           1.1020   83.2200   72.4339 H         1 C5P1603     0.0000 
     29 H           2.2881   85.3170   72.0442 H         1 C5P1603     0.0000 
     30 H           2.2094   80.7481   74.7360 H         1 C5P1603     0.0000 
     31 H           1.3027   80.9293   73.1963 H         1 C5P1603     0.0000 
     32 H           5.1976   87.4360   69.0889 H         1 C5P1603     0.0000 
     33 H           6.9088   86.8820   71.0307 H         1 C5P1603     0.0000 
@<TRIPOS>BOND
     1    2    1 ar   
     2    3    2 ar   
     3    4    2 ar   
     4    5    2 1    
     5    6    5 1    
     6    7    6 1    
     7   22    6 1    
     8   23    6 1    
     9    8    7 1    
    10    9    7 1    
    11   24    7 1    
    12   13    8 1    
    13   10    9 1    
    14   11    9 1    
    15   25    9 1    
    16   32   10 1    
    17   12   11 1    
    18   13   11 1    
    19   26   11 1    
    20   33   12 1    
    21   14   13 1    
    22   27   13 1    
    23   15   14 am   
    24   19   14 1    
    25   16   15 1    
    26   20   15 2    
    27   17   16 2    
    28   18   17 1    
    29   21   17 1    
    30   19   18 2    
    31   28   18 1    
    32   29   19 1    
    33   30   21 1    
    34   31   21 1    
@<TRIPOS>SUBSTRUCTURE
     1 C5P1603     1 GROUP   
@<TRIPOS>SET

