#    Name: 3kdb_006_1_INTS_M
#    Modification time : Mon Mar 24 19:17:13 2014

@<TRIPOS>MOLECULE
3kdb_006_1_INTS_M
  104     0     9     0     0
SMALL
NO_CHARGES


@<TRIPOS>ATOM
      1 O          12.8185   21.7665   18.0805 O.2       1 ALC1        0.0000 
      2 O          14.3550   21.0610   18.0380 O.2       7 ALL1        0.0000 
      3 O          11.2820   22.4720   18.1230 O.2       4 ALP1        0.0000 
      4 N          14.2335   25.0310   17.6660 N.am      2 SEC2        0.0000 
      5 N          14.1300   23.9720   18.8530 N.am      8 SEL2        0.0000 
      6 N          14.3370   26.0900   16.4790 N.am      5 SEP2        0.0000 
      7 O          13.8660   24.7365   19.8645 O.2       1 ALC1        0.0000 
      8 O          14.1300   23.9720   18.8530 O.2       7 ALL1        0.0000 
      9 O          13.6020   25.5010   20.8760 O.2       4 ALP1        0.0000 
     10 O          14.5890   23.9750   20.2165 O.2       1 ALC1        0.0000 
     11 O          15.0480   23.9780   21.5800 O.2       4 ALP1        0.0000 
     12 N          15.4960   25.4950   17.1910 N.am      2 SEC2        0.0000 
     13 N          16.6550   24.9000   17.9030 N.am      8 SEL2        0.0000 
     14 CA         11.7120   22.9970   15.0535 C.3       3 GLC5        0.0000 
     15 CA         13.0280   21.2600   15.0940 C.3       9 GLL5        0.0000 
     16 CA         10.3960   24.7340   15.0130 C.3       6 GLP5        0.0000 
     17 O          19.2840   26.4265   18.7615 O.2       1 ALC1        0.0000 
     18 O          20.1530   25.4420   17.7460 O.2       7 ALL1        0.0000 
     19 O          18.4150   27.4110   19.7770 O.2       4 ALP1        0.0000 
     20 N          20.7850   28.9105   17.6185 N.am      2 SEC2        0.0000 
     21 N          21.6980   27.6060   17.8290 N.am      8 SEL2        0.0000 
     22 N          19.8720   30.2150   17.4080 N.am      5 SEP2        0.0000 
     23 CA         16.8890   27.2075   13.5650 C.3       3 GLC5        0.0000 
     24 CA         18.8180   26.5860   13.7300 C.3       9 GLL5        0.0000 
     25 CA         14.9600   27.8290   13.4000 C.3       6 GLP5        0.0000 
     26 CA         21.1430   29.8865   13.3165 C.3       3 GLC5        0.0000 
     27 CA         20.9130   27.8650   13.6900 C.3       9 GLL5        0.0000 
     28 CA         21.3730   31.9080   12.9430 C.3       6 GLP5        0.0000 
     29 CA         21.8380   28.7410   11.9075 C.3       3 GLC5        0.0000 
     30 CA         22.7630   29.6170   10.1250 C.3       6 GLP5        0.0000 
     31 CA         22.3350   29.2905   16.5825 C.3       3 GLC5        0.0000 
     32 CA         22.5760   27.2890   15.6250 C.3       9 GLL5        0.0000 
     33 CA         22.0940   31.2920   17.5400 C.3       6 GLP5        0.0000 
     34 CA         12.5110   19.6200   21.8940 C.3       3 GLC5        0.0000 
     35 CA         12.8260   17.5730   21.7930 C.3       9 GLL5        0.0000 
     36 CA         12.1960   21.6670   21.9950 C.3       6 GLP5        0.0000 
     37 CA         13.7860   17.0890   23.1830 C.3       3 GLC5        0.0000 
     38 CA         14.7460   16.6050   24.5730 C.3       6 GLP5        0.0000 
     39 CA         14.1105   16.1160   21.7485 C.3       3 GLC5        0.0000 
     40 CA         15.3950   14.6590   21.7040 C.3       6 GLP5        0.0000 
     41 CA         11.5895   19.8985   20.0865 C.3       3 GLC5        0.0000 
     42 CA         11.9660   18.0460   19.3610 C.3       9 GLL5        0.0000 
     43 CA         11.2130   21.7510   20.8120 C.3       6 GLP5        0.0000 
     44 CA          9.3075   17.3190   20.5440 C.3       3 GLC5        0.0000 
     45 CA         11.0230   16.2040   20.7220 C.3       9 GLL5        0.0000 
     46 CA          7.5920   18.4340   20.3660 C.3       6 GLP5        0.0000 
     47 CA         15.8280   18.3720   19.8985 C.3       3 GLC5        0.0000 
     48 CA         14.1210   18.7160   18.6630 C.3       9 GLL5        0.0000 
     49 CA         17.5350   18.0280   21.1340 C.3       6 GLP5        0.0000 
     50 CA         15.5210   18.3080   17.0685 C.3       3 GLC5        0.0000 
     51 CA         16.9210   17.9000   15.4740 C.3       6 GLP5        0.0000 
     52 CA         17.6255   20.0860   20.5725 C.3       3 GLC5        0.0000 
     53 CA         17.7160   22.1440   20.0110 C.3       9 GLL5        0.0000 
     54 CA         20.6935   21.4785   19.0510 C.3       3 GLC5        0.0000 
     55 CA         19.3760   21.9540   20.5290 C.3       9 GLL5        0.0000 
     56 CA         22.0110   21.0030   17.5730 C.3       6 GLP5        0.0000 
     57 CA         19.1495   19.8765   20.5695 C.3       3 GLC5        0.0000 
     58 CA         18.9230   17.7990   20.6100 C.3       6 GLP5        0.0000 
     59 CA         21.0165   20.9325   20.9785 C.3       3 GLC5        0.0000 
     60 CA         22.6570   19.9110   21.4280 C.3       6 GLP5        0.0000 
     61 CA         18.7385   25.5355   22.7355 C.3       3 GLC5        0.0000 
     62 CA         19.2720   24.3150   21.8220 C.3       9 GLL5        0.0000 
     63 CA         18.2050   26.7560   23.6490 C.3       6 GLP5        0.0000 
     64 CA         21.6380   22.4385   18.9560 C.3       3 GLC5        0.0000 
     65 CA         21.2650   23.8740   20.3390 C.3       9 GLL5        0.0000 
     66 CA         21.9610   21.8925   20.8835 C.3       3 GLC5        0.0000 
     67 CA         15.0179   23.2791   13.9964 C.3       3 GLC5        0.0000 
     68 CA         14.5770   22.8430   16.3280 C.3       9 GLL5        0.0000 
     69 CA         15.1130   24.7710   12.8240 C.3       6 GLP5        0.0000 
     70 CA         17.1277   20.3780   13.5850 C.3       3 GLC5        0.0000 
     71 CA         15.1610   20.2750   13.5830 C.3       9 GLL5        0.0000 
     72 CA         18.9780   19.9840   13.1140 C.3       6 GLP5        0.0000 
     73 CA         15.0508   19.3738   11.9067 C.3       3 GLC5        0.0000 
     74 CA         15.5860   18.7280   10.3260 C.3       6 GLP5        0.0000 
     75 CA         12.1935   20.4188   12.3430 C.3       3 GLC5        0.0000 
     76 CA         13.8700   19.7640   13.3920 C.3       9 GLL5        0.0000 
     77 CA         11.0490   20.8270   10.9180 C.3       6 GLP5        0.0000 
     78 CA         15.7474   19.0840   14.5990 C.3       3 GLC5        0.0000 
     79 CA         18.4855   27.2978   15.6125 C.3       3 GLC5        0.0000 
     80 CA         19.1930   25.8790   14.8800 C.3       9 GLL5        0.0000 
     81 CA         17.1570   28.5800   16.0670 C.3       6 GLP5        0.0000 
     82 CA         18.8473   24.6647   13.0625 C.3       3 GLC5        0.0000 
     83 CA         18.6890   23.0970   11.8200 C.3       6 GLP5        0.0000 
     84 CA         18.1968   27.8257   14.7545 C.3       3 GLC5        0.0000 
     85 CA         18.5753   26.7623   11.7705 C.3       3 GLC5        0.0000 
     86 CA         17.9140   26.4530   10.0990 C.3       6 GLP5        0.0000 
     87 CA         23.0875   26.3925   13.7888 C.3       3 GLC5        0.0000 
     88 CA         21.3060   27.1690   14.8340 C.3       9 GLL5        0.0000 
     89 CA         24.2340   25.5560   12.3480 C.3       6 GLP5        0.0000 
     90 CA         21.0279   26.4476   12.2860 C.3       3 GLC5        0.0000 
     91 CA         21.9810   25.4270   11.0060 C.3       6 GLP5        0.0000 
     92 CA          9.0998   17.6915   19.5146 C.3       3 GLC5        0.0000 
     93 CA         10.1750   16.5910   18.4640 C.3       9 GLL5        0.0000 
     94 CA         11.9718   14.9631   20.6174 C.3       3 GLC5        0.0000 
     95 CA         11.9330   17.2500   20.6250 C.3       9 GLL5        0.0000 
     96 CA         12.6780   13.2790   20.8260 C.3       6 GLP5        0.0000 
     97 CA         10.6696   16.6519   22.5397 C.3       3 GLC5        0.0000 
     98 CA          9.6380   16.4960   24.1140 C.3       6 GLP5        0.0000 
     99 CA         18.0300   21.5050   21.7875 C.3       3 GLC5        0.0000 
    100 CA         17.5140   20.9610   23.3050 C.3       6 GLP5        0.0000 
    101 CA         18.5162   22.4780   22.2370 C.3       3 GLC5        0.0000 
    102 CA         20.6689   23.6677   22.6515 C.3       3 GLC5        0.0000 
    103 CA         19.7650   23.6750   20.5160 C.3       9 GLL5        0.0000 
    104 CA         20.9460   23.4010   24.5490 C.3       6 GLP5        0.0000 
@<TRIPOS>BOND
@<TRIPOS>SUBSTRUCTURE
     1 ALC1        1 GROUP        1 X    ALC  0     ROOT ALC X 1
     2 SEC2        4 GROUP        1 X    SEC  0     **** SEC X 2
     3 GLC5       14 GROUP        1 X    GLC  0     **** GLC X 6
     4 ALP1        3 GROUP        1 Y    ALP  0     ROOT ALP Y 8
     5 SEP2        6 GROUP        1 Y    SEP  0     **** SEP Y 9
     6 GLP5       16 GROUP        1 Y    GLP  0     **** GLP Y 13
     7 ALL1        2 GROUP        1 Z    ALL  0     ROOT ALL Z 15
     8 SEL2        5 GROUP        1 Z    SEL  0     **** SEL Z 16
     9 GLL5       15 GROUP        1 Z    GLL  0     **** GLL Z 20
@<TRIPOS>SET

