#    Name: 3kdb_006_1_ligand
#    Modification time : Mon Mar 24 19:17:13 2014

@<TRIPOS>MOLECULE
3kdb_006_1_ligand
   86    90     1     0     0
SMALL
NO_CHARGES


@<TRIPOS>ATOM
      1 N2         14.3550   21.0610   18.0380 N.am      1 006100      0.0000 
      2 C20        15.1500   22.1960   17.5930 C.3       1 006100      0.0000 
      3 O20        14.1300   23.9720   18.8530 O.3       1 006100      0.0000 
      4 C21        14.5770   22.8430   16.3280 C.3       1 006100      0.0000 
      5 O21        16.6550   24.9000   17.9030 O.2       1 006100      0.0000 
      6 C22        14.3260   21.7680   15.2890 C.ar      1 006100      0.0000 
      7 C23        15.3940   21.2690   14.5290 C.ar      1 006100      0.0000 
      8 C24        15.1610   20.2750   13.5830 C.ar      1 006100      0.0000 
      9 C25        13.8700   19.7640   13.3920 C.ar      1 006100      0.0000 
     10 C26        12.8060   20.2570   14.1440 C.ar      1 006100      0.0000 
     11 C27        13.0280   21.2600   15.0940 C.ar      1 006100      0.0000 
     12 C28        15.2960   23.1430   18.7730 C.3       1 006100      0.0000 
     13 C29        16.5830   23.9190   18.6370 C.2       1 006100      0.0000 
     14 N30        20.1530   25.4420   17.7460 N.am      1 006100      0.0000 
     15 O30        21.6980   27.6060   17.8290 O.3       1 006100      0.0000 
     16 C31        21.0700   25.5670   16.6340 C.3       1 006100      0.0000 
     17 C32        20.4350   26.1520   15.4360 C.ar      1 006100      0.0000 
     18 C33        19.1930   25.8790   14.8800 C.ar      1 006100      0.0000 
     19 C34        18.8180   26.5860   13.7300 C.ar      1 006100      0.0000 
     20 C35        22.1730   26.6000   16.9330 C.3       1 006100      0.0000 
     21 C36        21.3060   27.1690   14.8340 C.ar      1 006100      0.0000 
     22 C37        20.9130   27.8650   13.6900 C.ar      1 006100      0.0000 
     23 C38        19.6550   27.5570   13.1540 C.ar      1 006100      0.0000 
     24 C39        22.5760   27.2890   15.6250 C.3       1 006100      0.0000 
     25 C40        10.1730   15.8850   19.6630 C.ar      1 006100      0.0000 
     26 O40        16.1720   19.7610   18.2460 O.2       1 006100      0.0000 
     27 C41        10.1750   16.5910   18.4640 C.ar      1 006100      0.0000 
     28 O41        12.8480   19.0910   19.2010 O.3       1 006100      0.0000 
     29 C42        11.0410   17.6600   18.2630 C.ar      1 006100      0.0000 
     30 C43        11.0320   18.4150   16.9610 C.3       1 006100      0.0000 
     31 C44        12.8260   17.5730   21.7930 C.3       1 006100      0.0000 
     32 C45        11.9660   18.0460   19.3610 C.ar      1 006100      0.0000 
     33 C46        11.9330   17.2500   20.6250 C.ar      1 006100      0.0000 
     34 C47        11.0230   16.2040   20.7220 C.ar      1 006100      0.0000 
     35 C48        14.9720   19.9080   18.3080 C.2       1 006100      0.0000 
     36 C49        14.1210   18.7160   18.6630 C.3       1 006100      0.0000 
     37 C50        17.7160   22.1440   20.0110 C.3       1 006100      0.0000 
     38 N50        17.6330   23.4390   19.3100 N.am      1 006100      0.0000 
     39 O50        19.5990   23.3000   17.3280 O.2       1 006100      0.0000 
     40 S50        19.3760   21.9540   20.5290 S.3       1 006100      0.0000 
     41 C51        19.7650   23.6750   20.5160 C.3       1 006100      0.0000 
     42 C52        19.2720   24.3150   21.8220 C.3       1 006100      0.0000 
     43 C53        21.2650   23.8740   20.3390 C.3       1 006100      0.0000 
     44 C54        18.8770   24.2240   19.3950 C.3       1 006100      0.0000 
     45 C55        19.5800   24.2790   18.0540 C.2       1 006100      0.0000 
     46 H          13.3480   21.1996   18.1248 H         1 006100      0.0000 
     47 H          16.1670   21.8287   17.3504 H         1 006100      0.0000 
     48 H          15.2882   23.5638   15.9449 H         1 006100      0.0000 
     49 H          13.6467   23.3394   16.5736 H         1 006100      0.0000 
     50 H          16.3383   21.6372   14.6729 H         1 006100      0.0000 
     51 H          15.9398   19.9096   13.0173 H         1 006100      0.0000 
     52 H          13.7122   19.0258   12.6964 H         1 006100      0.0000 
     53 H          11.8595   19.8868   14.0035 H         1 006100      0.0000 
     54 H          12.2495   21.6264   15.6485 H         1 006100      0.0000 
     55 H          15.3750   22.5122   19.6691 H         1 006100      0.0000 
     56 H          19.9678   26.3113   18.2896 H         1 006100      0.0000 
     57 H          21.5507   24.6584   16.3752 H         1 006100      0.0000 
     58 H          18.5722   25.1908   15.2885 H         1 006100      0.0000 
     59 H          17.9001   26.3892   13.2914 H         1 006100      0.0000 
     60 H          23.0271   26.0885   17.3176 H         1 006100      0.0000 
     61 H          21.5051   28.5587   13.2659 H         1 006100      0.0000 
     62 H          19.3304   28.0603   12.3062 H         1 006100      0.0000 
     63 H          23.3523   26.7450   15.1676 H         1 006100      0.0000 
     64 H          22.8013   28.2991   15.8165 H         1 006100      0.0000 
     65 H           9.5100   15.0851   19.7759 H         1 006100      0.0000 
     66 H           9.5211   16.3156   17.7098 H         1 006100      0.0000 
     67 H          10.9734   15.6497   21.5960 H         1 006100      0.0000 
     68 H          14.0002   18.0968   17.7504 H         1 006100      0.0000 
     69 H          14.6887   18.0916   19.3832 H         1 006100      0.0000 
     70 H          17.5573   21.3009   19.3884 H         1 006100      0.0000 
     71 H          17.1715   22.1050   20.9196 H         1 006100      0.0000 
     72 H          18.6097   25.2603   19.6763 H         1 006100      0.0000 
     73 H          11.7023   19.1571   16.9574 H         1 006100      0.0000 
     74 H          11.2479   17.8212   16.1859 H         1 006100      0.0000 
     75 H          10.1391   18.8255   16.7759 H         1 006100      0.0000 
     76 H          13.7937   17.5141   21.5480 H         1 006100      0.0000 
     77 H          12.6666   18.4981   22.1377 H         1 006100      0.0000 
     78 H          12.6786   16.9458   22.5578 H         1 006100      0.0000 
     79 H          19.6988   23.8977   22.6243 H         1 006100      0.0000 
     80 H          19.4766   25.2932   21.8566 H         1 006100      0.0000 
     81 H          18.2828   24.2184   21.9327 H         1 006100      0.0000 
     82 H          21.7862   23.4450   21.0768 H         1 006100      0.0000 
     83 H          21.5932   23.4797   19.4806 H         1 006100      0.0000 
     84 H          21.5126   24.8428   20.3301 H         1 006100      0.0000 
     85 H          14.1887   24.4153   19.7474 H         1 006100      0.0000 
     86 H          22.3256   27.5767   18.6070 H         1 006100      0.0000 
@<TRIPOS>BOND
     1    2    1 1    
     2   35    1 am   
     3   46    1 1    
     4    4    2 1    
     5   12    2 1    
     6   47    2 1    
     7   12    3 1    
     8   85    3 1    
     9    6    4 1    
    10   48    4 1    
    11   49    4 1    
    12   13    5 2    
    13    7    6 ar   
    14   11    6 ar   
    15    8    7 ar   
    16   50    7 1    
    17    9    8 ar   
    18   51    8 1    
    19   10    9 ar   
    20   52    9 1    
    21   11   10 ar   
    22   53   10 1    
    23   54   11 1    
    24   13   12 1    
    25   55   12 1    
    26   38   13 am   
    27   16   14 1    
    28   45   14 am   
    29   56   14 1    
    30   20   15 1    
    31   86   15 1    
    32   17   16 1    
    33   20   16 1    
    34   57   16 1    
    35   18   17 ar   
    36   21   17 ar   
    37   19   18 ar   
    38   58   18 1    
    39   23   19 ar   
    40   59   19 1    
    41   24   20 1    
    42   60   20 1    
    43   22   21 ar   
    44   24   21 1    
    45   23   22 ar   
    46   61   22 1    
    47   62   23 1    
    48   63   24 1    
    49   64   24 1    
    50   27   25 ar   
    51   34   25 ar   
    52   65   25 1    
    53   35   26 2    
    54   29   27 ar   
    55   66   27 1    
    56   32   28 1    
    57   36   28 1    
    58   30   29 1    
    59   32   29 ar   
    60   73   30 1    
    61   74   30 1    
    62   75   30 1    
    63   33   31 1    
    64   76   31 1    
    65   77   31 1    
    66   78   31 1    
    67   33   32 ar   
    68   34   33 ar   
    69   67   34 1    
    70   36   35 1    
    71   68   36 1    
    72   69   36 1    
    73   38   37 1    
    74   40   37 1    
    75   70   37 1    
    76   71   37 1    
    77   44   38 1    
    78   45   39 2    
    79   41   40 1    
    80   42   41 1    
    81   43   41 1    
    82   44   41 1    
    83   79   42 1    
    84   80   42 1    
    85   81   42 1    
    86   82   43 1    
    87   83   43 1    
    88   84   43 1    
    89   45   44 1    
    90   72   44 1    
@<TRIPOS>SUBSTRUCTURE
     1 006100      1 GROUP   
@<TRIPOS>SET

