#    Name: 4c67_L5S_1_INTS_M
#    Modification time : Tue Mar 25 09:02:24 2014

@<TRIPOS>MOLECULE
4c67_L5S_1_INTS_M
   38     0     6     0     0
SMALL
NO_CHARGES


@<TRIPOS>ATOM
      1 CA         -9.9945   -3.2940   -0.9270 C.3       2 GLC5        0.0000 
      2 CA        -11.9870   -3.4650   -1.7140 C.3       6 GLL5        0.0000 
      3 CA         -8.0020   -3.1230   -0.1400 C.3       4 GLP5        0.0000 
      4 CA        -11.8275   -1.6050   -1.5055 C.3       2 GLC5        0.0000 
      5 CA        -11.6680    0.2550   -1.2970 C.3       4 GLP5        0.0000 
      6 CA        -12.5685   -4.7645   -2.9610 C.3       2 GLC5        0.0000 
      7 CA        -13.1500   -6.0640   -4.2080 C.3       4 GLP5        0.0000 
      8 CA        -11.3130   -2.9170    0.2085 C.3       2 GLC5        0.0000 
      9 CA        -10.6390   -2.3690    2.1310 C.3       4 GLP5        0.0000 
     10 N         -15.4095   -4.3175    1.4330 N.am      1 SEC2        0.0000 
     11 N         -14.4060   -4.9690    0.5370 N.am      5 SEL2        0.0000 
     12 N         -16.4130   -3.6660    2.3290 N.am      3 SEP2        0.0000 
     13 CA        -13.7340   -8.4230    0.9830 C.3       2 GLC5        0.0000 
     14 CA        -13.1980   -6.7750    1.8170 C.3       6 GLL5        0.0000 
     15 CA        -14.2700  -10.0710    0.1490 C.3       4 GLP5        0.0000 
     16 CA        -12.6465   -4.6260    2.1725 C.3       2 GLC5        0.0000 
     17 CA        -12.0950   -2.4770    2.5280 C.3       4 GLP5        0.0000 
     18 CA        -11.3520   -4.4670    4.4935 C.3       2 GLC5        0.0000 
     19 CA        -10.3790   -6.1830    4.9640 C.3       6 GLL5        0.0000 
     20 CA        -12.3250   -2.7510    4.0230 C.3       4 GLP5        0.0000 
     21 CA        -11.6185   -6.1030   -2.7780 C.3       2 GLC5        0.0000 
     22 CA        -10.0870   -6.1420   -1.3480 C.3       6 GLL5        0.0000 
     23 CA        -10.6768   -4.2465    1.3815 C.3       2 GLC5        0.0000 
     24 CA        -10.4030   -6.3560    1.2030 C.3       6 GLL5        0.0000 
     25 CA         -9.4548   -4.0055    7.3400 C.3       2 GLC5        0.0000 
     26 CA         -8.4500   -4.9990    5.7540 C.3       6 GLL5        0.0000 
     27 CA         -9.8970   -2.6350    8.7990 C.3       4 GLP5        0.0000 
     28 CA         -7.9880   -2.9080    4.9195 C.3       2 GLC5        0.0000 
     29 CA         -7.6910   -0.9780    4.7330 C.3       4 GLP5        0.0000 
     30 CA         -7.8025   -3.7535    2.4265 C.3       2 GLC5        0.0000 
     31 CA         -8.1200   -4.6770    4.4580 C.3       6 GLL5        0.0000 
     32 CA         -7.0850   -2.6190    0.9210 C.3       4 GLP5        0.0000 
     33 CA         -9.7227   -3.7226    3.0617 C.3       2 GLC5        0.0000 
     34 CA         -8.9657   -4.7551   -0.1549 C.3       2 GLC5        0.0000 
     35 CA         -9.1260   -6.9280    0.8910 C.3       6 GLL5        0.0000 
     36 CA        -10.1627   -8.0731   -0.8444 C.3       2 GLC5        0.0000 
     37 CA         -8.8400   -6.8730   -0.4390 C.3       6 GLL5        0.0000 
     38 CA        -10.3960   -9.7590   -1.5190 C.3       4 GLP5        0.0000 
@<TRIPOS>BOND
@<TRIPOS>SUBSTRUCTURE
     1 SEC2       10 GROUP        1 X    SEC  0     ROOT SEC X 2
     2 GLC5        1 GROUP        1 X    GLC  0     **** GLC X 6
     3 SEP2       12 GROUP        1 Y    SEP  0     ROOT SEP Y 9
     4 GLP5        3 GROUP        1 Y    GLP  0     **** GLP Y 13
     5 SEL2       11 GROUP        1 Z    SEL  0     ROOT SEL Z 16
     6 GLL5        2 GROUP        1 Z    GLL  0     **** GLL Z 20
@<TRIPOS>SET

