#    Name: 4c67_L5S_1_ligand
#    Modification time : Tue Mar 25 09:02:24 2014

@<TRIPOS>MOLECULE
4c67_L5S_1_ligand
   32    35     1     0     0
SMALL
NO_CHARGES


@<TRIPOS>ATOM
      1 CAS       -10.4030   -6.3560    1.2030 C.2       1 L5S1170     0.0000 
      2 CAJ        -9.1260   -6.9280    0.8910 C.2       1 L5S1170     0.0000 
      3 CAP        -8.8400   -6.8730   -0.4390 C.2       1 L5S1170     0.0000 
      4 CAU       -11.0260   -5.8920    0.0610 C.2       1 L5S1170     0.0000 
      5 NAV       -12.2860   -5.2830    0.0310 N.pl3     1 L5S1170     0.0000 
      6 CAR       -12.7820   -4.2520   -0.7370 C.2       1 L5S1170     0.0000 
      7 CAA       -11.9870   -3.4650   -1.7140 C.3       1 L5S1170     0.0000 
      8 NAM       -14.0440   -4.0590   -0.4510 N.2       1 L5S1170     0.0000 
      9 NAN       -14.4060   -4.9690    0.5370 N.2       1 L5S1170     0.0000 
     10 CAT       -13.3470   -5.6860    0.8170 C.2       1 L5S1170     0.0000 
     11 CAK       -13.1980   -6.7750    1.8170 C.3       1 L5S1170     0.0000 
     12 NAL       -12.2480   -6.3650    2.8620 N.2       1 L5S1170     0.0000 
     13 CAO       -10.9790   -6.2400    2.5470 C.2       1 L5S1170     0.0000 
     14 CAQ       -10.0660   -5.8520    3.6480 C.ar      1 L5S1170     0.0000 
     15 CAF       -10.3790   -6.1830    4.9640 C.ar      1 L5S1170     0.0000 
     16 CAD        -9.5750   -5.7530    6.0080 C.ar      1 L5S1170     0.0000 
     17 CAC        -8.4500   -4.9990    5.7540 C.ar      1 L5S1170     0.0000 
     18 CAE        -8.1200   -4.6770    4.4580 C.ar      1 L5S1170     0.0000 
     19 CAG        -8.9200   -5.0990    3.4060 C.ar      1 L5S1170     0.0000 
     20 S         -10.0870   -6.1420   -1.3480 S.3       1 L5S1170     0.0000 
     21 H          -8.5525   -7.3058    1.5833 H         1 L5S1170     0.0000 
     22 H          -8.1108   -7.1482   -0.9595 H         1 L5S1170     0.0000 
     23 H         -12.8397   -7.6820    1.3180 H         1 L5S1170     0.0000 
     24 H         -14.1738   -6.9975    2.2623 H         1 L5S1170     0.0000 
     25 H         -11.2168   -6.7531    5.1605 H         1 L5S1170     0.0000 
     26 H          -9.8235   -6.0009    6.9798 H         1 L5S1170     0.0000 
     27 H          -7.8572   -4.6772    6.5348 H         1 L5S1170     0.0000 
     28 H          -7.2730   -4.1182    4.2615 H         1 L5S1170     0.0000 
     29 H          -8.6658   -4.8542    2.4363 H         1 L5S1170     0.0000 
     30 H         -11.2202   -2.9955   -1.2764 H         1 L5S1170     0.0000 
     31 H         -11.6039   -4.0443   -2.4335 H         1 L5S1170     0.0000 
     32 H         -12.5405   -2.7649   -2.1650 H         1 L5S1170     0.0000 
@<TRIPOS>BOND
     1    2    1 1    
     2    4    1 2    
     3   13    1 1    
     4    3    2 2    
     5   21    2 1    
     6   20    3 1    
     7   22    3 1    
     8    5    4 1    
     9   20    4 1    
    10    6    5 1    
    11   10    5 1    
    12    7    6 1    
    13    8    6 2    
    14   30    7 1    
    15   31    7 1    
    16   32    7 1    
    17    9    8 1    
    18   10    9 2    
    19   11   10 1    
    20   12   11 1    
    21   23   11 1    
    22   24   11 1    
    23   13   12 2    
    24   14   13 1    
    25   15   14 ar   
    26   19   14 ar   
    27   16   15 ar   
    28   25   15 1    
    29   17   16 ar   
    30   26   16 1    
    31   18   17 ar   
    32   27   17 1    
    33   19   18 ar   
    34   28   18 1    
    35   29   19 1    
@<TRIPOS>SUBSTRUCTURE
     1 L5S1170     1 GROUP   
@<TRIPOS>SET

