#    Name: 2x2k_X2K_1_INTS_M
#    Modification time : Tue Mar 25 05:01:15 2014

@<TRIPOS>MOLECULE
2x2k_X2K_1_INTS_M
   47     0     9     0     0
SMALL
NO_CHARGES


@<TRIPOS>ATOM
      1 CA        -13.3760   13.4290   12.0335 C.3       3 GLC5        0.0000 
      2 CA        -11.5500   13.7780   12.3660 C.3       9 GLL5        0.0000 
      3 CA        -15.2020   13.0800   11.7010 C.3       6 GLP5        0.0000 
      4 CA        -10.0740    6.4585   12.0100 C.3       3 GLC5        0.0000 
      5 CA        -10.5820    5.8950   10.2480 C.3       9 GLL5        0.0000 
      6 CA         -9.5660    7.0220   13.7720 C.3       6 GLP5        0.0000 
      7 O          -8.9570    2.8005   10.1925 O.2       1 ALC1        0.0000 
      8 O         -10.0160    3.6230    9.4830 O.2       7 ALL1        0.0000 
      9 O          -7.8980    1.9780   10.9020 O.2       4 ALP1        0.0000 
     10 CA        -14.0785    4.0695   12.5990 C.3       3 GLC5        0.0000 
     11 CA        -13.1300    4.8780   10.9040 C.3       9 GLL5        0.0000 
     12 CA        -15.0270    3.2610   14.2940 C.3       6 GLP5        0.0000 
     13 O         -14.9915    6.8085   12.2320 O.2       1 ALC1        0.0000 
     14 O         -13.6150    7.2060   11.6800 O.2       7 ALL1        0.0000 
     15 O         -16.3680    6.4110   12.7840 O.2       4 ALP1        0.0000 
     16 N         -14.2045    9.4185   13.4585 N.am      2 SEC2        0.0000 
     17 N         -13.3370    9.4080   12.1600 N.am      8 SEL2        0.0000 
     18 N         -15.0720    9.4290   14.7570 N.am      5 SEP2        0.0000 
     19 CA         -9.6418   11.2628    9.2730 C.3       3 GLC5        0.0000 
     20 CA         -9.3340   11.1530   11.2050 C.3       9 GLL5        0.0000 
     21 CA        -10.6390   11.6420    7.5900 C.3       6 GLP5        0.0000 
     22 CA        -11.3144   13.4124   10.2584 C.3       3 GLC5        0.0000 
     23 CA         -9.5600   12.4320   11.5350 C.3       9 GLL5        0.0000 
     24 CA        -11.7510   13.7070    8.4750 C.3       6 GLP5        0.0000 
     25 CA         -9.9244   12.3444   13.3789 C.3       3 GLC5        0.0000 
     26 CA        -10.8510   12.4830   11.9000 C.3       9 GLL5        0.0000 
     27 CA         -8.9710   11.5710   14.7160 C.3       6 GLP5        0.0000 
     28 CA        -11.7390   10.6113    9.8773 C.3       3 GLC5        0.0000 
     29 CA        -10.5230   10.4010   11.3670 C.3       9 GLL5        0.0000 
     30 CA        -12.9430   11.5100    8.5430 C.3       6 GLP5        0.0000 
     31 CA         -9.2774   11.1066   12.9387 C.3       3 GLC5        0.0000 
     32 CA        -10.3193    7.9666   12.4869 C.3       3 GLC5        0.0000 
     33 CA        -11.6100    8.1100   11.1920 C.3       9 GLL5        0.0000 
     34 CA        -10.9900    3.1045   11.8385 C.3       3 GLC5        0.0000 
     35 CA        -12.1770    4.0350   10.3460 C.3       9 GLL5        0.0000 
     36 CA        -10.4420    1.9300   13.4930 C.3       6 GLP5        0.0000 
     37 CA        -11.1164    5.2295    8.4612 C.3       3 GLC5        0.0000 
     38 CA        -10.7740    5.8370    6.6820 C.3       6 GLP5        0.0000 
     39 CA        -14.3860    6.8053   10.1493 C.3       3 GLC5        0.0000 
     40 CA        -15.7850    8.0570    9.2730 C.3       6 GLP5        0.0000 
     41 CA        -12.3236    7.2022    9.1336 C.3       3 GLC5        0.0000 
     42 CA        -12.8440    6.2290   11.1470 C.3       9 GLL5        0.0000 
     43 CA        -12.4330    7.5760    7.1910 C.3       6 GLP5        0.0000 
     44 CA        -14.5234    4.7969   10.2335 C.3       3 GLC5        0.0000 
     45 CA        -16.2980    4.2510    9.5810 C.3       6 GLP5        0.0000 
     46 CA        -11.7954    5.2254   12.3349 C.3       3 GLC5        0.0000 
     47 CA        -11.4890    5.4700   14.1060 C.3       6 GLP5        0.0000 
@<TRIPOS>BOND
@<TRIPOS>SUBSTRUCTURE
     1 ALC1        7 GROUP        1 X    ALC  0     ROOT ALC X 1
     2 SEC2       16 GROUP        1 X    SEC  0     **** SEC X 2
     3 GLC5        1 GROUP        1 X    GLC  0     **** GLC X 6
     4 ALP1        9 GROUP        1 Y    ALP  0     ROOT ALP Y 8
     5 SEP2       18 GROUP        1 Y    SEP  0     **** SEP Y 9
     6 GLP5        3 GROUP        1 Y    GLP  0     **** GLP Y 13
     7 ALL1        8 GROUP        1 Z    ALL  0     ROOT ALL Z 15
     8 SEL2       17 GROUP        1 Z    SEL  0     **** SEL Z 16
     9 GLL5        2 GROUP        1 Z    GLL  0     **** GLL Z 20
@<TRIPOS>SET

