#    Name: 2x2k_X2K_1_ligand
#    Modification time : Tue Mar 25 05:01:15 2014

@<TRIPOS>MOLECULE
2x2k_X2K_1_ligand
   34    36     1     0     0
SMALL
NO_CHARGES


@<TRIPOS>ATOM
      1 CAB        -7.9550   10.6140   10.7070 C.3       1 X2K2017     0.0000 
      2 CAN        -9.3340   11.1530   11.2050 C.2       1 X2K2017     0.0000 
      3 CAH        -9.5600   12.4320   11.5350 C.2       1 X2K2017     0.0000 
      4 CAL       -10.8510   12.4830   11.9000 C.2       1 X2K2017     0.0000 
      5 CAA       -11.5500   13.7780   12.3660 C.3       1 X2K2017     0.0000 
      6 NAJ       -11.4450   11.2750   11.8050 N.pl3     1 X2K2017     0.0000 
      7 CAO       -10.5230   10.4010   11.3670 C.2       1 X2K2017     0.0000 
      8 CAE       -10.5470    9.0240   11.0560 C.2       1 X2K2017     0.0000 
      9 CAQ       -11.6100    8.1100   11.1920 C.2       1 X2K2017     0.0000 
     10 CAS       -11.5590    6.7460   10.8190 C.ar      1 X2K2017     0.0000 
     11 CAI       -10.5820    5.8950   10.2480 C.ar      1 X2K2017     0.0000 
     12 CAM       -10.8990    4.5230   10.0220 C.ar      1 X2K2017     0.0000 
     13 NAC       -10.0160    3.6230    9.4830 N.pl3     1 X2K2017     0.0000 
     14 CAF       -12.1770    4.0350   10.3460 C.ar      1 X2K2017     0.0000 
     15 CAG       -13.1300    4.8780   10.9040 C.ar      1 X2K2017     0.0000 
     16 CAR       -12.8440    6.2290   11.1470 C.ar      1 X2K2017     0.0000 
     17 NAK       -13.6150    7.2060   11.6800 N.am      1 X2K2017     0.0000 
     18 CAP       -12.9000    8.3410   11.7170 C.2       1 X2K2017     0.0000 
     19 OAD       -13.3370    9.4080   12.1600 O.2       1 X2K2017     0.0000 
     20 H          -8.9396   13.1510   11.5154 H         1 X2K2017     0.0000 
     21 H         -12.3631   11.0785   12.0140 H         1 X2K2017     0.0000 
     22 H          -9.6233    8.6170   10.6597 H         1 X2K2017     0.0000 
     23 H          -9.6669    6.2521   10.0012 H         1 X2K2017     0.0000 
     24 H         -10.3055    3.1752    8.6370 H         1 X2K2017     0.0000 
     25 H          -9.1598    3.4931    9.9831 H         1 X2K2017     0.0000 
     26 H         -12.4006    3.0473   10.1661 H         1 X2K2017     0.0000 
     27 H         -14.0647    4.5095   11.1454 H         1 X2K2017     0.0000 
     28 H         -14.5273    7.0971   11.9814 H         1 X2K2017     0.0000 
     29 H          -7.2342   10.7545   11.3858 H         1 X2K2017     0.0000 
     30 H          -7.9876    9.6336   10.5128 H         1 X2K2017     0.0000 
     31 H          -7.6596   11.0694    9.8672 H         1 X2K2017     0.0000 
     32 H         -11.1129   14.1643   13.1782 H         1 X2K2017     0.0000 
     33 H         -11.5317   14.4850   11.6590 H         1 X2K2017     0.0000 
     34 H         -12.5099   13.6194   12.5971 H         1 X2K2017     0.0000 
@<TRIPOS>BOND
     1    2    1 1    
     2   29    1 1    
     3   30    1 1    
     4   31    1 1    
     5    3    2 1    
     6    7    2 2    
     7    4    3 2    
     8   20    3 1    
     9    5    4 1    
    10    6    4 1    
    11   32    5 1    
    12   33    5 1    
    13   34    5 1    
    14    7    6 1    
    15   21    6 1    
    16    8    7 1    
    17    9    8 2    
    18   22    8 1    
    19   10    9 1    
    20   18    9 1    
    21   11   10 ar   
    22   16   10 ar   
    23   12   11 ar   
    24   23   11 1    
    25   13   12 1    
    26   14   12 ar   
    27   24   13 1    
    28   25   13 1    
    29   15   14 ar   
    30   26   14 1    
    31   16   15 ar   
    32   27   15 1    
    33   17   16 1    
    34   18   17 am   
    35   28   17 1    
    36   19   18 2    
@<TRIPOS>SUBSTRUCTURE
     1 X2K2017     1 GROUP   
@<TRIPOS>SET

