#    Name: 2r3a_SAM_1_INTS_M
#    Modification time : Mon Mar 24 23:04:31 2014

@<TRIPOS>MOLECULE
2r3a_SAM_1_INTS_M
   69     0    12     0     0
SMALL
NO_CHARGES


@<TRIPOS>ATOM
      1 O          33.6000   38.7705   48.8365 O.2       1 ALC1        0.0000 
      2 O          33.0830   38.6110   50.1000 O.2       9 ALL1        0.0000 
      3 O          34.1170   38.9300   47.5730 O.2       5 ALP1        0.0000 
      4 O          31.9785   39.0025   49.2830 O.2       1 ALC1        0.0000 
      5 O          30.8740   39.3940   48.4660 O.2       5 ALP1        0.0000 
      6 N          36.0510   38.4500   49.7810 N.am      2 SEC2        0.0000 
      7 N          35.5710   37.5150   50.7140 N.am     10 SEL2        0.0000 
      8 N          36.5310   39.3850   48.8480 N.am      6 SEP2        0.0000 
      9 NZ         35.2740   34.7555   52.3425 N.4       3 LYC4        0.0000 
     10 NZ         34.9970   35.5490   50.5780 N.4      11 LYL4        0.0000 
     11 NZ         35.5510   33.9620   54.1070 N.4       7 LYP4        0.0000 
     12 CA         28.0475   34.2995   52.0980 C.3       4 GLC5        0.0000 
     13 CA         29.4180   34.1730   50.3960 C.3      12 GLL5        0.0000 
     14 CA         26.6770   34.4260   53.8000 C.3       8 GLP5        0.0000 
     15 CA         27.8850   35.5300   50.0195 C.3       4 GLC5        0.0000 
     16 CA         26.3520   36.8870   49.6430 C.3       8 GLP5        0.0000 
     17 CA         28.0915   35.4810   52.8780 C.3       4 GLC5        0.0000 
     18 CA         29.5060   36.5360   51.9560 C.3      12 GLL5        0.0000 
     19 CA         27.7535   36.8200   51.4560 C.3       4 GLC5        0.0000 
     20 CA         26.0010   37.1040   50.9560 C.3       8 GLP5        0.0000 
     21 CA         31.2055   36.2045   53.9480 C.3       4 GLC5        0.0000 
     22 CA         30.2660   37.5400   52.8440 C.3      12 GLL5        0.0000 
     23 CA         32.1450   34.8690   55.0520 C.3       8 GLP5        0.0000 
     24 CA         29.7950   36.6165   55.2920 C.3       4 GLC5        0.0000 
     25 CA         29.4340   38.2720   53.8640 C.3      12 GLL5        0.0000 
     26 CA         30.1560   34.9610   56.7200 C.3       8 GLP5        0.0000 
     27 CA         27.8820   36.9355   54.2940 C.3       4 GLC5        0.0000 
     28 CA         26.3300   35.5990   54.7240 C.3       8 GLP5        0.0000 
     29 N          27.3240   40.4330   49.0550 N.am      2 SEC2        0.0000 
     30 N          28.1810   41.0440   50.1970 N.am     10 SEL2        0.0000 
     31 N          26.4670   39.8220   47.9130 N.am      6 SEP2        0.0000 
     32 CA         28.8140   41.2835   48.9840 C.3       4 GLC5        0.0000 
     33 CA         28.3110   42.1250   50.9740 C.3      12 GLL5        0.0000 
     34 CA         29.3170   40.4420   46.9940 C.3       8 GLP5        0.0000 
     35 CA         26.4800   41.2100   50.2195 C.3       4 GLC5        0.0000 
     36 CA         24.6490   40.2950   49.4650 C.3       8 GLP5        0.0000 
     37 CA         28.9995   44.2760   49.9550 C.3       4 GLC5        0.0000 
     38 CA         27.6960   43.3860   50.9680 C.3      12 GLL5        0.0000 
     39 CA         30.3030   45.1660   48.9420 C.3       8 GLP5        0.0000 
     40 CA         25.9140   44.4640   51.0310 C.3       4 GLC5        0.0000 
     41 CA         24.1320   45.5420   51.0940 C.3       8 GLP5        0.0000 
     42 CA         26.2420   42.9030   51.8805 C.3       4 GLC5        0.0000 
     43 CA         24.7880   42.4200   52.7930 C.3       8 GLP5        0.0000 
     44 O          26.2370   43.1345   48.8550 O.2       1 ALC1        0.0000 
     45 O          26.7950   43.7430   50.0360 O.2       9 ALL1        0.0000 
     46 O          25.6790   42.5260   47.6740 O.2       5 ALP1        0.0000 
     47 N          27.5630   45.6080   51.9840 N.am      2 SEC2        0.0000 
     48 N          28.0710   44.2820   51.9590 N.am     10 SEL2        0.0000 
     49 N          27.0550   46.9340   52.0090 N.am      6 SEP2        0.0000 
     50 CA         30.0875   44.3715   51.5360 C.3       4 GLC5        0.0000 
     51 CA         28.9900   43.9690   52.9310 C.3      12 GLL5        0.0000 
     52 CA         31.1850   44.7740   50.1410 C.3       8 GLP5        0.0000 
     53 CA         27.1385   45.0360   53.1810 C.3       4 GLC5        0.0000 
     54 CA         25.2870   46.1030   53.4310 C.3       8 GLP5        0.0000 
     55 CA         29.1515   45.9535   52.3265 C.3       4 GLC5        0.0000 
     56 CA         29.3130   47.9380   51.7220 C.3       8 GLP5        0.0000 
     57 CA         27.5830   42.2905   53.2945 C.3       4 GLC5        0.0000 
     58 CA         26.1760   40.6120   53.6580 C.3       8 GLP5        0.0000 
     59 CA         32.2557   35.2780   47.7840 C.3       4 GLC5        0.0000 
     60 CA         30.9890   36.1380   49.5290 C.3      12 GLL5        0.0000 
     61 CA         32.7780   34.3090   46.1720 C.3       8 GLP5        0.0000 
     62 CA         31.1013   35.4045   53.2968 C.3       4 GLC5        0.0000 
     63 CA         30.6090   35.3440   51.1270 C.3      12 GLL5        0.0000 
     64 CA         30.6878   33.1818   51.1238 C.3       4 GLC5        0.0000 
     65 CA         31.3620   31.6050   51.4860 C.3       8 GLP5        0.0000 
     66 CA         27.9847   39.7740   53.7882 C.3       4 GLC5        0.0000 
     67 CA         29.9808   43.3750   50.8067 C.3       4 GLC5        0.0000 
     68 CA         29.2420   41.8270   51.9710 C.3      12 GLL5        0.0000 
     69 CA         27.4763   41.2940   52.5652 C.3       4 GLC5        0.0000 
@<TRIPOS>BOND
@<TRIPOS>SUBSTRUCTURE
     1 ALC1        1 GROUP        1 X    ALC  0     ROOT ALC X 1
     2 SEC2        6 GROUP        1 X    SEC  0     **** SEC X 2
     3 LYC4        9 GROUP        1 X    LYC  0     **** LYC X 4
     4 GLC5       12 GROUP        1 X    GLC  0     **** GLC X 6
     5 ALP1        3 GROUP        1 Y    ALP  0     ROOT ALP Y 8
     6 SEP2        8 GROUP        1 Y    SEP  0     **** SEP Y 9
     7 LYP4       11 GROUP        1 Y    LYP  0     **** LYP Y 11
     8 GLP5       14 GROUP        1 Y    GLP  0     **** GLP Y 13
     9 ALL1        2 GROUP        1 Z    ALL  0     ROOT ALL Z 15
    10 SEL2        7 GROUP        1 Z    SEL  0     **** SEL Z 16
    11 LYL4       10 GROUP        1 Z    LYL  0     **** LYL Z 18
    12 GLL5       13 GROUP        1 Z    GLL  0     **** GLL Z 20
@<TRIPOS>SET

