#    Name: 2r3a_SAM_1_ligand
#    Modification time : Mon Mar 24 23:04:31 2014

@<TRIPOS>MOLECULE
2r3a_SAM_1_ligand
   50    52     1     0     0
SMALL
NO_CHARGES


@<TRIPOS>ATOM
      1 N          33.0830   38.6110   50.1000 N.4       1 SAM304      0.0000 
      2 CA         33.2040   37.1500   50.3410 C.3       1 SAM304      0.0000 
      3 C          34.6680   36.7140   50.5560 C.2       1 SAM304      0.0000 
      4 O          35.5710   37.5150   50.7140 O.co2     1 SAM304      0.0000 
      5 OXT        34.9970   35.5490   50.5780 O.co2     1 SAM304      0.0000 
      6 CB         32.4780   36.3560   49.2630 C.3       1 SAM304      0.0000 
      7 CG         30.9890   36.1380   49.5290 C.3       1 SAM304      0.0000 
      8 SD         30.6090   35.3440   51.1270 S.3       1 SAM304      0.0000 
      9 CE         29.4180   34.1730   50.3960 C.3       1 SAM304      0.0000 
     10 C5'        29.5060   36.5360   51.9560 C.3       1 SAM304      0.0000 
     11 C4'        30.2660   37.5400   52.8440 C.3       1 SAM304      0.0000 
     12 O4'        30.8550   38.5470   52.0260 O.3       1 SAM304      0.0000 
     13 C3'        29.4340   38.2720   53.8640 C.3       1 SAM304      0.0000 
     14 O3'        29.3830   37.6510   55.1240 O.3       1 SAM304      0.0000 
     15 C2'        30.1530   39.6000   53.9730 C.3       1 SAM304      0.0000 
     16 O2'        31.3190   39.4570   54.7450 O.3       1 SAM304      0.0000 
     17 C1'        30.6710   39.8370   52.5680 C.3       1 SAM304      0.0000 
     18 N9         29.6620   40.5600   51.7560 N.pl3     1 SAM304      0.0000 
     19 C8         28.9960   40.0890   50.6500 C.2       1 SAM304      0.0000 
     20 N7         28.1810   41.0440   50.1970 N.2       1 SAM304      0.0000 
     21 C5         28.3110   42.1250   50.9740 C.ar      1 SAM304      0.0000 
     22 C6         27.6960   43.3860   50.9680 C.ar      1 SAM304      0.0000 
     23 N6         26.7950   43.7430   50.0360 N.pl3     1 SAM304      0.0000 
     24 N1         28.0710   44.2820   51.9590 N.ar      1 SAM304      0.0000 
     25 C2         28.9900   43.9690   52.9310 C.ar      1 SAM304      0.0000 
     26 N3         29.5990   42.7340   52.9190 N.ar      1 SAM304      0.0000 
     27 C4         29.2420   41.8270   51.9710 C.ar      1 SAM304      0.0000 
     28 H          32.6699   36.9322   51.3069 H         1 SAM304      0.0000 
     29 H          32.9672   35.3709   49.1516 H         1 SAM304      0.0000 
     30 H          32.5937   36.8762   48.2944 H         1 SAM304      0.0000 
     31 H          30.5200   35.4638   48.8261 H         1 SAM304      0.0000 
     32 H          30.4241   37.0573   49.5951 H         1 SAM304      0.0000 
     33 H          28.8493   35.8939   52.5076 H         1 SAM304      0.0000 
     34 H          29.0041   36.9961   51.1288 H         1 SAM304      0.0000 
     35 H          31.0554   36.9997   53.3695 H         1 SAM304      0.0000 
     36 H          28.4732   38.4703   53.4357 H         1 SAM304      0.0000 
     37 H          29.5226   40.3513   54.2448 H         1 SAM304      0.0000 
     38 H          31.5764   40.3776   52.6218 H         1 SAM304      0.0000 
     39 H          29.1147   39.2045   50.2777 H         1 SAM304      0.0000 
     40 H          26.9115   43.3329   49.1314 H         1 SAM304      0.0000 
     41 H          26.0888   44.3867   50.3306 H         1 SAM304      0.0000 
     42 H          29.2233   44.6534   53.6654 H         1 SAM304      0.0000 
     43 H          33.5958   38.8976   49.2908 H         1 SAM304      0.0000 
     44 H          32.1324   38.8864   49.9573 H         1 SAM304      0.0000 
     45 H          33.4301   39.1446   50.8712 H         1 SAM304      0.0000 
     46 H          29.8733   33.4830   49.8333 H         1 SAM304      0.0000 
     47 H          28.8998   33.6838   51.0976 H         1 SAM304      0.0000 
     48 H          28.7531   34.6366   49.8104 H         1 SAM304      0.0000 
     49 H          28.6431   38.1148   55.6112 H         1 SAM304      0.0000 
     50 H          31.1883   38.6074   55.2560 H         1 SAM304      0.0000 
@<TRIPOS>BOND
     1    2    1 1    
     2   43    1 1    
     3   44    1 1    
     4   45    1 1    
     5    3    2 1    
     6    6    2 1    
     7   28    2 1    
     8    4    3 ar   
     9    5    3 ar   
    10    7    6 1    
    11   29    6 1    
    12   30    6 1    
    13    8    7 1    
    14   31    7 1    
    15   32    7 1    
    16    9    8 1    
    17   10    8 1    
    18   46    9 1    
    19   47    9 1    
    20   48    9 1    
    21   11   10 1    
    22   33   10 1    
    23   34   10 1    
    24   12   11 1    
    25   13   11 1    
    26   35   11 1    
    27   17   12 1    
    28   14   13 1    
    29   15   13 1    
    30   36   13 1    
    31   49   14 1    
    32   16   15 1    
    33   17   15 1    
    34   37   15 1    
    35   50   16 1    
    36   18   17 1    
    37   38   17 1    
    38   19   18 1    
    39   27   18 1    
    40   20   19 2    
    41   39   19 1    
    42   21   20 1    
    43   22   21 ar   
    44   27   21 ar   
    45   23   22 1    
    46   24   22 ar   
    47   40   23 1    
    48   41   23 1    
    49   25   24 ar   
    50   26   25 ar   
    51   42   25 1    
    52   27   26 ar   
@<TRIPOS>SUBSTRUCTURE
     1 SAM304      1 GROUP   
@<TRIPOS>SET

