#    Name: 2aov_C2M_4_INTS_M
#    Modification time : Mon Mar 24 19:33:00 2014

@<TRIPOS>MOLECULE
2aov_C2M_4_INTS_M
   34     0     6     0     0
SMALL
NO_CHARGES


@<TRIPOS>ATOM
      1 CA         51.3330   -7.0770   28.1580 C.3       2 GLC5        0.0000 
      2 CA         52.9270   -8.3720   28.9160 C.3       6 GLL5        0.0000 
      3 CA         49.7390   -5.7820   27.4000 C.3       4 GLP5        0.0000 
      4 CA         49.6630  -13.2625   30.5595 C.3       2 GLC5        0.0000 
      5 CA         51.7440  -13.4640   29.9650 C.3       6 GLL5        0.0000 
      6 CA         47.5820  -13.0610   31.1540 C.3       4 GLP5        0.0000 
      7 O          53.1380   -6.0210   27.5990 O.2       1 ALC1        0.0000 
      8 O          52.8900   -6.9540   28.7200 O.2       5 ALL1        0.0000 
      9 O          53.3860   -5.0880   26.4780 O.2       3 ALP1        0.0000 
     10 O          51.4580  -10.4605   32.9190 O.2       1 ALC1        0.0000 
     11 O          52.2030  -10.5710   31.8700 O.2       5 ALL1        0.0000 
     12 O          50.7130  -10.3500   33.9680 O.2       3 ALP1        0.0000 
     13 CA         52.9075  -11.3085   25.4165 C.3       2 GLC5        0.0000 
     14 CA         53.7230  -11.5400   27.0880 C.3       6 GLL5        0.0000 
     15 CA         52.0920  -11.0770   23.7450 C.3       4 GLP5        0.0000 
     16 CA         55.0395  -12.0625   26.0820 C.3       2 GLC5        0.0000 
     17 CA         56.3560  -12.5850   25.0760 C.3       4 GLP5        0.0000 
     18 CA         53.1705  -13.6620   26.9860 C.3       2 GLC5        0.0000 
     19 CA         52.6180  -15.7840   26.8840 C.3       4 GLP5        0.0000 
     20 CA         53.1125  -17.1395   28.8460 C.3       2 GLC5        0.0000 
     21 CA         53.2640  -17.1550   31.0310 C.3       6 GLL5        0.0000 
     22 CA         52.9610  -17.1240   26.6610 C.3       4 GLP5        0.0000 
     23 CA         52.6530  -18.5155   30.2965 C.3       2 GLC5        0.0000 
     24 CA         52.0420  -19.8760   29.5620 C.3       4 GLP5        0.0000 
     25 CA         54.6860  -17.2675   32.4985 C.3       2 GLC5        0.0000 
     26 CA         56.1080  -17.3800   33.9660 C.3       4 GLP5        0.0000 
     27 CA         49.1585  -14.3650   29.5090 C.3       2 GLC5        0.0000 
     28 CA         50.2120  -15.5620   30.3370 C.3       6 GLL5        0.0000 
     29 CA         48.1050  -13.1680   28.6810 C.3       4 GLP5        0.0000 
     30 CA         51.4150  -15.6730   28.6105 C.3       2 GLC5        0.0000 
     31 CA         50.1790  -16.1255   32.3260 C.3       2 GLC5        0.0000 
     32 CA         50.1460  -16.6890   34.3150 C.3       4 GLP5        0.0000 
     33 CA         49.1800  -16.9575   29.2705 C.3       2 GLC5        0.0000 
     34 CA         48.1480  -18.3530   28.2040 C.3       4 GLP5        0.0000 
@<TRIPOS>BOND
@<TRIPOS>SUBSTRUCTURE
     1 ALC1        7 GROUP        1 X    ALC  0     ROOT ALC X 1
     2 GLC5        1 GROUP        1 X    GLC  0     **** GLC X 6
     3 ALP1        9 GROUP        1 Y    ALP  0     ROOT ALP Y 8
     4 GLP5        3 GROUP        1 Y    GLP  0     **** GLP Y 13
     5 ALL1        8 GROUP        1 Z    ALL  0     ROOT ALL Z 15
     6 GLL5        2 GROUP        1 Z    GLL  0     **** GLL Z 20
@<TRIPOS>SET

