#    Name: 2aov_C2M_4_ligand
#    Modification time : Mon Mar 24 19:33:00 2014

@<TRIPOS>MOLECULE
2aov_C2M_4_ligand
   27    28     1     0     0
SMALL
NO_CHARGES


@<TRIPOS>ATOM
      1 N1         53.2980   -9.2980   27.9300 N.ar      1 C2M400      0.0000 
      2 C2         52.9270   -8.3720   28.9160 C.ar      1 C2M400      0.0000 
      3 N2         52.5660   -8.8490   30.1890 N.ar      1 C2M400      0.0000 
      4 C3         52.5720  -10.2090   30.5280 C.ar      1 C2M400      0.0000 
      5 C4         52.9570  -11.2590   29.5560 C.ar      1 C2M400      0.0000 
      6 C5         53.3140  -10.7000   28.2280 C.ar      1 C2M400      0.0000 
      7 C6         52.9830  -12.6950   29.9010 C.ar      1 C2M400      0.0000 
      8 C7         51.7440  -13.4640   29.9650 C.ar      1 C2M400      0.0000 
      9 C8         51.7620  -14.8700   30.3080 C.ar      1 C2M400      0.0000 
     10 C9         53.0860  -15.5480   30.5980 C.ar      1 C2M400      0.0000 
     11 C10        54.3360  -14.8290   30.5360 C.ar      1 C2M400      0.0000 
     12 C11        54.2820  -13.4040   30.1910 C.ar      1 C2M400      0.0000 
     13 N3         52.8900   -6.9540   28.7200 N.pl3     1 C2M400      0.0000 
     14 N4         52.2030  -10.5710   31.8700 N.pl3     1 C2M400      0.0000 
     15 C12        53.7230  -11.5400   27.0880 C.3       1 C2M400      0.0000 
     16 CL1        53.2640  -17.1550   31.0310 Cl        1 C2M400      0.0000 
     17 CL2        50.2120  -15.5620   30.3370 Cl        1 C2M400      0.0000 
     18 H          50.8640  -13.0034   29.7661 H         1 C2M400      0.0000 
     19 H          55.2020  -15.2702   30.7173 H         1 C2M400      0.0000 
     20 H          55.1372  -12.8632   30.1415 H         1 C2M400      0.0000 
     21 H          53.1295   -6.6299   27.8047 H         1 C2M400      0.0000 
     22 H          52.6278   -6.4066   29.5147 H         1 C2M400      0.0000 
     23 H          52.6028  -11.4167   32.2233 H         1 C2M400      0.0000 
     24 H          51.5773   -9.9468   32.3379 H         1 C2M400      0.0000 
     25 H          54.6439  -11.3130   26.7710 H         1 C2M400      0.0000 
     26 H          53.7256  -12.5116   27.3247 H         1 C2M400      0.0000 
     27 H          53.1087  -11.4303   26.3066 H         1 C2M400      0.0000 
@<TRIPOS>BOND
     1    2    1 ar   
     2    6    1 ar   
     3    3    2 ar   
     4   13    2 1    
     5    4    3 ar   
     6    5    4 ar   
     7   14    4 1    
     8    6    5 ar   
     9    7    5 1    
    10   15    6 1    
    11    8    7 ar   
    12   12    7 ar   
    13    9    8 ar   
    14   18    8 1    
    15   10    9 ar   
    16   17    9 1    
    17   11   10 ar   
    18   16   10 1    
    19   12   11 ar   
    20   19   11 1    
    21   20   12 1    
    22   21   13 1    
    23   22   13 1    
    24   23   14 1    
    25   24   14 1    
    26   25   15 1    
    27   26   15 1    
    28   27   15 1    
@<TRIPOS>SUBSTRUCTURE
     1 C2M400      1 GROUP   
@<TRIPOS>SET

