#    Name: 4dql_FAD_3_INTS_M
#    Modification time : Tue Mar 25 10:05:10 2014

@<TRIPOS>MOLECULE
4dql_FAD_3_INTS_M
  111     0    12     0     0
SMALL
NO_CHARGES


@<TRIPOS>ATOM
      1 N          60.8580   71.5790   68.4505 N.am      2 SEC2        0.0000 
      2 N          61.1980   70.1030   68.2480 N.am     10 SEL2        0.0000 
      3 N          60.5180   73.0550   68.6530 N.am      6 SEP2        0.0000 
      4 N          60.2930   69.9645   69.3370 N.am      2 SEC2        0.0000 
      5 N          59.3880   69.8260   70.4260 N.am      6 SEP2        0.0000 
      6 NZ         60.6975   67.9890   66.3545 N.4       3 LYC4        0.0000 
      7 NZ         62.1020   68.0240   66.9630 N.4      11 LYL4        0.0000 
      8 NZ         58.8330   66.7190   65.7510 N.4       7 LYP4        0.0000 
      9 N          60.6975   67.9890   66.3545 N.am      2 SEC2        0.0000 
     10 N          62.1020   68.0240   66.9630 N.am     10 SEL2        0.0000 
     11 N          59.2930   67.9540   65.7460 N.am      6 SEP2        0.0000 
     12 N          63.6260   71.0810   68.1280 N.am      2 SEC2        0.0000 
     13 N          63.6190   69.6990   68.0940 N.am     10 SEL2        0.0000 
     14 N          63.6330   72.4630   68.1620 N.am      6 SEP2        0.0000 
     15 O          69.9880   68.1720   68.0510 O.2       1 ALC1        0.0000 
     16 O          69.4490   69.6620   67.9910 O.2       9 ALL1        0.0000 
     17 O          70.5270   66.6820   68.1110 O.2       5 ALP1        0.0000 
     18 CA         67.7450   72.1460   66.7560 C.3       4 GLC5        0.0000 
     19 CA         67.5050   71.0120   68.3180 C.3      12 GLL5        0.0000 
     20 CA         67.9850   73.2800   65.1940 C.3       8 GLP5        0.0000 
     21 CA         65.8645   72.0010   69.3590 C.3       4 GLC5        0.0000 
     22 CA         64.2240   72.9900   70.4000 C.3       8 GLP5        0.0000 
     23 CA         67.2520   77.0535   71.2590 C.3       4 GLC5        0.0000 
     24 CA         67.8370   75.0230   71.0890 C.3      12 GLL5        0.0000 
     25 CA         66.6670   79.0840   71.4290 C.3       8 GLP5        0.0000 
     26 CA         66.0940   75.6865   71.6770 C.3       4 GLC5        0.0000 
     27 CA         64.3510   76.3500   72.2650 C.3       8 GLP5        0.0000 
     28 O          68.2990   76.8195   72.7690 O.2       1 ALC1        0.0000 
     29 O          68.0190   75.4620   72.3370 O.2       9 ALL1        0.0000 
     30 O          68.5790   78.1770   73.2010 O.2       5 ALP1        0.0000 
     31 N          68.0780   77.3580   70.0095 N.am      2 SEC2        0.0000 
     32 N          67.6010   75.9630   70.0680 N.am     10 SEL2        0.0000 
     33 N          68.5550   78.7530   69.9510 N.am      6 SEP2        0.0000 
     34 CA         67.4920   75.5720   66.6715 C.3       4 GLC5        0.0000 
     35 CA         67.4100   75.4660   68.7770 C.3      12 GLL5        0.0000 
     36 CA         67.5740   75.6780   64.5660 C.3       8 GLP5        0.0000 
     37 CA         68.8955   76.6865   68.6385 C.3       4 GLC5        0.0000 
     38 CA         70.3810   77.9070   68.5000 C.3       8 GLP5        0.0000 
     39 N          67.0020   73.6460   67.0600 N.am      2 SEC2        0.0000 
     40 N          67.4030   74.1480   68.5030 N.am     10 SEL2        0.0000 
     41 N          66.6010   73.1440   65.6170 N.am      6 SEP2        0.0000 
     42 CA         67.8005   73.2580   67.3295 C.3       4 GLC5        0.0000 
     43 CA         67.6160   73.2360   69.4650 C.3      12 GLL5        0.0000 
     44 N          64.2760   61.6540   75.8135 N.am      2 SEC2        0.0000 
     45 N          64.5150   61.0220   74.4950 N.am     10 SEL2        0.0000 
     46 N          64.0370   62.2860   77.1320 N.am      6 SEP2        0.0000 
     47 O          63.9780   58.6205   75.3415 O.2       1 ALC1        0.0000 
     48 O          64.5770   58.8190   74.0220 O.2       9 ALL1        0.0000 
     49 O          63.3790   58.4220   76.6610 O.2       5 ALP1        0.0000 
     50 N          63.6105   55.7115   72.8185 N.am      2 SEC2        0.0000 
     51 N          64.4880   56.6450   73.5920 N.am     10 SEL2        0.0000 
     52 N          62.7330   54.7780   72.0450 N.am      6 SEP2        0.0000 
     53 N          63.8730   55.9295   71.4005 N.am      2 SEC2        0.0000 
     54 N          65.0130   57.0810   70.7560 N.am     10 SEL2        0.0000 
     55 CA         63.2290   57.0220   70.3550 C.3       4 GLC5        0.0000 
     56 CA         65.1540   57.4460   69.4650 C.3      12 GLL5        0.0000 
     57 CA         61.3040   56.5980   71.2450 C.3       8 GLP5        0.0000 
     58 CA         67.0865   58.8795   66.5935 C.3       4 GLC5        0.0000 
     59 CA         65.5310   58.5270   65.2850 C.3      12 GLL5        0.0000 
     60 CA         68.6420   59.2320   67.9020 C.3       8 GLP5        0.0000 
     61 CA         66.7320   60.9355   69.8625 C.3       4 GLC5        0.0000 
     62 CA         65.0340   61.2400   69.6690 C.3      12 GLL5        0.0000 
     63 CA         68.4300   60.6310   70.0560 C.3       8 GLP5        0.0000 
     64 CA         62.3800   61.2430   70.9950 C.3       4 GLC5        0.0000 
     65 CA         63.5560   61.6850   69.5450 C.3      12 GLL5        0.0000 
     66 CA         61.2040   60.8010   72.4450 C.3       8 GLP5        0.0000 
     67 N          61.5470   60.0695   67.9450 N.am      2 SEC2        0.0000 
     68 N          62.7720   60.9640   68.5920 N.am     10 SEL2        0.0000 
     69 N          60.3220   59.1750   67.2980 N.am      6 SEP2        0.0000 
     70 O          62.4460   59.7295   68.9830 O.2       1 ALC1        0.0000 
     71 O          62.7720   60.9640   68.5920 O.2       9 ALL1        0.0000 
     72 O          62.1200   58.4950   69.3740 O.2       5 ALP1        0.0000 
     73 CA         61.6205   63.3285   68.3900 C.3       4 GLC5        0.0000 
     74 CA         63.3320   63.1560   69.2680 C.3      12 GLL5        0.0000 
     75 CA         59.9090   63.5010   67.5120 C.3       8 GLP5        0.0000 
     76 CA         61.7590   62.2380   70.4630 C.3       4 GLC5        0.0000 
     77 CA         60.1860   61.3200   71.6580 C.3       8 GLP5        0.0000 
     78 O          61.4875   63.2100   71.5000 O.2       1 ALC1        0.0000 
     79 O          62.8180   63.7430   71.5320 O.2       9 ALL1        0.0000 
     80 O          60.1570   62.6770   71.4680 O.2       5 ALP1        0.0000 
     81 CA         64.3145   66.5735   71.6815 C.3       4 GLC5        0.0000 
     82 CA         63.5760   65.4650   70.1140 C.3      12 GLL5        0.0000 
     83 CA         65.0530   67.6820   73.2490 C.3       8 GLP5        0.0000 
     84 NZ         59.7485   66.3520   67.8420 N.4       3 LYC4        0.0000 
     85 NZ         60.1110   66.9060   69.1200 N.4      11 LYL4        0.0000 
     86 N          59.7485   66.3520   67.8420 N.am      2 SEC2        0.0000 
     87 N          60.1110   66.9060   69.1200 N.am     10 SEL2        0.0000 
     88 N          59.3860   65.7980   66.5640 N.am      6 SEP2        0.0000 
     89 N          58.9960   67.0555   69.8400 N.am      2 SEC2        0.0000 
     90 N          57.8810   67.2050   70.5600 N.am      6 SEP2        0.0000 
     91 N          60.0695   66.5895   72.1245 N.am      2 SEC2        0.0000 
     92 N          61.1140   67.1190   71.3710 N.am     10 SEL2        0.0000 
     93 N          59.0250   66.0600   72.8780 N.am      6 SEP2        0.0000 
     94 N          61.2640   67.1415   72.7660 N.am      2 SEC2        0.0000 
     95 N          61.4140   67.1640   74.1610 N.am      6 SEP2        0.0000 
     96 CA         69.5470   71.4712   68.4583 C.3       4 GLC5        0.0000 
     97 CA         68.1070   69.6110   68.4170 C.3      12 GLL5        0.0000 
     98 CA         71.2880   72.6310   68.5490 C.3       8 GLP5        0.0000 
     99 CA         66.9245   58.0955   68.4455 C.3       4 GLC5        0.0000 
    100 CA         67.0320   58.3188   67.4267 C.3       4 GLC5        0.0000 
    101 CA         65.4290   56.7390   67.1550 C.3      12 GLL5        0.0000 
    102 CA         64.4574   54.6059   67.7653 C.3       4 GLC5        0.0000 
    103 CA         65.2600   56.4720   68.5130 C.3      12 GLL5        0.0000 
    104 CA         63.4760   53.1350   68.5150 C.3       8 GLP5        0.0000 
    105 CA         63.4594   56.6299   66.8247 C.3       4 GLC5        0.0000 
    106 CA         65.5330   55.5480   66.1970 C.3      12 GLL5        0.0000 
    107 CA         61.4800   57.1830   66.6340 C.3       8 GLP5        0.0000 
    108 CA         63.4320   57.9339   66.7496 C.3       4 GLC5        0.0000 
    109 CA         65.4150   58.0720   66.7480 C.3      12 GLL5        0.0000 
    110 CA         66.9343   59.0780   68.1485 C.3       4 GLC5        0.0000 
    111 CA         65.2950   59.0700   67.7140 C.3      12 GLL5        0.0000 
@<TRIPOS>BOND
@<TRIPOS>SUBSTRUCTURE
     1 ALC1       15 GROUP        1 X    ALC  0     ROOT ALC X 1
     2 SEC2        1 GROUP        1 X    SEC  0     **** SEC X 2
     3 LYC4        6 GROUP        1 X    LYC  0     **** LYC X 4
     4 GLC5       18 GROUP        1 X    GLC  0     **** GLC X 6
     5 ALP1       17 GROUP        1 Y    ALP  0     ROOT ALP Y 8
     6 SEP2        3 GROUP        1 Y    SEP  0     **** SEP Y 9
     7 LYP4        8 GROUP        1 Y    LYP  0     **** LYP Y 11
     8 GLP5       20 GROUP        1 Y    GLP  0     **** GLP Y 13
     9 ALL1       16 GROUP        1 Z    ALL  0     ROOT ALL Z 15
    10 SEL2        2 GROUP        1 Z    SEL  0     **** SEL Z 16
    11 LYL4        7 GROUP        1 Z    LYL  0     **** LYL Z 18
    12 GLL5       19 GROUP        1 Z    GLL  0     **** GLL Z 20
@<TRIPOS>SET

