#    Name: 4dql_FAD_3_ligand
#    Modification time : Tue Mar 25 10:05:10 2014

@<TRIPOS>MOLECULE
4dql_FAD_3_ligand
   84    89     1     0     0
SMALL
NO_CHARGES


@<TRIPOS>ATOM
      1 PA         62.2150   69.0310   68.0720 P.3       1 FAD1101     0.0000 
      2 O1A        61.1980   70.1030   68.2480 O.co2     1 FAD1101     0.0000 
      3 O2A        62.1020   68.0240   66.9630 O.co2     1 FAD1101     0.0000 
      4 O5B        63.6190   69.6990   68.0940 O.3       1 FAD1101     0.0000 
      5 C5B        64.7760   68.8320   68.0130 C.3       1 FAD1101     0.0000 
      6 C4B        65.9150   69.5960   67.4070 C.3       1 FAD1101     0.0000 
      7 O4B        66.0940   70.8070   68.1450 O.3       1 FAD1101     0.0000 
      8 C3B        67.2820   68.9090   67.3710 C.3       1 FAD1101     0.0000 
      9 O3B        67.8200   69.2290   66.0950 O.3       1 FAD1101     0.0000 
     10 C2B        68.1070   69.6110   68.4170 C.3       1 FAD1101     0.0000 
     11 O2B        69.4490   69.6620   67.9910 O.3       1 FAD1101     0.0000 
     12 C1B        67.5050   71.0120   68.3180 C.3       1 FAD1101     0.0000 
     13 N9A        67.7120   71.8840   69.4560 N.pl3     1 FAD1101     0.0000 
     14 C8A        67.9620   71.4650   70.7490 C.2       1 FAD1101     0.0000 
     15 N7A        68.0380   72.5550   71.5310 N.2       1 FAD1101     0.0000 
     16 C5A        67.8460   73.6620   70.7800 C.ar      1 FAD1101     0.0000 
     17 C6A        67.8370   75.0230   71.0890 C.ar      1 FAD1101     0.0000 
     18 N6A        68.0190   75.4620   72.3370 N.pl3     1 FAD1101     0.0000 
     19 N1A        67.6010   75.9630   70.0680 N.ar      1 FAD1101     0.0000 
     20 C2A        67.4100   75.4660   68.7770 C.ar      1 FAD1101     0.0000 
     21 N3A        67.4030   74.1480   68.5030 N.ar      1 FAD1101     0.0000 
     22 C4A        67.6160   73.2360   69.4650 C.ar      1 FAD1101     0.0000 
     23 N1         64.8440   60.3910   72.3070 N.2       1 FAD1101     0.0000 
     24 C2         64.6450   60.1260   73.6490 C.2       1 FAD1101     0.0000 
     25 O2         64.5150   61.0220   74.4950 O.2       1 FAD1101     0.0000 
     26 N3         64.5770   58.8190   74.0220 N.am      1 FAD1101     0.0000 
     27 C4         64.6900   57.7840   73.1210 C.2       1 FAD1101     0.0000 
     28 O4         64.4880   56.6450   73.5920 O.2       1 FAD1101     0.0000 
     29 C4X        64.8960   58.0690   71.7430 C.2       1 FAD1101     0.0000 
     30 N5         65.0130   57.0810   70.7560 N.2       1 FAD1101     0.0000 
     31 C5X        65.1540   57.4460   69.4650 C.ar      1 FAD1101     0.0000 
     32 C6         65.2600   56.4720   68.5130 C.ar      1 FAD1101     0.0000 
     33 C7         65.4290   56.7390   67.1550 C.ar      1 FAD1101     0.0000 
     34 C7M        65.5330   55.5480   66.1970 C.3       1 FAD1101     0.0000 
     35 C8         65.4150   58.0720   66.7480 C.ar      1 FAD1101     0.0000 
     36 C8M        65.5310   58.5270   65.2850 C.3       1 FAD1101     0.0000 
     37 C9         65.2950   59.0700   67.7140 C.ar      1 FAD1101     0.0000 
     38 C9A        65.1580   58.7780   69.0760 C.ar      1 FAD1101     0.0000 
     39 N10        65.0540   59.7530   70.0140 N.pl3     1 FAD1101     0.0000 
     40 C10        64.9040   59.3950   71.3500 C.2       1 FAD1101     0.0000 
     41 C1'        65.0340   61.2400   69.6690 C.3       1 FAD1101     0.0000 
     42 C2'        63.5560   61.6850   69.5450 C.3       1 FAD1101     0.0000 
     43 O2'        62.7720   60.9640   68.5920 O.3       1 FAD1101     0.0000 
     44 C3'        63.3320   63.1560   69.2680 C.3       1 FAD1101     0.0000 
     45 O3'        64.1090   63.6010   68.1840 O.3       1 FAD1101     0.0000 
     46 C4'        63.7070   64.0080   70.4840 C.3       1 FAD1101     0.0000 
     47 O4'        62.8180   63.7430   71.5320 O.3       1 FAD1101     0.0000 
     48 C5'        63.5760   65.4650   70.1140 C.3       1 FAD1101     0.0000 
     49 O5'        62.2750   65.7130   69.5090 O.3       1 FAD1101     0.0000 
     50 P          61.3960   66.9930   69.8850 P.3       1 FAD1101     0.0000 
     51 O1P        60.1110   66.9060   69.1200 O.co2     1 FAD1101     0.0000 
     52 O2P        61.1140   67.1190   71.3710 O.co2     1 FAD1101     0.0000 
     53 O3P        62.2040   68.3240   69.5300 O.3       1 FAD1101     0.0000 
     54 H          64.5663   67.9580   67.3909 H         1 FAD1101     0.0000 
     55 H          65.0730   68.4833   69.0056 H         1 FAD1101     0.0000 
     56 H          65.6547   69.8624   66.3722 H         1 FAD1101     0.0000 
     57 H          67.1837   67.9135   67.5639 H         1 FAD1101     0.0000 
     58 H          67.9239   69.2212   69.3405 H         1 FAD1101     0.0000 
     59 H          67.8956   71.4685   67.4052 H         1 FAD1101     0.0000 
     60 H          68.0603   70.5510   71.0181 H         1 FAD1101     0.0000 
     61 H          68.7967   76.0744   72.4790 H         1 FAD1101     0.0000 
     62 H          67.3612   75.1390   73.0174 H         1 FAD1101     0.0000 
     63 H          67.2680   76.1654   68.0037 H         1 FAD1101     0.0000 
     64 H          64.4324   58.5828   75.0384 H         1 FAD1101     0.0000 
     65 H          65.2128   55.4594   68.8097 H         1 FAD1101     0.0000 
     66 H          65.3075   60.0679   67.4143 H         1 FAD1101     0.0000 
     67 H          65.5286   61.4036   68.7285 H         1 FAD1101     0.0000 
     68 H          65.5043   61.8037   70.4545 H         1 FAD1101     0.0000 
     69 H          63.0875   61.5064   70.5661 H         1 FAD1101     0.0000 
     70 H          62.2734   63.3162   69.0818 H         1 FAD1101     0.0000 
     71 H          64.7209   63.8059   70.7403 H         1 FAD1101     0.0000 
     72 H          64.3832   65.7238   69.4192 H         1 FAD1101     0.0000 
     73 H          63.7049   66.0692   71.0194 H         1 FAD1101     0.0000 
     74 H          65.6507   55.8432   65.2488 H         1 FAD1101     0.0000 
     75 H          66.3102   54.9593   66.4193 H         1 FAD1101     0.0000 
     76 H          64.7138   54.9753   66.2261 H         1 FAD1101     0.0000 
     77 H          66.3890   58.2254   64.8692 H         1 FAD1101     0.0000 
     78 H          64.7887   58.1625   64.7227 H         1 FAD1101     0.0000 
     79 H          65.4995   59.5231   65.2022 H         1 FAD1101     0.0000 
     80 H          68.6972   69.6691   66.2870 H         1 FAD1101     0.0000 
     81 H          69.7658   68.7139   68.0199 H         1 FAD1101     0.0000 
     82 H          62.5830   60.0831   69.0260 H         1 FAD1101     0.0000 
     83 H          64.9694   63.9075   68.5911 H         1 FAD1101     0.0000 
     84 H          62.0610   63.2447   71.1094 H         1 FAD1101     0.0000 
@<TRIPOS>BOND
     1    2    1 ar   
     2    3    1 ar   
     3    4    1 1    
     4   53    1 1    
     5    5    4 1    
     6    6    5 1    
     7   54    5 1    
     8   55    5 1    
     9    7    6 1    
    10    8    6 1    
    11   56    6 1    
    12   12    7 1    
    13    9    8 1    
    14   10    8 1    
    15   57    8 1    
    16   80    9 1    
    17   11   10 1    
    18   12   10 1    
    19   58   10 1    
    20   81   11 1    
    21   13   12 1    
    22   59   12 1    
    23   14   13 1    
    24   22   13 1    
    25   15   14 2    
    26   60   14 1    
    27   16   15 1    
    28   17   16 ar   
    29   22   16 ar   
    30   18   17 1    
    31   19   17 ar   
    32   61   18 1    
    33   62   18 1    
    34   20   19 ar   
    35   21   20 ar   
    36   63   20 1    
    37   22   21 ar   
    38   24   23 1    
    39   40   23 2    
    40   25   24 2    
    41   26   24 am   
    42   27   26 am   
    43   64   26 1    
    44   28   27 2    
    45   29   27 1    
    46   30   29 2    
    47   40   29 1    
    48   31   30 1    
    49   32   31 ar   
    50   38   31 ar   
    51   33   32 ar   
    52   65   32 1    
    53   34   33 1    
    54   35   33 ar   
    55   74   34 1    
    56   75   34 1    
    57   76   34 1    
    58   36   35 1    
    59   37   35 ar   
    60   77   36 1    
    61   78   36 1    
    62   79   36 1    
    63   38   37 ar   
    64   66   37 1    
    65   39   38 1    
    66   40   39 1    
    67   41   39 1    
    68   42   41 1    
    69   67   41 1    
    70   68   41 1    
    71   43   42 1    
    72   44   42 1    
    73   69   42 1    
    74   82   43 1    
    75   45   44 1    
    76   46   44 1    
    77   70   44 1    
    78   83   45 1    
    79   47   46 1    
    80   48   46 1    
    81   71   46 1    
    82   84   47 1    
    83   49   48 1    
    84   72   48 1    
    85   73   48 1    
    86   50   49 1    
    87   51   50 ar   
    88   52   50 ar   
    89   53   50 1    
@<TRIPOS>SUBSTRUCTURE
     1 FAD1101     1 GROUP   
@<TRIPOS>SET

