#    Name: 1xuo_LA1_1_INTS_M
#    Modification time : Mon Apr  7 15:31:49 2014

@<TRIPOS>MOLECULE
1xuo_LA1_1_INTS_M
   95     0     9     0     0
SMALL
NO_CHARGES


@<TRIPOS>ATOM
      1 O           8.1320   50.4295   42.4575 O.2       1 ALC1        0.0000 
      2 O           7.4750   49.8360   43.6580 O.2       7 ALL1        0.0000 
      3 O           8.7890   51.0230   41.2570 O.2       4 ALP1        0.0000 
      4 CA          9.4540   49.9330   44.1970 C.3       3 GLC5        0.0000 
      5 CA          7.6380   50.6520   44.8480 C.3       9 GLL5        0.0000 
      6 CA         11.2700   49.2140   43.5460 C.3       6 GLP5        0.0000 
      7 CA          8.5270   49.0470   45.9270 C.3       3 GLC5        0.0000 
      8 CA          9.4160   47.4420   47.0060 C.3       6 GLP5        0.0000 
      9 CA          1.7635   42.8735   40.1460 C.3       3 GLC5        0.0000 
     10 CA          3.4390   43.9140   39.2930 C.3       9 GLL5        0.0000 
     11 CA          0.0880   41.8330   40.9990 C.3       6 GLP5        0.0000 
     12 CA          4.3155   41.4665   38.2710 C.3       3 GLC5        0.0000 
     13 CA          3.3160   43.2050   38.0900 C.3       9 GLL5        0.0000 
     14 CA          5.3150   39.7280   38.4520 C.3       6 GLP5        0.0000 
     15 CA          1.3545   43.3700   37.3830 C.3       3 GLC5        0.0000 
     16 CA         -0.6070   43.5350   36.6760 C.3       6 GLP5        0.0000 
     17 CA          4.2710   46.0205   34.9965 C.3       3 GLC5        0.0000 
     18 CA          4.4940   44.9510   36.9110 C.3       9 GLL5        0.0000 
     19 CA          4.0480   47.0900   33.0820 C.3       6 GLP5        0.0000 
     20 CA          5.7275   49.7470   39.9240 C.3       3 GLC5        0.0000 
     21 CA          5.4200   47.6380   39.2680 C.3       9 GLL5        0.0000 
     22 CA          6.0350   51.8560   40.5800 C.3       6 GLP5        0.0000 
     23 CA          8.3245   46.5040   45.7930 C.3       3 GLC5        0.0000 
     24 CA          7.2330   45.5660   44.5800 C.3       9 GLL5        0.0000 
     25 CA          7.3245   42.5405   41.9705 C.3       3 GLC5        0.0000 
     26 CA          8.3260   44.1020   41.2930 C.3       9 GLL5        0.0000 
     27 CA          6.3230   40.9790   42.6480 C.3       6 GLP5        0.0000 
     28 CA          6.9695   42.5760   37.2975 C.3       3 GLC5        0.0000 
     29 CA          7.1500   43.1550   39.2660 C.3       9 GLL5        0.0000 
     30 CA          6.7890   41.9970   35.3290 C.3       6 GLP5        0.0000 
     31 CA          6.1580   42.3980   40.7455 C.3       3 GLC5        0.0000 
     32 CA          5.1660   41.6410   42.2250 C.3       6 GLP5        0.0000 
     33 CA          6.2325   41.4415   38.8590 C.3       3 GLC5        0.0000 
     34 CA         10.0790   43.0585   39.3905 C.3       3 GLC5        0.0000 
     35 CA          9.1280   44.7140   38.9730 C.3       9 GLL5        0.0000 
     36 CA         11.0300   41.4030   39.8080 C.3       6 GLP5        0.0000 
     37 CA          8.8930   46.6250   38.1355 C.3       3 GLC5        0.0000 
     38 CA          8.6580   48.5360   37.2980 C.3       6 GLP5        0.0000 
     39 CA          9.3375   42.2305   43.9800 C.3       3 GLC5        0.0000 
     40 CA         10.5780   43.9700   43.5720 C.3       9 GLL5        0.0000 
     41 CA          8.0970   40.4910   44.3880 C.3       6 GLP5        0.0000 
     42 CA         11.8685   43.5455   47.1015 C.3       3 GLC5        0.0000 
     43 CA         11.9400   45.0230   45.4460 C.3       9 GLL5        0.0000 
     44 CA         11.7970   42.0680   48.7570 C.3       6 GLP5        0.0000 
     45 CA         12.6205   48.0515   45.7720 C.3       3 GLC5        0.0000 
     46 CA         13.0710   45.9220   45.8690 C.3       9 GLL5        0.0000 
     47 CA         12.1700   50.1810   45.6750 C.3       6 GLP5        0.0000 
     48 CA         11.5335   46.4655   47.9025 C.3       3 GLC5        0.0000 
     49 CA         13.3550   46.0950   47.2300 C.3       9 GLL5        0.0000 
     50 CA          9.7120   46.8360   48.5750 C.3       6 GLP5        0.0000 
     51 CA         15.2465   46.9080   49.4825 C.3       3 GLC5        0.0000 
     52 CA         14.4100   46.9390   47.5940 C.3       9 GLL5        0.0000 
     53 CA         16.0830   46.8770   51.3710 C.3       6 GLP5        0.0000 
     54 N          14.1945   47.4040   42.7760 N.am      2 SEC2        0.0000 
     55 N          13.4960   46.3680   43.5150 N.am      8 SEL2        0.0000 
     56 N          14.8930   48.4400   42.0370 N.am      5 SEP2        0.0000 
     57 CA         13.4415   44.1980   41.8045 C.3       3 GLC5        0.0000 
     58 CA         12.4060   45.4990   43.1220 C.3       9 GLL5        0.0000 
     59 CA         14.4770   42.8970   40.4870 C.3       6 GLP5        0.0000 
     60 CA          5.9032   49.9575   41.2828 C.3       3 GLC5        0.0000 
     61 CA          6.4900   48.1240   42.2530 C.3       9 GLL5        0.0000 
     62 CA          3.2595   47.8930   40.0307 C.3       3 GLC5        0.0000 
     63 CA          5.0530   47.9940   41.7180 C.3       9 GLL5        0.0000 
     64 CA          1.5380   48.2050   38.9760 C.3       6 GLP5        0.0000 
     65 CA          2.4138   44.7715   36.1628 C.3       3 GLC5        0.0000 
     66 CA          0.6630   45.2080   35.4250 C.3       6 GLP5        0.0000 
     67 CA          2.9654   46.9046   38.9862 C.3       3 GLC5        0.0000 
     68 CA          4.6170   45.6640   38.1080 C.3       9 GLL5        0.0000 
     69 CA          4.1620   48.5037   38.1917 C.3       3 GLC5        0.0000 
     70 CA          5.2720   46.8990   38.0990 C.3       9 GLL5        0.0000 
     71 CA          2.9780   49.7390   37.7000 C.3       6 GLP5        0.0000 
     72 CA          7.0020   47.9023   37.9907 C.3       3 GLC5        0.0000 
     73 CA          5.9320   44.2148   44.1255 C.3       3 GLC5        0.0000 
     74 CA          6.4510   45.8030   43.2780 C.3       9 GLL5        0.0000 
     75 CA          5.0220   42.7450   44.3220 C.3       6 GLP5        0.0000 
     76 CA          9.3320   42.5516   39.8614 C.3       3 GLC5        0.0000 
     77 CA         11.6562   47.1992   43.5605 C.3       3 GLC5        0.0000 
     78 CA         11.6790   44.8700   44.0280 C.3       9 GLL5        0.0000 
     79 CA         10.9608   46.4573   46.3317 C.3       3 GLC5        0.0000 
     80 CA         14.0617   45.0395   48.7215 C.3       3 GLC5        0.0000 
     81 CA         14.2410   43.5620   50.0310 C.3       6 GLP5        0.0000 
     82 CA         16.2155   45.9437   47.8672 C.3       3 GLC5        0.0000 
     83 CA         17.6430   44.6170   48.6280 C.3       6 GLP5        0.0000 
     84 CA         13.4790   48.7257   46.3907 C.3       3 GLC5        0.0000 
     85 CA         16.7737   47.3915   45.1010 C.3       3 GLC5        0.0000 
     86 CA         15.1660   47.6020   46.6190 C.3       9 GLL5        0.0000 
     87 CA         18.5250   47.2710   44.2610 C.3       6 GLP5        0.0000 
     88 CA         13.3792   48.5127   44.6253 C.3       3 GLC5        0.0000 
     89 CA         14.8790   47.4220   45.2630 C.3       9 GLL5        0.0000 
     90 CA         12.4090   50.0270   44.1700 C.3       6 GLP5        0.0000 
     91 CA         14.4653   44.5989   45.6329 C.3       3 GLC5        0.0000 
     92 CA         13.8200   46.5750   44.8980 C.3       9 GLL5        0.0000 
     93 CA         15.4140   42.9060   45.5420 C.3       6 GLP5        0.0000 
     94 CA         12.8146   43.3801   44.0613 C.3       3 GLC5        0.0000 
     95 CA         13.6590   41.6500   44.2500 C.3       6 GLP5        0.0000 
@<TRIPOS>BOND
@<TRIPOS>SUBSTRUCTURE
     1 ALC1        1 GROUP        1 X    ALC  0     ROOT ALC X 1
     2 SEC2       54 GROUP        1 X    SEC  0     **** SEC X 2
     3 GLC5        4 GROUP        1 X    GLC  0     **** GLC X 6
     4 ALP1        3 GROUP        1 Y    ALP  0     ROOT ALP Y 8
     5 SEP2       56 GROUP        1 Y    SEP  0     **** SEP Y 9
     6 GLP5        6 GROUP        1 Y    GLP  0     **** GLP Y 13
     7 ALL1        2 GROUP        1 Z    ALL  0     ROOT ALL Z 15
     8 SEL2       55 GROUP        1 Z    SEL  0     **** SEL Z 16
     9 GLL5        5 GROUP        1 Z    GLL  0     **** GLL Z 20
@<TRIPOS>SET

