#    Name: 1xuo_LA1_1_ligand
#    Modification time : Mon Apr  7 15:31:49 2014

@<TRIPOS>MOLECULE
1xuo_LA1_1_ligand
   76    80     1     0     0
SMALL
NO_CHARGES


@<TRIPOS>ATOM
      1 O70         5.7540   48.6080   44.4640 O.2       1 LA1401      0.0000 
      2 C69         6.5260   48.8910   43.5580 C.2       1 LA1401      0.0000 
      3 N71         7.4750   49.8360   43.6580 N.am      1 LA1401      0.0000 
      4 C73         7.6380   50.6520   44.8480 C.3       1 LA1401      0.0000 
      5 C30         6.4900   48.1240   42.2530 C.3       1 LA1401      0.0000 
      6 C49         5.0530   47.9940   41.7180 C.3       1 LA1401      0.0000 
      7 C52         4.9090   47.1680   40.4530 C.ar      1 LA1401      0.0000 
      8 C59         4.2490   45.9140   40.4730 C.ar      1 LA1401      0.0000 
      9 C58         4.0880   45.1750   39.2970 C.ar      1 LA1401      0.0000 
     10 C61         3.4390   43.9140   39.2930 C.ar      1 LA1401      0.0000 
     11 C63         3.3160   43.2050   38.0900 C.ar      1 LA1401      0.0000 
     12 C65         3.8350   43.7190   36.8900 C.ar      1 LA1401      0.0000 
     13 C67         4.4940   44.9510   36.9110 C.ar      1 LA1401      0.0000 
     14 C57         4.6170   45.6640   38.1080 C.ar      1 LA1401      0.0000 
     15 C55         5.2720   46.8990   38.0990 C.ar      1 LA1401      0.0000 
     16 C53         5.4200   47.6380   39.2680 C.ar      1 LA1401      0.0000 
     17 N2          7.1120   46.8150   42.4690 N.am      1 LA1401      0.0000 
     18 C3          6.4510   45.8030   43.2780 C.3       1 LA1401      0.0000 
     19 C6          7.2330   45.5660   44.5800 C.3       1 LA1401      0.0000 
     20 C9          8.5560   44.8330   44.4840 C.2       1 LA1401      0.0000 
     21 O10         8.9430   44.3120   45.5260 O.2       1 LA1401      0.0000 
     22 N11         9.3430   44.7280   43.4140 N.am      1 LA1401      0.0000 
     23 C12         9.0340   45.2680   42.0890 C.3       1 LA1401      0.0000 
     24 C14         8.3260   44.1020   41.2930 C.3       1 LA1401      0.0000 
     25 C17         7.9100   44.3890   39.8340 C.3       1 LA1401      0.0000 
     26 C23         7.1500   43.1550   39.2660 C.3       1 LA1401      0.0000 
     27 C19         9.1280   44.7140   38.9730 C.3       1 LA1401      0.0000 
     28 C1          8.3280   46.5940   41.9450 C.2       1 LA1401      0.0000 
     29 O32         8.9410   47.4310   41.2770 O.2       1 LA1401      0.0000 
     30 C27        10.5780   43.9700   43.5720 C.3       1 LA1401      0.0000 
     31 C33        11.6790   44.8700   44.0280 C.ar      1 LA1401      0.0000 
     32 C39        11.9400   45.0230   45.4460 C.ar      1 LA1401      0.0000 
     33 C38        13.0710   45.9220   45.8690 C.ar      1 LA1401      0.0000 
     34 C41        13.3550   46.0950   47.2300 C.ar      1 LA1401      0.0000 
     35 C43        14.4100   46.9390   47.5940 C.ar      1 LA1401      0.0000 
     36 C45        15.1660   47.6020   46.6190 C.ar      1 LA1401      0.0000 
     37 C47        14.8790   47.4220   45.2630 C.ar      1 LA1401      0.0000 
     38 C37        13.8200   46.5750   44.8980 C.ar      1 LA1401      0.0000 
     39 N36        13.4960   46.3680   43.5150 N.ar      1 LA1401      0.0000 
     40 C34        12.4060   45.4990   43.1220 C.ar      1 LA1401      0.0000 
     41 H           8.1419   50.0260   42.8775 H         1 LA1401      0.0000 
     42 H           7.0715   48.6851   41.5208 H         1 LA1401      0.0000 
     43 H           4.6553   49.0114   41.5357 H         1 LA1401      0.0000 
     44 H           4.4228   47.5527   42.5146 H         1 LA1401      0.0000 
     45 H           3.8885   45.5518   41.3639 H         1 LA1401      0.0000 
     46 H           3.0677   43.5329   40.1611 H         1 LA1401      0.0000 
     47 H           2.8372   42.2915   38.0844 H         1 LA1401      0.0000 
     48 H           3.7309   43.1999   36.0213 H         1 LA1401      0.0000 
     49 H           4.8900   45.3351   36.0441 H         1 LA1401      0.0000 
     50 H           5.6504   47.2653   37.2098 H         1 LA1401      0.0000 
     51 H           5.9173   48.5427   39.2367 H         1 LA1401      0.0000 
     52 H           6.3875   44.8493   42.7454 H         1 LA1401      0.0000 
     53 H           5.4360   46.1113   43.5466 H         1 LA1401      0.0000 
     54 H           6.5649   45.0152   45.2899 H         1 LA1401      0.0000 
     55 H           7.4044   46.5597   45.0668 H         1 LA1401      0.0000 
     56 H          10.0350   45.3569   41.5319 H         1 LA1401      0.0000 
     57 H           7.4275   43.7984   41.8712 H         1 LA1401      0.0000 
     58 H           9.0064   43.2241   41.3080 H         1 LA1401      0.0000 
     59 H           7.2344   45.2269   39.8302 H         1 LA1401      0.0000 
     60 H          10.8670   43.5045   42.6209 H         1 LA1401      0.0000 
     61 H          10.4440   43.1671   44.3083 H         1 LA1401      0.0000 
     62 H          11.4054   44.5614   46.1347 H         1 LA1401      0.0000 
     63 H          12.8054   45.6168   47.9379 H         1 LA1401      0.0000 
     64 H          14.6338   47.0748   48.5907 H         1 LA1401      0.0000 
     65 H          15.9338   48.2224   46.9028 H         1 LA1401      0.0000 
     66 H          15.4273   47.8962   44.5487 H         1 LA1401      0.0000 
     67 H          12.2385   45.4060   42.1016 H         1 LA1401      0.0000 
     68 H           7.8358   50.0960   45.6553 H         1 LA1401      0.0000 
     69 H           8.3891   51.3049   44.7506 H         1 LA1401      0.0000 
     70 H           6.8142   51.1812   45.0512 H         1 LA1401      0.0000 
     71 H           7.7184   42.3323   39.2751 H         1 LA1401      0.0000 
     72 H           6.3276   42.9490   39.7962 H         1 LA1401      0.0000 
     73 H           6.8601   43.3005   38.3201 H         1 LA1401      0.0000 
     74 H           9.6162   45.5194   39.3092 H         1 LA1401      0.0000 
     75 H           9.7837   43.9591   38.9572 H         1 LA1401      0.0000 
     76 H           8.8730   44.9007   38.0243 H         1 LA1401      0.0000 
@<TRIPOS>BOND
     1    2    1 2    
     2    3    2 am   
     3    5    2 1    
     4    4    3 1    
     5   41    3 1    
     6   68    4 1    
     7   69    4 1    
     8   70    4 1    
     9    6    5 1    
    10   17    5 1    
    11   42    5 1    
    12    7    6 1    
    13   43    6 1    
    14   44    6 1    
    15    8    7 ar   
    16   16    7 ar   
    17    9    8 ar   
    18   45    8 1    
    19   10    9 ar   
    20   14    9 ar   
    21   11   10 ar   
    22   46   10 1    
    23   12   11 ar   
    24   47   11 1    
    25   13   12 ar   
    26   48   12 1    
    27   14   13 ar   
    28   49   13 1    
    29   15   14 ar   
    30   16   15 ar   
    31   50   15 1    
    32   51   16 1    
    33   18   17 1    
    34   28   17 am   
    35   19   18 1    
    36   52   18 1    
    37   53   18 1    
    38   20   19 1    
    39   54   19 1    
    40   55   19 1    
    41   21   20 2    
    42   22   20 am   
    43   23   22 1    
    44   30   22 1    
    45   24   23 1    
    46   28   23 1    
    47   56   23 1    
    48   25   24 1    
    49   57   24 1    
    50   58   24 1    
    51   26   25 1    
    52   27   25 1    
    53   59   25 1    
    54   71   26 1    
    55   72   26 1    
    56   73   26 1    
    57   74   27 1    
    58   75   27 1    
    59   76   27 1    
    60   29   28 2    
    61   31   30 1    
    62   60   30 1    
    63   61   30 1    
    64   32   31 ar   
    65   40   31 ar   
    66   33   32 ar   
    67   62   32 1    
    68   34   33 ar   
    69   38   33 ar   
    70   35   34 ar   
    71   63   34 1    
    72   36   35 ar   
    73   64   35 1    
    74   37   36 ar   
    75   65   36 1    
    76   38   37 ar   
    77   66   37 1    
    78   39   38 ar   
    79   40   39 ar   
    80   67   40 1    
@<TRIPOS>SUBSTRUCTURE
     1 LA1401      1 GROUP   
@<TRIPOS>SET

