#    Name: 3aje_ANP_1_INTS_M
#    Modification time : Tue Mar 25 12:01:02 2014

@<TRIPOS>MOLECULE
3aje_ANP_1_INTS_M
   70     0    12     0     0
SMALL
NO_CHARGES


@<TRIPOS>ATOM
      1 N          39.4310   35.6635   21.3390 N.am      2 SEC2        0.0000 
      2 N          40.4930   34.9910   20.9820 N.am     10 SEL2        0.0000 
      3 N          38.3690   36.3360   21.6960 N.am      6 SEP2        0.0000 
      4 N          40.1390   35.3865   22.5970 N.am      2 SEC2        0.0000 
      5 N          39.7850   35.7820   24.2120 N.am      6 SEP2        0.0000 
      6 N          39.7095   38.0640   21.2920 N.am      2 SEC2        0.0000 
      7 N          40.6680   37.2460   21.9600 N.am     10 SEL2        0.0000 
      8 N          38.7510   38.8820   20.6240 N.am      6 SEP2        0.0000 
      9 N          39.5185   36.7910   21.8280 N.am      2 SEC2        0.0000 
     10 N          40.2265   36.5140   23.0860 N.am      2 SEC2        0.0000 
     11 NZ         42.4620   37.8535   23.8515 N.4       3 LYC4        0.0000 
     12 NZ         43.1210   37.1120   22.6310 N.4      11 LYL4        0.0000 
     13 NZ         42.8000   39.4570   25.2410 N.4       7 LYP4        0.0000 
     14 N          42.4620   37.8535   23.8515 N.am      2 SEC2        0.0000 
     15 N          43.1210   37.1120   22.6310 N.am     10 SEL2        0.0000 
     16 N          41.8030   38.5950   25.0720 N.am      6 SEP2        0.0000 
     17 N          43.4660   38.2860   23.5020 N.am      2 SEC2        0.0000 
     18 N          43.8110   39.4600   24.3730 N.am      6 SEP2        0.0000 
     19 NZ         43.5055   37.4725   17.2455 N.4       3 LYC4        0.0000 
     20 NZ         42.4210   38.2580   18.3060 N.4      11 LYL4        0.0000 
     21 NZ         44.9300   35.6600   16.9340 N.4       7 LYP4        0.0000 
     22 NZ         41.6840   39.3015   17.5435 N.4       3 LYC4        0.0000 
     23 NZ         40.9470   40.3450   16.7810 N.4       7 LYP4        0.0000 
     24 N          43.5225   36.9585   18.2685 N.am      2 SEC2        0.0000 
     25 N          42.4210   38.2580   18.3060 N.am     10 SEL2        0.0000 
     26 N          44.6240   35.6590   18.2310 N.am      6 SEP2        0.0000 
     27 N          43.5055   37.4725   17.2455 N.am      2 SEC2        0.0000 
     28 N          44.5900   36.6870   16.1850 N.am      6 SEP2        0.0000 
     29 N          41.6840   39.3015   17.5435 N.am      2 SEC2        0.0000 
     30 N          40.9470   40.3450   16.7810 N.am      6 SEP2        0.0000 
     31 NZ         42.0650   40.4025   18.1570 N.4       3 LYC4        0.0000 
     32 NZ         43.1830   40.4600   19.5330 N.4      11 LYL4        0.0000 
     33 N          43.8400   41.9560   19.5455 N.am      2 SEC2        0.0000 
     34 N          43.1830   40.4600   19.5330 N.am     10 SEL2        0.0000 
     35 N          44.4970   43.4520   19.5580 N.am      6 SEP2        0.0000 
     36 N          44.5650   36.9945   18.9435 N.am      2 SEC2        0.0000 
     37 N          44.5060   38.3300   19.6560 N.am     10 SEL2        0.0000 
     38 CA         45.1050   39.3865   18.8205 C.3       4 GLC5        0.0000 
     39 CA         45.2090   38.6320   20.8850 C.3      12 GLL5        0.0000 
     40 CA         45.0010   40.1410   16.7560 C.3       8 GLP5        0.0000 
     41 CA         47.3240   37.6500   18.9095 C.3       4 GLC5        0.0000 
     42 CA         46.6470   38.1110   20.7650 C.3      12 GLL5        0.0000 
     43 CA         48.0010   37.1890   17.0540 C.3       8 GLP5        0.0000 
     44 N          46.7775   37.7670   24.0720 N.am      2 SEC2        0.0000 
     45 N          46.9340   37.2530   22.9200 N.am     10 SEL2        0.0000 
     46 N          46.6210   38.2810   25.2240 N.am      6 SEP2        0.0000 
     47 CA         48.3530   38.0755   18.6715 C.3       4 GLC5        0.0000 
     48 CA         48.7050   38.9620   20.2890 C.3      12 GLL5        0.0000 
     49 CA         51.8200   41.3355   18.4210 C.3       4 GLC5        0.0000 
     50 CA         50.8820   41.6480   20.4340 C.3      12 GLL5        0.0000 
     51 CA         52.7580   41.0230   16.4080 C.3       8 GLP5        0.0000 
     52 CA         53.2480   42.4815   18.9235 C.3       4 GLC5        0.0000 
     53 CA         52.1810   42.1440   20.5280 C.3      12 GLL5        0.0000 
     54 CA         54.3150   42.8190   17.3190 C.3       8 GLP5        0.0000 
     55 CA         52.6370   42.5745   22.4215 C.3       4 GLC5        0.0000 
     56 CA         53.0930   43.0050   24.3150 C.3       8 GLP5        0.0000 
     57 O          53.6890   44.0340   20.5245 O.2       1 ALC1        0.0000 
     58 O          52.4000   43.4740   20.5600 O.2       9 ALL1        0.0000 
     59 O          54.9780   44.5940   20.4890 O.2       5 ALP1        0.0000 
     60 CA         52.8785   40.4790   18.4295 C.3       4 GLC5        0.0000 
     61 CA         52.9990   39.9350   20.4510 C.3      12 GLL5        0.0000 
     62 CA         53.4090   38.7715   19.0555 C.3       4 GLC5        0.0000 
     63 CA         53.8190   37.6080   17.6600 C.3       8 GLP5        0.0000 
     64 CA         48.8237   40.0344   22.4881 C.3       4 GLC5        0.0000 
     65 CA         48.8180   38.0140   21.4880 C.3      12 GLL5        0.0000 
     66 CA         49.2350   41.5120   23.9420 C.3       8 GLP5        0.0000 
     67 CA         50.0105   41.2365   22.1683 C.3       4 GLC5        0.0000 
     68 CA         50.6900   40.2740   20.3550 C.3      12 GLL5        0.0000 
     69 CA         49.8495   41.9885   18.8582 C.3       4 GLC5        0.0000 
     70 CA         48.9130   43.0160   17.3220 C.3       8 GLP5        0.0000 
@<TRIPOS>BOND
@<TRIPOS>SUBSTRUCTURE
     1 ALC1       57 GROUP        1 X    ALC  0     ROOT ALC X 1
     2 SEC2        1 GROUP        1 X    SEC  0     **** SEC X 2
     3 LYC4       11 GROUP        1 X    LYC  0     **** LYC X 4
     4 GLC5       38 GROUP        1 X    GLC  0     **** GLC X 6
     5 ALP1       59 GROUP        1 Y    ALP  0     ROOT ALP Y 8
     6 SEP2        3 GROUP        1 Y    SEP  0     **** SEP Y 9
     7 LYP4       13 GROUP        1 Y    LYP  0     **** LYP Y 11
     8 GLP5       40 GROUP        1 Y    GLP  0     **** GLP Y 13
     9 ALL1       58 GROUP        1 Z    ALL  0     ROOT ALL Z 15
    10 SEL2        2 GROUP        1 Z    SEL  0     **** SEL Z 16
    11 LYL4       12 GROUP        1 Z    LYL  0     **** LYL Z 18
    12 GLL5       39 GROUP        1 Z    GLL  0     **** GLL Z 20
@<TRIPOS>SET

