#    Name: 3aje_ANP_1_ligand
#    Modification time : Tue Mar 25 12:01:02 2014

@<TRIPOS>MOLECULE
3aje_ANP_1_ligand
   43    45     1     0     0
SMALL
NO_CHARGES


@<TRIPOS>ATOM
      1 PG         42.0620   34.6940   20.7930 P.3       1 ANP354      0.0000 
      2 O1G        42.8050   34.1550   21.9680 O.co2     1 ANP354      0.0000 
      3 O2G        40.4930   34.9910   20.9820 O.co2     1 ANP354      0.0000 
      4 O3G        42.2630   33.6340   19.5820 O.co2     1 ANP354      0.0000 
      5 PB         42.0920   37.2240   21.5640 P.3       1 ANP354      0.0000 
      6 O1B        40.6680   37.2460   21.9600 O.co2     1 ANP354      0.0000 
      7 O2B        43.1210   37.1120   22.6310 O.co2     1 ANP354      0.0000 
      8 N3B        42.4700   36.2040   20.3600 N.4       1 ANP354      0.0000 
      9 PA         43.0330   38.9640   19.4710 P.3       1 ANP354      0.0000 
     10 O1A        42.4210   38.2580   18.3060 O.co2     1 ANP354      0.0000 
     11 O2A        43.1830   40.4600   19.5330 O.co2     1 ANP354      0.0000 
     12 O3A        42.3370   38.6800   20.9000 O.3       1 ANP354      0.0000 
     13 O5'        44.5060   38.3300   19.6560 O.3       1 ANP354      0.0000 
     14 C5'        45.2090   38.6320   20.8850 C.3       1 ANP354      0.0000 
     15 C4'        46.6470   38.1110   20.7650 C.3       1 ANP354      0.0000 
     16 O4'        47.3900   38.9870   19.9140 O.3       1 ANP354      0.0000 
     17 C3'        47.4220   38.2890   22.0710 C.3       1 ANP354      0.0000 
     18 O3'        46.9340   37.2530   22.9200 O.3       1 ANP354      0.0000 
     19 C2'        48.8180   38.0140   21.4880 C.3       1 ANP354      0.0000 
     20 O2'        48.9890   36.6380   21.1140 O.3       1 ANP354      0.0000 
     21 C1'        48.7050   38.9620   20.2890 C.3       1 ANP354      0.0000 
     22 N9         49.3680   40.1060   20.2170 N.pl3     1 ANP354      0.0000 
     23 C8         48.7370   41.2810   20.2400 C.2       1 ANP354      0.0000 
     24 N7         49.6750   42.2160   20.3730 N.2       1 ANP354      0.0000 
     25 C5         50.8820   41.6480   20.4340 C.ar      1 ANP354      0.0000 
     26 C6         52.1810   42.1440   20.5280 C.ar      1 ANP354      0.0000 
     27 N6         52.4000   43.4740   20.5600 N.pl3     1 ANP354      0.0000 
     28 N1         53.1750   41.2420   20.5300 N.ar      1 ANP354      0.0000 
     29 C2         52.9990   39.9350   20.4510 C.ar      1 ANP354      0.0000 
     30 N3         51.7650   39.4550   20.3630 N.ar      1 ANP354      0.0000 
     31 C4         50.6900   40.2740   20.3550 C.ar      1 ANP354      0.0000 
     32 H          44.7448   38.1457   21.7405 H         1 ANP354      0.0000 
     33 H          45.2531   39.7038   21.0668 H         1 ANP354      0.0000 
     34 H          46.6873   37.1298   20.4601 H         1 ANP354      0.0000 
     35 H          47.3345   39.2422   22.3774 H         1 ANP354      0.0000 
     36 H          49.5222   38.4077   22.1497 H         1 ANP354      0.0000 
     37 H          49.1885   38.2367   19.4280 H         1 ANP354      0.0000 
     38 H          47.7885   41.4232   20.1733 H         1 ANP354      0.0000 
     39 H          53.2682   43.7864   20.1745 H         1 ANP354      0.0000 
     40 H          51.6747   44.0297   20.9663 H         1 ANP354      0.0000 
     41 H          53.8175   39.2867   20.4575 H         1 ANP354      0.0000 
     42 H          45.9394   37.2846   22.8212 H         1 ANP354      0.0000 
     43 H          48.3281   36.1346   21.6706 H         1 ANP354      0.0000 
@<TRIPOS>BOND
     1    2    1 ar   
     2    3    1 ar   
     3    4    1 ar   
     4    8    1 1    
     5    6    5 ar   
     6    7    5 ar   
     7    8    5 1    
     8   12    5 1    
     9   10    9 ar   
    10   11    9 ar   
    11   12    9 1    
    12   13    9 1    
    13   14   13 1    
    14   15   14 1    
    15   32   14 1    
    16   33   14 1    
    17   16   15 1    
    18   17   15 1    
    19   34   15 1    
    20   21   16 1    
    21   18   17 1    
    22   19   17 1    
    23   35   17 1    
    24   42   18 1    
    25   20   19 1    
    26   21   19 1    
    27   36   19 1    
    28   43   20 1    
    29   22   21 1    
    30   37   21 1    
    31   23   22 1    
    32   31   22 1    
    33   24   23 2    
    34   38   23 1    
    35   25   24 1    
    36   26   25 ar   
    37   31   25 ar   
    38   27   26 1    
    39   28   26 ar   
    40   39   27 1    
    41   40   27 1    
    42   29   28 ar   
    43   30   29 ar   
    44   41   29 1    
    45   31   30 ar   
@<TRIPOS>SUBSTRUCTURE
     1 ANP354      1 GROUP   
@<TRIPOS>SET

