#    Name: 2zo3_33U_1_INTS_M
#    Modification time : Tue Mar 25 10:56:01 2014

@<TRIPOS>MOLECULE
2zo3_33U_1_INTS_M
   78     0    12     0     0
SMALL
NO_CHARGES


@<TRIPOS>ATOM
      1 CA         17.6260  -13.5555   26.1480 C.3       4 GLC5        0.0000 
      2 CA         18.2260  -15.0720   24.7510 C.3      12 GLL5        0.0000 
      3 CA         17.0260  -12.0390   27.5450 C.3       8 GLP5        0.0000 
      4 N          15.7700  -12.4225   23.9845 N.am      2 SEC2        0.0000 
      5 N          16.8080  -13.1400   22.9930 N.am     10 SEL2        0.0000 
      6 N          14.7320  -11.7050   24.9760 N.am      6 SEP2        0.0000 
      7 O          15.5325  -15.1140   23.9495 O.2       1 ALC1        0.0000 
      8 O          16.4490  -15.9680   23.1650 O.2       9 ALL1        0.0000 
      9 O          14.6160  -14.2600   24.7340 O.2       5 ALP1        0.0000 
     10 CA         22.6355  -11.5765   23.7105 C.3       4 GLC5        0.0000 
     11 CA         22.1540  -13.1820   24.9610 C.3      12 GLL5        0.0000 
     12 CA         23.1170   -9.9710   22.4600 C.3       8 GLP5        0.0000 
     13 CA         20.8575  -11.1810   24.2545 C.3       4 GLC5        0.0000 
     14 CA         21.0620  -12.6360   25.6470 C.3      12 GLL5        0.0000 
     15 CA         20.6530   -9.7260   22.8620 C.3       8 GLP5        0.0000 
     16 CA         17.9505  -11.2700   22.8705 C.3       4 GLC5        0.0000 
     17 CA         18.4760  -12.1080   21.1290 C.3      12 GLL5        0.0000 
     18 CA         17.4250  -10.4320   24.6120 C.3       8 GLP5        0.0000 
     19 CA         19.4320  -10.5015   18.9655 C.3       4 GLC5        0.0000 
     20 CA         19.5610  -12.1080   20.0100 C.3      12 GLL5        0.0000 
     21 CA         19.3030   -8.8950   17.9210 C.3       8 GLP5        0.0000 
     22 CA         19.4275  -15.3085   19.3005 C.3       4 GLC5        0.0000 
     23 CA         19.5020  -14.3450   20.9290 C.3      12 GLL5        0.0000 
     24 CA         19.3530  -16.2720   17.6720 C.3       8 GLP5        0.0000 
     25 O          16.8075   -9.6830   21.3660 O.2       1 ALC1        0.0000 
     26 O          16.4550  -10.8700   20.5460 O.2       9 ALL1        0.0000 
     27 O          17.1600   -8.4960   22.1860 O.2       5 ALP1        0.0000 
     28 CA         15.2400   -8.9465   18.5780 C.3       4 GLC5        0.0000 
     29 CA         15.1690  -10.8060   19.7930 C.3      12 GLL5        0.0000 
     30 CA         15.3110   -7.0870   17.3630 C.3       8 GLP5        0.0000 
     31 OD1         9.4120   -9.3720   25.0115 O.co2     3 ASC3        0.0000 
     32 OD1        10.9220  -10.5600   23.8390 O.co2    11 ASL3        0.0000 
     33 OD1         8.1800   -9.2610   25.5700 O.co2     7 ASP3        0.0000 
     34 OD1         9.2095  -10.4750   24.8505 O.co2     3 ASC3        0.0000 
     35 OD1         7.8580  -11.4160   25.6640 O.co2     7 ASP3        0.0000 
     36 O           9.2095  -10.4750   24.8505 O.2       1 ALC1        0.0000 
     37 O          10.2390  -11.6890   24.1310 O.2       9 ALL1        0.0000 
     38 O           8.1800   -9.2610   25.5700 O.2       5 ALP1        0.0000 
     39 O           9.0485  -11.5525   24.8975 O.2       1 ALC1        0.0000 
     40 O           7.8580  -11.4160   25.6640 O.2       5 ALP1        0.0000 
     41 O          10.2960  -13.1630   24.1025 O.2       1 ALC1        0.0000 
     42 O          10.3530  -14.6370   24.0740 O.2       5 ALP1        0.0000 
     43 O           9.4120   -9.3720   25.0115 O.2       1 ALC1        0.0000 
     44 O          10.6440   -9.4830   24.4530 O.2       9 ALL1        0.0000 
     45 CA         10.7460   -8.2180   22.1475 C.3       4 GLC5        0.0000 
     46 CA         12.4490   -9.4150   22.1440 C.3      12 GLL5        0.0000 
     47 CA          9.0430   -7.0210   22.1510 C.3       8 GLP5        0.0000 
     48 CA         19.4742  -16.8245   28.1743 C.3       4 GLC5        0.0000 
     49 CA         17.9470  -17.5430   27.7200 C.3      12 GLL5        0.0000 
     50 CA         20.8230  -15.5150   28.9480 C.3       8 GLP5        0.0000 
     51 CA         19.4498  -15.9322   27.6277 C.3       4 GLC5        0.0000 
     52 CA         17.9150  -16.3500   26.9880 C.3      12 GLL5        0.0000 
     53 CA         16.4082  -16.3379   27.4387 C.3       4 GLC5        0.0000 
     54 CA         14.7320  -16.0280   28.3870 C.3       8 GLP5        0.0000 
     55 CA         22.9490  -12.1475   26.4350 C.3       4 GLC5        0.0000 
     56 CA         24.2900  -11.3860   27.5660 C.3       8 GLP5        0.0000 
     57 CA         20.6080  -14.3777   27.1814 C.3       4 GLC5        0.0000 
     58 CA         18.9327  -11.6915   25.1073 C.3       4 GLC5        0.0000 
     59 CA         19.8190  -13.2660   25.5580 C.3      12 GLL5        0.0000 
     60 CA         19.3000  -13.9522   18.7480 C.3       4 GLC5        0.0000 
     61 CA         20.5050  -13.2450   20.4680 C.3      12 GLL5        0.0000 
     62 CA         18.5670  -15.2280   17.2570 C.3       8 GLP5        0.0000 
     63 CA         20.2074  -11.2013   21.6904 C.3       4 GLC5        0.0000 
     64 CA         21.7047  -13.7314   20.1635 C.3       4 GLC5        0.0000 
     65 CA         23.6420  -13.9520   19.7430 C.3       8 GLP5        0.0000 
     66 CA         14.9533  -10.5705   22.6517 C.3       4 GLC5        0.0000 
     67 CA         14.0590  -10.6760   20.8370 C.3      12 GLL5        0.0000 
     68 CA         16.0690   -9.8940   24.1420 C.3       8 GLP5        0.0000 
     69 CA         14.1917  -10.5380   23.3788 C.3       4 GLC5        0.0000 
     70 CA         12.0150  -10.5710   22.7850 C.3      12 GLL5        0.0000 
     71 CA         13.1410  -11.7586   24.0978 C.3       4 GLC5        0.0000 
     72 CA         13.7170  -12.3290   25.8200 C.3       8 GLP5        0.0000 
     73 CA         10.7309  -10.5247   21.1399 C.3       4 GLC5        0.0000 
     74 CA         12.6140  -11.7930   22.4460 C.3      12 GLL5        0.0000 
     75 CA          9.0800  -10.7510   19.9000 C.3       8 GLP5        0.0000 
     76 CA         12.8133   -7.6567   21.4688 C.3       4 GLC5        0.0000 
     77 CA         12.6700   -5.8790   21.2790 C.3       8 GLP5        0.0000 
     78 CA         14.5128   -9.6642   22.9002 C.3       4 GLC5        0.0000 
@<TRIPOS>BOND
@<TRIPOS>SUBSTRUCTURE
     1 ALC1        7 GROUP        1 X    ALC  0     ROOT ALC X 1
     2 SEC2        4 GROUP        1 X    SEC  0     **** SEC X 2
     3 ASC3       31 GROUP        1 X    ASC  0     **** ASC X 3
     4 GLC5        1 GROUP        1 X    GLC  0     **** GLC X 6
     5 ALP1        9 GROUP        1 Y    ALP  0     ROOT ALP Y 8
     6 SEP2        6 GROUP        1 Y    SEP  0     **** SEP Y 9
     7 ASP3       33 GROUP        1 Y    ASP  0     **** ASP Y 10
     8 GLP5        3 GROUP        1 Y    GLP  0     **** GLP Y 13
     9 ALL1        8 GROUP        1 Z    ALL  0     ROOT ALL Z 15
    10 SEL2        5 GROUP        1 Z    SEL  0     **** SEL Z 16
    11 ASL3       32 GROUP        1 Z    ASL  0     **** ASL Z 17
    12 GLL5        2 GROUP        1 Z    GLL  0     **** GLL Z 20
@<TRIPOS>SET

