#    Name: 2zo3_33U_1_ligand
#    Modification time : Tue Mar 25 10:56:01 2014

@<TRIPOS>MOLECULE
2zo3_33U_1_ligand
   68    71     1     0     0
SMALL
NO_CHARGES


@<TRIPOS>ATOM
      1 C37        18.5960  -17.5430   24.9920 C.ar      1 33U2501     0.0000 
      2 C26        18.6290  -18.7390   25.7250 C.ar      1 33U2501     0.0000 
      3 C25        18.3040  -18.7250   27.0810 C.ar      1 33U2501     0.0000 
      4 C34        17.9470  -17.5430   27.7200 C.ar      1 33U2501     0.0000 
      5 C23        17.9150  -16.3500   26.9880 C.ar      1 33U2501     0.0000 
      6 C7         18.2380  -16.3490   25.6270 C.ar      1 33U2501     0.0000 
      7 C8         18.2260  -15.0720   24.7510 C.3       1 33U2501     0.0000 
      8 C9         17.7610  -15.2520   23.2790 C.3       1 33U2501     0.0000 
      9 C10        17.7230  -13.8800   22.6210 C.2       1 33U2501     0.0000 
     10 O32        16.8080  -13.1400   22.9930 O.2       1 33U2501     0.0000 
     11 N2         16.4490  -15.9680   23.1650 N.4       1 33U2501     0.0000 
     12 C1         19.6290  -14.4240   24.8070 C.ar      1 33U2501     0.0000 
     13 C6         20.7220  -14.9670   24.1220 C.ar      1 33U2501     0.0000 
     14 C5         21.9730  -14.3330   24.2100 C.ar      1 33U2501     0.0000 
     15 C4         22.1540  -13.1820   24.9610 C.ar      1 33U2501     0.0000 
     16 C3         21.0620  -12.6360   25.6470 C.ar      1 33U2501     0.0000 
     17 C2         19.8190  -13.2660   25.5580 C.ar      1 33U2501     0.0000 
     18 N1         18.6110  -13.4510   21.6830 N.am      1 33U2501     0.0000 
     19 C14        18.4760  -12.1080   21.1290 C.3       1 33U2501     0.0000 
     20 C15        17.1200  -12.0380   20.4430 C.2       1 33U2501     0.0000 
     21 O22        16.7520  -13.0260   19.8230 O.2       1 33U2501     0.0000 
     22 C13        19.5610  -12.1080   20.0100 C.3       1 33U2501     0.0000 
     23 C12        20.5050  -13.2450   20.4680 C.3       1 33U2501     0.0000 
     24 C11        19.5020  -14.3450   20.9290 C.3       1 33U2501     0.0000 
     25 N23        16.4550  -10.8700   20.5460 N.am      1 33U2501     0.0000 
     26 C16        15.1690  -10.8060   19.7930 C.3       1 33U2501     0.0000 
     27 C17        14.0590  -10.6760   20.8370 C.ar      1 33U2501     0.0000 
     28 C22        13.6160  -11.8180   21.4860 C.ar      1 33U2501     0.0000 
     29 C21        12.6140  -11.7930   22.4460 C.ar      1 33U2501     0.0000 
     30 C24        12.0150  -10.5710   22.7850 C.ar      1 33U2501     0.0000 
     31 C27        10.9220  -10.5600   23.8390 C.cat     1 33U2501     0.0000 
     32 N35        10.2390  -11.6890   24.1310 N.pl3     1 33U2501     0.0000 
     33 N34        10.6440   -9.4830   24.4530 N.pl3     1 33U2501     0.0000 
     34 C19        12.4490   -9.4150   22.1440 C.ar      1 33U2501     0.0000 
     35 C18        13.4640   -9.4540   21.1730 C.ar      1 33U2501     0.0000 
     36 H          18.8332  -17.5461   23.9968 H         1 33U2501     0.0000 
     37 H          18.8903  -19.6137   25.2640 H         1 33U2501     0.0000 
     38 H          18.3295  -19.6090   27.6184 H         1 33U2501     0.0000 
     39 H          17.7095  -17.5404   28.7142 H         1 33U2501     0.0000 
     40 H          17.6532  -15.4721   27.4527 H         1 33U2501     0.0000 
     41 H          17.5399  -14.3489   25.2346 H         1 33U2501     0.0000 
     42 H          18.5395  -15.8360   22.7730 H         1 33U2501     0.0000 
     43 H          20.6144  -15.8136   23.5643 H         1 33U2501     0.0000 
     44 H          22.7768  -14.7433   23.6967 H         1 33U2501     0.0000 
     45 H          23.0698  -12.7329   25.0174 H         1 33U2501     0.0000 
     46 H          21.1750  -11.7893   26.2038 H         1 33U2501     0.0000 
     47 H          19.0096  -12.8564   26.0694 H         1 33U2501     0.0000 
     48 H          18.6378  -11.3692   21.7839 H         1 33U2501     0.0000 
     49 H          20.0734  -11.1930   20.0219 H         1 33U2501     0.0000 
     50 H          19.1167  -12.3610   19.0943 H         1 33U2501     0.0000 
     51 H          21.0742  -12.9262   21.2896 H         1 33U2501     0.0000 
     52 H          21.0589  -13.5992   19.6505 H         1 33U2501     0.0000 
     53 H          19.0386  -14.7387   20.0883 H         1 33U2501     0.0000 
     54 H          20.0049  -15.0076   21.5491 H         1 33U2501     0.0000 
     55 H          16.7365  -10.0775   21.0607 H         1 33U2501     0.0000 
     56 H          15.0161  -11.7087   19.2295 H         1 33U2501     0.0000 
     57 H          15.1496   -9.9435   19.1516 H         1 33U2501     0.0000 
     58 H          14.0551  -12.7381   21.2423 H         1 33U2501     0.0000 
     59 H          12.3104  -12.6545   22.9060 H         1 33U2501     0.0000 
     60 H           9.5737  -11.6210   24.8745 H         1 33U2501     0.0000 
     61 H          10.4595  -12.4922   23.5776 H         1 33U2501     0.0000 
     62 H           9.9295   -9.5456   25.1498 H         1 33U2501     0.0000 
     63 H          11.1659   -8.6744   24.1815 H         1 33U2501     0.0000 
     64 H          12.0189   -8.5039   22.3832 H         1 33U2501     0.0000 
     65 H          13.7656   -8.5909   20.7144 H         1 33U2501     0.0000 
     66 H          16.1643  -16.0721   22.2121 H         1 33U2501     0.0000 
     67 H          16.4911  -16.8856   23.5603 H         1 33U2501     0.0000 
     68 H          15.7164  -15.4785   23.6379 H         1 33U2501     0.0000 
@<TRIPOS>BOND
     1    2    1 ar   
     2    6    1 ar   
     3   36    1 1    
     4    3    2 ar   
     5   37    2 1    
     6    4    3 ar   
     7   38    3 1    
     8    5    4 ar   
     9   39    4 1    
    10    6    5 ar   
    11   40    5 1    
    12    7    6 1    
    13    8    7 1    
    14   12    7 1    
    15   41    7 1    
    16    9    8 1    
    17   11    8 1    
    18   42    8 1    
    19   10    9 2    
    20   18    9 am   
    21   66   11 1    
    22   67   11 1    
    23   68   11 1    
    24   13   12 ar   
    25   17   12 ar   
    26   14   13 ar   
    27   43   13 1    
    28   15   14 ar   
    29   44   14 1    
    30   16   15 ar   
    31   45   15 1    
    32   17   16 ar   
    33   46   16 1    
    34   47   17 1    
    35   19   18 1    
    36   24   18 1    
    37   20   19 1    
    38   22   19 1    
    39   48   19 1    
    40   21   20 2    
    41   25   20 am   
    42   23   22 1    
    43   49   22 1    
    44   50   22 1    
    45   24   23 1    
    46   51   23 1    
    47   52   23 1    
    48   53   24 1    
    49   54   24 1    
    50   26   25 1    
    51   55   25 1    
    52   27   26 1    
    53   56   26 1    
    54   57   26 1    
    55   28   27 ar   
    56   35   27 ar   
    57   29   28 ar   
    58   58   28 1    
    59   30   29 ar   
    60   59   29 1    
    61   31   30 1    
    62   34   30 ar   
    63   32   31 ar   
    64   33   31 ar   
    65   60   32 1    
    66   61   32 1    
    67   62   33 1    
    68   63   33 1    
    69   35   34 ar   
    70   64   34 1    
    71   65   35 1    
@<TRIPOS>SUBSTRUCTURE
     1 33U2501     1 GROUP   
@<TRIPOS>SET

